REMARK  Name = ZINC36586597
REMARK  15 active torsions:
REMARK  status: ('A' for Active; 'I' for Inactive)
REMARK    1  A    between atoms: C_1  and  C_2
REMARK    2  A    between atoms: C_5  and  S_8
REMARK    3  A    between atoms: S_8  and  C_11
REMARK    4  A    between atoms: C_11  and  N_12
REMARK    5  A    between atoms: C_13  and  C_15
REMARK    6  A    between atoms: C_15  and  C_17
REMARK    7  A    between atoms: C_15  and  N_24
REMARK    8  A    between atoms: C_21  and  O_23
REMARK    9  A    between atoms: N_24  and  C_35
REMARK   10  A    between atoms: C_25  and  C_27
REMARK   11  A    between atoms: C_28  and  O_34
REMARK   12  A    between atoms: C_32  and  O_33
REMARK   13  A    between atoms: C_35  and  C_36
REMARK   14  A    between atoms: C_35  and  C_37
REMARK   15  A    between atoms: C_35  and  C_38
REMARK                            x       y       z     vdW  Elec       q    Type
REMARK                         _______ _______ _______ _____ _____    ______ ____
ROOT
ATOM      1  C   UNL     1       4.496  -4.945   4.319  0.00  0.00    +0.193 C 
ENDROOT
BRANCH   1   2
ATOM      2  C   UNL     1       4.485  -3.739   5.223  0.00  0.00    -0.015 A 
ATOM      3  C   UNL     1       3.306  -3.336   5.823  0.00  0.00    +0.006 A 
ATOM      4  C   UNL     1       3.293  -2.230   6.653  0.00  0.00    +0.004 A 
ATOM      5  C   UNL     1       4.458  -1.525   6.885  0.00  0.00    +0.045 A 
ATOM      6  C   UNL     1       5.642  -1.927   6.284  0.00  0.00    +0.117 A 
ATOM      7  C   UNL     1       5.654  -3.041   5.456  0.00  0.00    +0.051 A 
BRANCH   6   8
ATOM      8  O   UNL     1       6.789  -1.235   6.510  0.00  0.00    -0.507 OA
ATOM      9  H   UNL     1       7.297  -1.553   7.269  0.00  0.00    +0.292 HD
ENDBRANCH   6   8
ENDBRANCH   1   2
BRANCH   1  11
ATOM     10  N   UNL     1       5.638  -3.734   2.489  0.00  0.00    -0.294 N 
ATOM     11  C   UNL     1       4.598  -4.496   2.884  0.00  0.00    +0.239 C 
ATOM     12  O   UNL     1       3.745  -4.819   2.085  0.00  0.00    -0.273 OA
ATOM     13  H   UNL     1       6.320  -3.476   3.128  0.00  0.00    +0.150 HD
BRANCH  10  14
ATOM     14  C   UNL     1       5.738  -3.298   1.094  0.00  0.00    +0.278 C 
BRANCH  14  15
ATOM     15  S   UNL     1       5.020  -1.641   0.926  0.00  0.00    +0.013 S 
ATOM     16  O   UNL     1       3.759  -1.585   1.579  0.00  0.00    -0.168 OA
ATOM     17  O   UNL     1       5.166  -1.177  -0.409  0.00  0.00    -0.168 OA
BRANCH  15  22
ATOM     18  C   UNL     1       8.604   1.944   4.200  0.00  0.00    +0.044 C 
ATOM     19  C   UNL     1       7.709   1.048   3.382  0.00  0.00    -0.050 A 
ATOM     20  C   UNL     1       7.981   0.835   2.044  0.00  0.00    +0.005 A 
ATOM     21  C   UNL     1       7.160   0.014   1.294  0.00  0.00    +0.027 A 
ATOM     22  C   UNL     1       6.067  -0.595   1.883  0.00  0.00    +0.090 A 
ATOM     23  C   UNL     1       5.795  -0.382   3.221  0.00  0.00    +0.027 A 
ATOM     24  C   UNL     1       6.619   0.436   3.972  0.00  0.00    +0.005 A 
ENDBRANCH  15  22
ENDBRANCH  14  15
ENDBRANCH  10  14
ENDBRANCH   1  11
BRANCH   1  25
ATOM     25  N   UNL     1       3.258  -5.706   4.505  0.00  0.00    -0.277 N 
ATOM     26  C   UNL     1       2.078  -5.176   4.127  0.00  0.00    +0.255 C 
ATOM     27  O   UNL     1       2.027  -4.029   3.726  0.00  0.00    -0.270 OA
BRANCH  26  28
ATOM     28  C   UNL     1       0.851  -5.986   4.200  0.00  0.00    +0.119 A 
ATOM     29  C   UNL     1       0.028  -5.922   5.334  0.00  0.00    +0.133 A 
ATOM     30  C   UNL     1      -1.125  -6.688   5.391  0.00  0.00    +0.046 A 
ATOM     31  C   UNL     1      -1.466  -7.514   4.336  0.00  0.00    +0.007 A 
ATOM     32  C   UNL     1      -0.662  -7.585   3.213  0.00  0.00    +0.046 A 
ATOM     33  C   UNL     1       0.493  -6.823   3.132  0.00  0.00    +0.133 A 
BRANCH  33  34
ATOM     34  O   UNL     1       1.276  -6.890   2.027  0.00  0.00    -0.506 OA
ATOM     35  H   UNL     1       1.962  -7.571   2.072  0.00  0.00    +0.292 HD
ENDBRANCH  33  34
BRANCH  29  36
ATOM     36  O   UNL     1       0.360  -5.113   6.371  0.00  0.00    -0.506 OA
ATOM     37  H   UNL     1      -0.000  -4.218   6.303  0.00  0.00    +0.292 HD
ENDBRANCH  29  36
ENDBRANCH  26  28
BRANCH  25  38
ATOM     38  C   UNL     1       3.303  -7.043   5.103  0.00  0.00    +0.030 C 
ATOM     39  C   UNL     1       4.724  -7.337   5.588  0.00  0.00    +0.031 C 
ATOM     40  C   UNL     1       2.337  -7.104   6.288  0.00  0.00    +0.031 C 
ATOM     41  C   UNL     1       2.895  -8.082   4.058  0.00  0.00    +0.031 C 
ENDBRANCH  25  38
ENDBRANCH   1  25
TORSDOF 11
