REMARK  Name = ZINC20834506
REMARK  13 active torsions:
REMARK  status: ('A' for Active; 'I' for Inactive)
REMARK    1  A    between atoms: C_1  and  C_2
REMARK    2  A    between atoms: C_2  and  C_32
REMARK    3  A    between atoms: C_4  and  N_10
REMARK    4  A    between atoms: C_6  and  C_8
REMARK    5  A    between atoms: C_6  and  C_9
REMARK    6  A    between atoms: C_11  and  C_13
REMARK    7  A    between atoms: C_13  and  S_14
REMARK    8  A    between atoms: S_14  and  C_15
REMARK    9  A    between atoms: N_20  and  N_21
REMARK   10  A    between atoms: C_22  and  C_23
REMARK   11  A    between atoms: C_27  and  O_30
REMARK   12  A    between atoms: C_28  and  O_29
REMARK   13  A    between atoms: O_30  and  C_31
REMARK                            x       y       z     vdW  Elec       q    Type
REMARK                         _______ _______ _______ _____ _____    ______ ____
ROOT
ATOM      1  C   UNL     1      -0.267   9.541  -3.919  0.00  0.00    +0.211 A 
ATOM      2  N   UNL     1      -0.510  10.427  -4.930  0.00  0.00    -0.186 NA
ATOM      3  C   UNL     1      -0.390  11.691  -4.422  0.00  0.00    +0.232 A 
ATOM      4  N   UNL     1      -0.085  11.589  -3.151  0.00  0.00    -0.245 N 
ATOM      5  N   UNL     1      -0.012  10.227  -2.831  0.00  0.00    -0.144 NA
ATOM      6  N   UNL     1      -0.561  12.873  -5.128  0.00  0.00    -0.205 N 
ATOM      7  H   UNL     1      -0.817  12.843  -6.197  0.00  0.00    +0.177 HD
ATOM      8  H   UNL     1       0.063  12.496  -2.546  0.00  0.00    +0.192 HD
ENDROOT
BRANCH   6   9
ATOM      9  N   UNL     1      -0.407  14.105  -4.479  0.00  0.00    -0.187 NA
ATOM     10  C   UNL     1      -0.566  15.211  -5.139  0.00  0.00    +0.142 C 
BRANCH  10  11
ATOM     11  C   UNL     1      -0.404  16.507  -4.456  0.00  0.00    +0.040 A 
ATOM     12  C   UNL     1      -0.576  17.700  -5.164  0.00  0.00    +0.013 A 
ATOM     13  C   UNL     1      -0.423  18.911  -4.521  0.00  0.00    +0.004 A 
ATOM     14  C   UNL     1      -0.102  18.952  -3.176  0.00  0.00    +0.049 A 
ATOM     15  C   UNL     1       0.071  17.776  -2.461  0.00  0.00    +0.162 A 
ATOM     16  C   UNL     1      -0.084  16.549  -3.094  0.00  0.00    +0.167 A 
BRANCH  16  17
ATOM     17  O   UNL     1       0.080  15.395  -2.395  0.00  0.00    -0.503 OA
ATOM     18  H   UNL     1       0.332  15.431  -1.325  0.00  0.00    +0.292 HD
ENDBRANCH  16  17
BRANCH  15  19
ATOM     19  O   UNL     1       0.388  17.825  -1.139  0.00  0.00    -0.491 OA
ATOM     20  C   UNL     1       0.526  19.120  -0.552  0.00  0.00    +0.277 C 
ENDBRANCH  15  19
ENDBRANCH  10  11
ENDBRANCH   6   9
BRANCH   1  21
ATOM     21  S   UNL     1      -0.297   7.784  -4.052  0.00  0.00    -0.075 S 
BRANCH  21  22
ATOM     22  C   UNL     1       0.105   7.210  -2.379  0.00  0.00    +0.173 C 
BRANCH  22  24
ATOM     23  N   UNL     1       0.389   5.051  -1.207  0.00  0.00    -0.312 N 
ATOM     24  C   UNL     1       0.113   5.703  -2.353  0.00  0.00    +0.224 C 
ATOM     25  O   UNL     1      -0.129   5.078  -3.364  0.00  0.00    -0.275 OA
ATOM     26  H   UNL     1       0.608   5.617  -0.290  0.00  0.00    +0.149 HD
BRANCH  23  30
ATOM     27  C   UNL     1      -0.944   0.975  -2.269  0.00  0.00    -0.010 C 
ATOM     28  C   UNL     1      -1.042   1.551  -0.852  0.00  0.00    -0.072 C 
ATOM     29  C   UNL     1      -1.022   3.076  -0.918  0.00  0.00    +0.009 C 
ATOM     30  C   UNL     1       0.396   3.583  -1.181  0.00  0.00    +0.070 C 
ATOM     31  C   UNL     1       1.298   3.104  -0.042  0.00  0.00    +0.009 C 
ATOM     32  C   UNL     1       1.320   1.577  -0.002  0.00  0.00    -0.072 C 
ATOM     33  N   UNL     1      -0.012   1.005   0.008  0.00  0.00    +0.386 N 
ATOM     34  C   UNL     1       2.035   1.156   1.301  0.00  0.00    -0.010 C 
ATOM     35  C   UNL     1       2.151   1.041  -1.172  0.00  0.00    -0.010 C 
ATOM     36  C   UNL     1      -2.415   1.129  -0.282  0.00  0.00    -0.010 C 
ATOM     37  H   UNL     1      -0.328   1.088   1.058  0.00  0.00    -0.084 HD
ATOM     38  H   UNL     1       0.152  -0.053  -0.244  0.00  0.00    -0.084 HD
ENDBRANCH  23  30
ENDBRANCH  22  24
ENDBRANCH  21  22
ENDBRANCH   1  21
TORSDOF 8
