REMARK  Name = ZINC22837755
REMARK  5 active torsions:
REMARK  status: ('A' for Active; 'I' for Inactive)
REMARK    1  A    between atoms: C_4  and  O_7
REMARK    2  A    between atoms: O_7  and  C_8
REMARK    3  A    between atoms: C_11  and  N_14
REMARK    4  A    between atoms: C_18  and  N_22
REMARK    5  A    between atoms: C_28  and  C_30
REMARK                            x       y       z     vdW  Elec       q    Type
REMARK                         _______ _______ _______ _____ _____    ______ ____
ROOT
ATOM      1  N   UNL     1       3.185  -6.144   0.269  0.00  0.00    -0.209 N 
ATOM      2  C   UNL     1       2.015  -6.789   0.176  0.00  0.00    +0.228 C 
ATOM      3  O   UNL     1       0.934  -6.264   0.024  0.00  0.00    -0.275 OA
ATOM      4  C   UNL     1       2.258  -8.278   0.291  0.00  0.00    +0.125 C 
ATOM      5  C   UNL     1       3.787  -8.383   0.468  0.00  0.00    +0.153 C 
ATOM      6  C   UNL     1       4.248  -6.942   0.428  0.00  0.00    +0.244 C 
ATOM      7  O   UNL     1       5.397  -6.570   0.529  0.00  0.00    -0.273 OA
ENDROOT
BRANCH   5   8
ATOM      8  N   UNL     1       4.384  -9.146  -0.637  0.00  0.00    -0.288 NA
ATOM      9  C   UNL     1       3.764 -10.472  -0.756  0.00  0.00    +0.104 C 
ATOM     10  C   UNL     1       4.282 -11.162  -2.023  0.00  0.00    +0.123 C 
ATOM     11  N   UNL     1       5.753 -11.164  -1.985  0.00  0.00    -0.296 N 
ATOM     12  C   UNL     1       6.444  -9.890  -1.732  0.00  0.00    +0.123 C 
ATOM     13  C   UNL     1       5.840  -9.251  -0.477  0.00  0.00    +0.104 C 
ATOM     14  C   UNL     1       6.448 -12.302  -2.179  0.00  0.00    +0.260 C 
ATOM     15  O   UNL     1       7.660 -12.272  -2.221  0.00  0.00    -0.271 OA
BRANCH  14  16
ATOM     16  C   UNL     1       5.720 -13.611  -2.342  0.00  0.00    +0.296 C 
ATOM     17  C   UNL     1       5.009 -13.642  -3.701  0.00  0.00    +0.283 C 
ATOM     18  O   UNL     1       4.341 -14.902  -3.829  0.00  0.00    -0.484 OA
ATOM     19  C   UNL     1       5.056 -16.010  -3.493  0.00  0.00    +0.162 A 
ATOM     20  C   UNL     1       4.624 -17.256  -3.923  0.00  0.00    +0.049 A 
ATOM     21  C   UNL     1       5.337 -18.391  -3.587  0.00  0.00    +0.004 A 
ATOM     22  C   UNL     1       6.484 -18.288  -2.822  0.00  0.00    +0.004 A 
ATOM     23  C   UNL     1       6.921 -17.049  -2.391  0.00  0.00    +0.049 A 
ATOM     24  C   UNL     1       6.210 -15.906  -2.726  0.00  0.00    +0.163 A 
ATOM     25  O   UNL     1       6.658 -14.693  -2.300  0.00  0.00    -0.473 OA
ENDBRANCH  14  16
ENDBRANCH   5   8
BRANCH   1  29
ATOM     26  C   UNL     1       3.492  -1.989   0.058  0.00  0.00    +0.129 A 
ATOM     27  C   UNL     1       4.056  -2.777  -0.935  0.00  0.00    +0.048 A 
ATOM     28  C   UNL     1       3.955  -4.153  -0.865  0.00  0.00    +0.027 A 
ATOM     29  C   UNL     1       3.288  -4.746   0.198  0.00  0.00    +0.044 A 
ATOM     30  C   UNL     1       2.725  -3.957   1.191  0.00  0.00    +0.027 A 
ATOM     31  C   UNL     1       2.831  -2.582   1.124  0.00  0.00    +0.048 A 
BRANCH  26  32
ATOM     32  O   UNL     1       3.592  -0.635  -0.011  0.00  0.00    -0.456 OA
BRANCH  32  36
ATOM     33  C   UNL     1       1.171   1.351  -2.697  0.00  0.00    +0.000 A 
ATOM     34  C   UNL     1       1.176  -0.031  -2.664  0.00  0.00    +0.004 A 
ATOM     35  C   UNL     1       1.986  -0.699  -1.765  0.00  0.00    +0.046 A 
ATOM     36  C   UNL     1       2.795   0.019  -0.896  0.00  0.00    +0.128 A 
ATOM     37  C   UNL     1       2.788   1.406  -0.931  0.00  0.00    +0.046 A 
ATOM     38  C   UNL     1       1.976   2.069  -1.832  0.00  0.00    +0.004 A 
ENDBRANCH  32  36
ENDBRANCH  26  32
ENDBRANCH   1  29
TORSDOF 5
