REMARK  Name = ZINC14664359
REMARK  11 active torsions:
REMARK  status: ('A' for Active; 'I' for Inactive)
REMARK    1  A    between atoms: C_1  and  C_2
REMARK    2  A    between atoms: C_2  and  C_3
REMARK    3  A    between atoms: C_2  and  O_4
REMARK    4  A    between atoms: O_4  and  C_5
REMARK    5  A    between atoms: C_10  and  C_11
REMARK    6  A    between atoms: N_13  and  C_14
REMARK    7  A    between atoms: C_14  and  N_16
REMARK    8  A    between atoms: N_16  and  C_17
REMARK    9  A    between atoms: C_20  and  S_23
REMARK   10  A    between atoms: S_23  and  N_26
REMARK   11  A    between atoms: N_26  and  C_27
REMARK                            x       y       z     vdW  Elec       q    Type
REMARK                         _______ _______ _______ _____ _____    ______ ____
ROOT
ATOM      1  N   UNL     1      -1.293   2.281  -0.167  0.00  0.00    -0.297 N 
ATOM      2  H   UNL     1      -0.618   2.136  -0.848  0.00  0.00    +0.154 HD
ENDROOT
BRANCH   1   3
ATOM      3  C   UNL     1      -2.446   1.491  -0.144  0.00  0.00    +0.033 A 
ATOM      4  C   UNL     1      -2.351   0.115  -0.309  0.00  0.00    +0.025 A 
ATOM      5  C   UNL     1      -3.492  -0.663  -0.281  0.00  0.00    +0.030 A 
ATOM      6  C   UNL     1      -4.729  -0.073  -0.099  0.00  0.00    +0.105 A 
ATOM      7  C   UNL     1      -4.828   1.297   0.060  0.00  0.00    +0.030 A 
ATOM      8  C   UNL     1      -3.691   2.081   0.038  0.00  0.00    +0.025 A 
BRANCH   6   9
ATOM      9  S   UNL     1      -6.182  -1.068  -0.071  0.00  0.00    +0.059 S 
ATOM     10  O   UNL     1      -5.772  -2.376   0.304  0.00  0.00    -0.153 OA
ATOM     11  O   UNL     1      -7.160  -0.339   0.658  0.00  0.00    -0.153 OA
BRANCH   9  12
ATOM     12  N   UNL     1      -6.734  -1.174  -1.629  0.00  0.00    -0.187 NA
ATOM     13  H   UNL     1      -7.590  -0.785  -1.868  0.00  0.00    +0.148 HD
BRANCH  12  14
ATOM     14  C   UNL     1      -5.929  -1.854  -2.646  0.00  0.00    +0.077 C 
ATOM     15  C   UNL     1      -5.085  -0.825  -3.401  0.00  0.00    +0.020 C 
ATOM     16  C   UNL     1      -4.245  -1.536  -4.464  0.00  0.00    +0.002 C 
ATOM     17  C   UNL     1      -5.169  -2.257  -5.447  0.00  0.00    +0.000 C 
ATOM     18  C   UNL     1      -6.013  -3.286  -4.692  0.00  0.00    +0.002 C 
ATOM     19  C   UNL     1      -6.853  -2.576  -3.629  0.00  0.00    +0.020 C 
ENDBRANCH  12  14
ENDBRANCH   9  12
ENDBRANCH   6   9
ENDBRANCH   1   3
BRANCH   1  20
ATOM     20  C   UNL     1      -1.118   3.246   0.759  0.00  0.00    +0.141 C 
ATOM     21  S   UNL     1      -2.354   3.573   1.897  0.00  0.00    -0.018 S 
BRANCH  20  24
ATOM     22  C   UNL     1       0.208   4.909   1.720  0.00  0.00    +0.253 C 
ATOM     23  O   UNL     1      -0.669   5.141   2.528  0.00  0.00    -0.270 OA
ATOM     24  N   UNL     1       0.031   3.948   0.791  0.00  0.00    -0.263 N 
ATOM     25  H   UNL     1       0.732   3.763   0.146  0.00  0.00    +0.157 HD
BRANCH  22  31
ATOM     26  C   UNL     1       1.654   6.678   2.719  0.00  0.00    +0.133 A 
ATOM     27  C   UNL     1       2.842   7.394   2.744  0.00  0.00    +0.046 A 
ATOM     28  C   UNL     1       3.833   7.123   1.821  0.00  0.00    +0.004 A 
ATOM     29  C   UNL     1       3.651   6.135   0.867  0.00  0.00    +0.001 A 
ATOM     30  C   UNL     1       2.480   5.410   0.831  0.00  0.00    +0.017 A 
ATOM     31  C   UNL     1       1.466   5.678   1.755  0.00  0.00    +0.079 A 
BRANCH  26  32
ATOM     32  O   UNL     1       0.680   6.943   3.625  0.00  0.00    -0.489 OA
BRANCH  32  34
ATOM     33  C   UNL     1      -0.460   8.586   4.982  0.00  0.00    +0.051 C 
ATOM     34  C   UNL     1       0.891   8.054   4.498  0.00  0.00    +0.167 C 
ATOM     35  C   UNL     1       1.723   7.607   5.701  0.00  0.00    +0.051 C 
ENDBRANCH  32  34
ENDBRANCH  26  32
ENDBRANCH  22  31
ENDBRANCH  20  24
ENDBRANCH   1  20
TORSDOF 9
