REMARK  Name = ZINC45896387
REMARK  8 active torsions:
REMARK  status: ('A' for Active; 'I' for Inactive)
REMARK    1  A    between atoms: C_1  and  C_2
REMARK    2  A    between atoms: C_2  and  O_3
REMARK    3  A    between atoms: O_3  and  C_4
REMARK    4  A    between atoms: C_7  and  N_10
REMARK    5  A    between atoms: N_13  and  C_14
REMARK    6  A    between atoms: C_23  and  O_24
REMARK    7  A    between atoms: N_25  and  C_26
REMARK    8  A    between atoms: C_26  and  C_27
REMARK                            x       y       z     vdW  Elec       q    Type
REMARK                         _______ _______ _______ _____ _____    ______ ____
ROOT
ATOM      1  C   UNL     1       2.474  -8.180   4.203  0.00  0.00    +0.140 A 
ATOM      2  C   UNL     1       2.623  -9.590   4.346  0.00  0.00    +0.075 A 
ATOM      3  C   UNL     1       3.389 -10.075   5.517  0.00  0.00    +0.042 A 
ATOM      4  C   UNL     1       3.588 -11.434   5.740  0.00  0.00    +0.013 A 
ATOM      5  C   UNL     1       4.307 -11.845   6.842  0.00  0.00    +0.001 A 
ATOM      6  C   UNL     1       4.829 -10.910   7.723  0.00  0.00    +0.004 A 
ATOM      7  C   UNL     1       4.637  -9.560   7.512  0.00  0.00    +0.047 A 
ATOM      8  C   UNL     1       3.916  -9.128   6.406  0.00  0.00    +0.141 A 
ATOM      9  O   UNL     1       3.719  -7.811   6.181  0.00  0.00    -0.424 OA
ATOM     10  C   UNL     1       3.031  -7.356   5.122  0.00  0.00    +0.309 A 
ATOM     11  N   UNL     1       2.102 -10.428   3.474  0.00  0.00    -0.378 N 
ATOM     12  H   UNL     1       2.121 -11.382   3.646  0.00  0.00    +0.160 HD
ENDROOT
BRANCH   1  16
ATOM     13  N   UNL     1      -0.260  -7.347   1.975  0.00  0.00    -0.269 N 
ATOM     14  C   UNL     1       0.416  -7.779   3.058  0.00  0.00    +0.308 C 
ATOM     15  O   UNL     1      -0.183  -8.286   3.987  0.00  0.00    -0.252 OA
ATOM     16  N   UNL     1       1.757  -7.648   3.111  0.00  0.00    -0.262 N 
ATOM     17  H   UNL     1       0.223  -7.013   1.203  0.00  0.00    +0.156 HD
ATOM     18  H   UNL     1       2.228  -7.189   2.399  0.00  0.00    +0.157 HD
BRANCH  13  22
ATOM     19  C   UNL     1      -4.429  -7.448   1.942  0.00  0.00    +0.121 A 
ATOM     20  C   UNL     1      -3.750  -7.226   3.131  0.00  0.00    +0.047 A 
ATOM     21  C   UNL     1      -2.369  -7.192   3.143  0.00  0.00    +0.027 A 
ATOM     22  C   UNL     1      -1.661  -7.381   1.964  0.00  0.00    +0.035 A 
ATOM     23  C   UNL     1      -2.341  -7.604   0.774  0.00  0.00    +0.027 A 
ATOM     24  C   UNL     1      -3.721  -7.643   0.765  0.00  0.00    +0.047 A 
BRANCH  19  25
ATOM     25  O   UNL     1      -5.788  -7.480   1.931  0.00  0.00    -0.492 OA
BRANCH  25  27
ATOM     26  C   UNL     1      -7.966  -7.343   2.970  0.00  0.00    +0.048 C 
ATOM     27  C   UNL     1      -6.452  -7.272   3.179  0.00  0.00    +0.225 C 
ENDBRANCH  25  27
ENDBRANCH  19  25
ENDBRANCH  13  22
ENDBRANCH   1  16
BRANCH  10  28
ATOM     28  O   UNL     1       2.885  -6.019   4.968  0.00  0.00    -0.479 OA
ATOM     29  H   UNL     1       3.309  -5.495   5.662  0.00  0.00    +0.295 HD
ENDBRANCH  10  28
BRANCH  11  30
ATOM     30  C   UNL     1       1.493  -9.918   2.243  0.00  0.00    +0.148 C 
BRANCH  30  31
ATOM     31  C   UNL     1       1.561 -10.977   1.173  0.00  0.00    -0.028 A 
ATOM     32  C   UNL     1       2.659 -11.043   0.335  0.00  0.00    +0.005 A 
ATOM     33  C   UNL     1       2.721 -12.014  -0.647  0.00  0.00    +0.000 A 
ATOM     34  C   UNL     1       1.687 -12.919  -0.790  0.00  0.00    +0.000 A 
ATOM     35  C   UNL     1       0.590 -12.854   0.048  0.00  0.00    +0.000 A 
ATOM     36  C   UNL     1       0.529 -11.885   1.032  0.00  0.00    +0.005 A 
ENDBRANCH  30  31
ENDBRANCH  11  30
TORSDOF 7
