REMARK  Name = ZINC09110451
REMARK  11 active torsions:
REMARK  status: ('A' for Active; 'I' for Inactive)
REMARK    1  A    between atoms: C_1  and  C_2
REMARK    2  A    between atoms: C_5  and  N_8
REMARK    3  A    between atoms: C_13  and  C_14
REMARK    4  A    between atoms: C_13  and  N_71
REMARK    5  A    between atoms: C_14  and  C_15
REMARK    6  A    between atoms: C_19  and  N_25
REMARK    7  A    between atoms: N_23  and  C_24
REMARK    8  A    between atoms: C_26  and  C_28
REMARK    9  A    between atoms: C_28  and  O_29
REMARK   10  A    between atoms: O_29  and  C_30
REMARK   11  A    between atoms: C_33  and  N_36
REMARK                            x       y       z     vdW  Elec       q    Type
REMARK                         _______ _______ _______ _____ _____    ______ ____
ROOT
ATOM      1  C   UNL     1       3.891  12.235  -0.412  0.00  0.00    +0.109 A 
ATOM      2  N   UNL     1       4.623  11.159  -0.370  0.00  0.00    -0.232 NA
ATOM      3  C   UNL     1       3.824  10.067  -0.263  0.00  0.00    +0.091 A 
ATOM      4  C   UNL     1       4.076   8.695  -0.180  0.00  0.00    +0.053 A 
ATOM      5  C   UNL     1       3.020   7.809  -0.076  0.00  0.00    +0.036 A 
ATOM      6  C   UNL     1       1.707   8.277  -0.058  0.00  0.00    +0.025 A 
ATOM      7  C   UNL     1       1.448   9.628  -0.133  0.00  0.00    +0.030 A 
ATOM      8  C   UNL     1       2.498  10.530  -0.238  0.00  0.00    +0.069 A 
ATOM      9  N   UNL     1       2.574  11.907  -0.334  0.00  0.00    -0.331 N 
ATOM     10  C   UNL     1       1.444  12.840  -0.349  0.00  0.00    +0.150 C 
ENDROOT
BRANCH   5  11
ATOM     11  N   UNL     1       3.270   6.433   0.006  0.00  0.00    -0.283 N 
ATOM     12  C   UNL     1       2.459   5.644   0.738  0.00  0.00    +0.255 C 
ATOM     13  O   UNL     1       1.571   6.135   1.401  0.00  0.00    -0.272 OA
ATOM     14  H   UNL     1       4.027   6.049  -0.463  0.00  0.00    +0.155 HD
BRANCH  12  15
ATOM     15  C   UNL     1       2.656   4.149   0.732  0.00  0.00    +0.324 C 
BRANCH  15  16
ATOM     16  O   UNL     1       1.681   3.537   1.577  0.00  0.00    -0.483 OA
BRANCH  16  17
ATOM     17  C   UNL     1       1.720   2.183   1.683  0.00  0.00    +0.121 A 
ATOM     18  C   UNL     1       0.802   1.522   2.487  0.00  0.00    +0.048 A 
ATOM     19  C   UNL     1       0.845   0.145   2.594  0.00  0.00    +0.036 A 
ATOM     20  C   UNL     1       1.800  -0.574   1.901  0.00  0.00    +0.126 A 
ATOM     21  C   UNL     1       2.716   0.082   1.099  0.00  0.00    +0.036 A 
ATOM     22  C   UNL     1       2.678   1.458   0.989  0.00  0.00    +0.048 A 
BRANCH  20  23
ATOM     23  N   UNL     1       1.843  -2.049   2.017  0.00  0.00    +0.056 N 
ATOM     24  O   UNL     1       1.037  -2.628   2.723  0.00  0.00    -0.126 OA
ATOM     25  O   UNL     1       2.684  -2.684   1.407  0.00  0.00    -0.126 OA
ENDBRANCH  20  23
ENDBRANCH  16  17
ENDBRANCH  15  16
ENDBRANCH  12  15
ENDBRANCH   5  11
BRANCH   1  26
ATOM     26  C   UNL     1       4.426  13.638  -0.529  0.00  0.00    +0.056 C 
BRANCH  26  27
ATOM     27  C   UNL     1       4.546  14.017  -2.007  0.00  0.00    -0.071 C 
BRANCH  27  33
ATOM     28  N   UNL     1       5.070  18.078  -3.047  0.00  0.00    -0.333 N 
ATOM     29  C   UNL     1       6.032  17.101  -3.577  0.00  0.00    +0.086 C 
ATOM     30  C   UNL     1       5.420  15.700  -3.513  0.00  0.00    -0.060 C 
ATOM     31  C   UNL     1       4.106  16.361  -1.591  0.00  0.00    -0.060 C 
ATOM     32  C   UNL     1       4.717  17.763  -1.655  0.00  0.00    +0.086 C 
ATOM     33  N   UNL     1       5.091  15.387  -2.106  0.00  0.00    +0.382 N 
ATOM     34  H   UNL     1       5.947  15.448  -1.542  0.00  0.00    -0.082 HD
BRANCH  28  39
ATOM     35  C   UNL     1       7.083  23.360  -3.488  0.00  0.00    +0.044 C 
ATOM     36  C   UNL     1       6.548  21.956  -3.370  0.00  0.00    -0.050 A 
ATOM     37  C   UNL     1       5.299  21.738  -2.818  0.00  0.00    +0.005 A 
ATOM     38  C   UNL     1       4.806  20.453  -2.709  0.00  0.00    +0.023 A 
ATOM     39  C   UNL     1       5.565  19.379  -3.156  0.00  0.00    +0.030 A 
ATOM     40  C   UNL     1       6.822  19.601  -3.705  0.00  0.00    +0.023 A 
ATOM     41  C   UNL     1       7.307  20.890  -3.816  0.00  0.00    +0.005 A 
ENDBRANCH  28  39
ENDBRANCH  27  33
ENDBRANCH  26  27
ENDBRANCH   1  26
TORSDOF 9
