REMARK  Name = ZINC10433656
REMARK  5 active torsions:
REMARK  status: ('A' for Active; 'I' for Inactive)
REMARK    1  A    between atoms: C_8  and  C_23
REMARK    2  A    between atoms: N_10  and  N_11
REMARK    3  A    between atoms: N_11  and  S_12
REMARK    4  A    between atoms: S_12  and  C_15
REMARK    5  A    between atoms: N_25  and  C_26
REMARK                            x       y       z     vdW  Elec       q    Type
REMARK                         _______ _______ _______ _____ _____    ______ ____
ROOT
ATOM      1  C   UNL     1       7.550  -0.295  -6.145  0.00  0.00    +0.001 A 
ATOM      2  C   UNL     1       6.764  -1.395  -5.841  0.00  0.00    +0.004 A 
ATOM      3  C   UNL     1       5.484  -1.229  -5.347  0.00  0.00    +0.047 A 
ATOM      4  C   UNL     1       4.977   0.045  -5.151  0.00  0.00    +0.138 A 
ATOM      5  C   UNL     1       5.773   1.164  -5.455  0.00  0.00    +0.018 A 
ATOM      6  C   UNL     1       7.066   0.982  -5.955  0.00  0.00    +0.011 A 
ATOM      7  C   UNL     1       5.236   2.513  -5.239  0.00  0.00    +0.030 A 
ATOM      8  C   UNL     1       4.079   2.629  -4.502  0.00  0.00    +0.101 A 
ATOM      9  C   UNL     1       3.482   1.377  -3.983  0.00  0.00    +0.249 A 
ATOM     10  N   UNL     1       2.747   1.379  -2.907  0.00  0.00    -0.127 NA
ATOM     11  O   UNL     1       3.720   0.223  -4.670  0.00  0.00    -0.436 OA
ENDROOT
BRANCH   8  12
ATOM     12  C   UNL     1       3.464   3.940  -4.237  0.00  0.00    +0.253 C 
ATOM     13  O   UNL     1       3.891   4.936  -4.791  0.00  0.00    -0.270 OA
ATOM     14  N   UNL     1       2.427   4.037  -3.381  0.00  0.00    -0.281 N 
ATOM     15  H   UNL     1       2.134   3.258  -2.884  0.00  0.00    +0.155 HD
BRANCH  14  16
ATOM     16  C   UNL     1       1.774   5.264  -3.209  0.00  0.00    +0.037 A 
ATOM     17  C   UNL     1       1.657   6.144  -4.277  0.00  0.00    +0.027 A 
ATOM     18  C   UNL     1       1.013   7.355  -4.108  0.00  0.00    +0.051 A 
ATOM     19  C   UNL     1       0.482   7.694  -2.874  0.00  0.00    +0.166 A 
ATOM     20  C   UNL     1       0.598   6.813  -1.801  0.00  0.00    +0.168 A 
ATOM     21  C   UNL     1       1.239   5.598  -1.972  0.00  0.00    +0.072 A 
ATOM     22  O   UNL     1      -0.000   7.374  -0.710  0.00  0.00    -0.453 OA
ATOM     23  C   UNL     1      -0.123   8.775  -1.015  0.00  0.00    +0.466 C 
ATOM     24  O   UNL     1      -0.189   8.807  -2.453  0.00  0.00    -0.453 OA
ENDBRANCH  14  16
ENDBRANCH   8  12
BRANCH  10  25
ATOM     25  N   UNL     1       2.271   0.171  -2.381  0.00  0.00    -0.133 N 
ATOM     26  H   UNL     1       2.542  -0.671  -2.779  0.00  0.00    +0.197 HD
BRANCH  25  27
ATOM     27  S   UNL     1       1.245   0.180  -1.081  0.00  0.00    +0.087 S 
ATOM     28  O   UNL     1       1.877   0.953  -0.070  0.00  0.00    -0.149 OA
ATOM     29  O   UNL     1       0.844  -1.167  -0.871  0.00  0.00    -0.149 OA
BRANCH  27  30
ATOM     30  C   UNL     1      -0.199   1.066  -1.564  0.00  0.00    +0.110 A 
ATOM     31  C   UNL     1      -1.208   0.420  -2.253  0.00  0.00    +0.030 A 
ATOM     32  C   UNL     1      -2.339   1.116  -2.637  0.00  0.00    +0.022 A 
ATOM     33  C   UNL     1      -2.465   2.458  -2.321  0.00  0.00    +0.041 A 
ATOM     34  C   UNL     1      -1.455   3.104  -1.632  0.00  0.00    +0.022 A 
ATOM     35  C   UNL     1      -0.323   2.408  -1.253  0.00  0.00    +0.030 A 
ATOM     36 CL   UNL     1      -3.889   3.331  -2.797  0.00  0.00    -0.084 Cl
ENDBRANCH  27  30
ENDBRANCH  25  27
ENDBRANCH  10  25
TORSDOF 5
