REMARK  Name = ZINC41585558
REMARK  6 active torsions:
REMARK  status: ('A' for Active; 'I' for Inactive)
REMARK    1  A    between atoms: C_1  and  C_2
REMARK    2  A    between atoms: C_4  and  O_34
REMARK    3  A    between atoms: C_5  and  C_20
REMARK    4  A    between atoms: C_11  and  C_12
REMARK    5  A    between atoms: C_20  and  N_21
REMARK    6  A    between atoms: N_24  and  C_27
REMARK                            x       y       z     vdW  Elec       q    Type
REMARK                         _______ _______ _______ _____ _____    ______ ____
ROOT
ATOM      1  C   UNL     1      -0.479   1.832   0.208  0.00  0.00    +0.045 C 
ATOM      2  C   UNL     1      -0.345   0.337   0.075  0.00  0.00    -0.033 A 
ATOM      3  C   UNL     1      -0.352  -0.243  -1.161  0.00  0.00    +0.050 A 
ATOM      4  C   UNL     1      -0.229  -1.624  -1.287  0.00  0.00    +0.122 A 
ATOM      5  C   UNL     1      -0.098  -2.425  -0.163  0.00  0.00    +0.020 A 
ATOM      6  C   UNL     1      -0.089  -1.851   1.102  0.00  0.00    +0.145 A 
ATOM      7  C   UNL     1      -0.208  -0.456   1.215  0.00  0.00    +0.071 A 
ATOM      8  C   UNL     1      -0.158  -0.150   2.656  0.00  0.00    +0.232 C 
ATOM      9  O   UNL     1      -0.233   0.943   3.190  0.00  0.00    -0.283 OA
ATOM     10  C   UNL     1       0.001  -1.461   3.306  0.00  0.00    +0.176 C 
ATOM     11  C   UNL     1       0.095  -1.689   4.640  0.00  0.00    +0.058 C 
ATOM     12  O   UNL     1       0.023  -2.400   2.331  0.00  0.00    -0.451 OA
ENDROOT
BRANCH  11  13
ATOM     13  C   UNL     1       0.140  -3.067   5.149  0.00  0.00    -0.021 A 
ATOM     14  C   UNL     1       0.102  -3.309   6.527  0.00  0.00    +0.009 A 
ATOM     15  C   UNL     1       0.145  -4.604   6.997  0.00  0.00    +0.016 A 
ATOM     16  C   UNL     1       0.226  -5.664   6.109  0.00  0.00    +0.018 A 
ATOM     17  C   UNL     1       0.264  -5.432   4.743  0.00  0.00    +0.016 A 
ATOM     18  C   UNL     1       0.216  -4.144   4.258  0.00  0.00    +0.009 A 
ATOM     19 BR   UNL     1       0.285  -7.437   6.764  0.00  0.00    -0.050 Br
ENDBRANCH  11  13
BRANCH   4  20
ATOM     20  O   UNL     1      -0.237  -2.191  -2.520  0.00  0.00    -0.506 OA
ATOM     21  H   UNL     1       0.639  -2.273  -2.921  0.00  0.00    +0.292 HD
ENDBRANCH   4  20
BRANCH   5  22
ATOM     22  C   UNL     1       0.033  -3.919  -0.314  0.00  0.00    -0.035 C 
BRANCH  22  23
ATOM     23  N   UNL     1       1.453  -4.276  -0.431  0.00  0.00    +0.385 N 
ATOM     24  C   UNL     1       2.000  -3.701  -1.667  0.00  0.00    -0.059 C 
ATOM     25  C   UNL     1       3.506  -3.975  -1.734  0.00  0.00    +0.086 C 
ATOM     26  N   UNL     1       3.723  -5.423  -1.590  0.00  0.00    -0.333 N 
ATOM     27  C   UNL     1       3.074  -6.113  -0.465  0.00  0.00    +0.086 C 
ATOM     28  C   UNL     1       1.588  -5.738  -0.458  0.00  0.00    -0.059 C 
ATOM     29  H   UNL     1       1.958  -3.907   0.360  0.00  0.00    -0.081 HD
BRANCH  26  30
ATOM     30  C   UNL     1       4.525  -6.124  -2.497  0.00  0.00    +0.030 A 
ATOM     31  C   UNL     1       5.230  -5.437  -3.476  0.00  0.00    +0.026 A 
ATOM     32  C   UNL     1       6.022  -6.131  -4.370  0.00  0.00    +0.040 A 
ATOM     33  C   UNL     1       6.113  -7.510  -4.290  0.00  0.00    +0.124 A 
ATOM     34  C   UNL     1       5.411  -8.197  -3.314  0.00  0.00    +0.040 A 
ATOM     35  C   UNL     1       4.622  -7.507  -2.415  0.00  0.00    +0.026 A 
ATOM     36  F   UNL     1       6.887  -8.187  -5.166  0.00  0.00    -0.205 F 
ENDBRANCH  26  30
ENDBRANCH  22  23
ENDBRANCH   5  22
TORSDOF 5
