REMARK  Name = ZINC15351528
REMARK  10 active torsions:
REMARK  status: ('A' for Active; 'I' for Inactive)
REMARK    1  A    between atoms: C_1  and  N_62
REMARK    2  A    between atoms: C_2  and  C_3
REMARK    3  A    between atoms: C_2  and  N_62
REMARK    4  A    between atoms: N_5  and  C_6
REMARK    5  A    between atoms: C_13  and  C_14
REMARK    6  A    between atoms: C_13  and  N_62
REMARK    7  A    between atoms: C_17  and  C_28
REMARK    8  A    between atoms: C_20  and  C_22
REMARK    9  A    between atoms: C_31  and  O_34
REMARK   10  A    between atoms: O_34  and  C_35
REMARK                            x       y       z     vdW  Elec       q    Type
REMARK                         _______ _______ _______ _____ _____    ______ ____
ROOT
ATOM      1  C   UNL     1       8.271   2.779   0.934  0.00  0.00    +0.219 C 
ATOM      2  O   UNL     1       8.028   1.591   0.880  0.00  0.00    -0.276 OA
ATOM      3  N   UNL     1       9.505   3.199   1.276  0.00  0.00    -0.187 N 
ATOM      4  C   UNL     1      10.643   2.329   1.613  0.00  0.00    +0.137 C 
ATOM      5  C   UNL     1      11.781   3.324   1.916  0.00  0.00    +0.087 C 
ATOM      6  C   UNL     1      11.141   4.680   1.719  0.00  0.00    +0.069 C 
ATOM      7  N   UNL     1       9.910   4.529   1.373  0.00  0.00    -0.181 NA
ENDROOT
BRANCH   6   8
ATOM      8  C   UNL     1      11.823   5.976   1.895  0.00  0.00    -0.002 A 
ATOM      9  C   UNL     1      13.165   6.016   2.279  0.00  0.00    +0.010 A 
ATOM     10  C   UNL     1      13.798   7.232   2.436  0.00  0.00    +0.001 A 
ATOM     11  C   UNL     1      13.102   8.409   2.226  0.00  0.00    +0.000 A 
ATOM     12  C   UNL     1      11.771   8.377   1.852  0.00  0.00    +0.001 A 
ATOM     13  C   UNL     1      11.127   7.169   1.685  0.00  0.00    +0.010 A 
ENDBRANCH   6   8
BRANCH   4  14
ATOM     14  C   UNL     1      11.005   1.452   0.442  0.00  0.00    -0.024 A 
ATOM     15  C   UNL     1      10.949   1.959  -0.843  0.00  0.00    +0.009 A 
ATOM     16  C   UNL     1      11.287   1.159  -1.918  0.00  0.00    +0.046 A 
ATOM     17  C   UNL     1      11.671  -0.157  -1.707  0.00  0.00    +0.120 A 
ATOM     18  C   UNL     1      11.721  -0.665  -0.417  0.00  0.00    +0.046 A 
ATOM     19  C   UNL     1      11.388   0.141   0.654  0.00  0.00    +0.009 A 
BRANCH  17  20
ATOM     20  O   UNL     1      11.998  -0.948  -2.763  0.00  0.00    -0.495 OA
ATOM     21  C   UNL     1      11.924  -0.358  -4.062  0.00  0.00    +0.277 C 
ENDBRANCH  17  20
ENDBRANCH   4  14
BRANCH   1  22
ATOM     22  C   UNL     1       7.193   3.783   0.618  0.00  0.00    +0.021 C 
BRANCH  22  24
ATOM     23  C   UNL     1       6.101   2.321  -0.974  0.00  0.00    -0.095 C 
ATOM     24  N   UNL     1       5.945   3.059   0.298  0.00  0.00    +0.389 N 
ATOM     25  H   UNL     1       5.746   2.389   1.050  0.00  0.00    -0.081 HD
BRANCH  24  26
ATOM     26  C   UNL     1       4.820   4.012   0.194  0.00  0.00    +0.019 C 
BRANCH  26  27
ATOM     27  C   UNL     1       3.533   3.235   0.088  0.00  0.00    +0.201 C 
ATOM     28  O   UNL     1       3.555   2.023   0.082  0.00  0.00    -0.278 OA
ATOM     29  N   UNL     1       2.357   3.888   0.000  0.00  0.00    -0.286 N 
ATOM     30  H   UNL     1       2.344   4.855  -0.075  0.00  0.00    +0.155 HD
BRANCH  29  31
ATOM     31  C   UNL     1       1.155   3.171   0.019  0.00  0.00    +0.052 A 
ATOM     32  C   UNL     1       1.100   1.921   0.621  0.00  0.00    +0.025 A 
ATOM     33  C   UNL     1      -0.088   1.216   0.638  0.00  0.00    +0.002 A 
ATOM     34  C   UNL     1      -1.220   1.750   0.051  0.00  0.00    +0.002 A 
ATOM     35  C   UNL     1      -1.171   2.997  -0.545  0.00  0.00    +0.022 A 
ATOM     36  C   UNL     1       0.015   3.708  -0.565  0.00  0.00    +0.062 A 
ATOM     37 CL   UNL     1       0.078   5.270  -1.320  0.00  0.00    -0.082 Cl
ENDBRANCH  29  31
ENDBRANCH  26  27
ENDBRANCH  24  26
ENDBRANCH  22  24
ENDBRANCH   1  22
TORSDOF 8
