REMARK  Name = ZINC39550220
REMARK  6 active torsions:
REMARK  status: ('A' for Active; 'I' for Inactive)
REMARK    1  A    between atoms: C_2  and  C_3
REMARK    2  A    between atoms: C_3  and  N_4
REMARK    3  A    between atoms: C_11  and  O_33
REMARK    4  A    between atoms: C_13  and  C_17
REMARK    5  A    between atoms: N_19  and  C_20
REMARK    6  A    between atoms: C_22  and  O_32
REMARK                            x       y       z     vdW  Elec       q    Type
REMARK                         _______ _______ _______ _____ _____    ______ ____
ROOT
ATOM      1  C   UNL     1       2.342  -4.563   2.124  0.00  0.00    +0.229 C 
ATOM      2  O   UNL     1       3.038  -4.456   3.111  0.00  0.00    -0.275 OA
ATOM      3  N   UNL     1       2.786  -5.257   1.057  0.00  0.00    -0.297 N 
ATOM      4  H   UNL     1       2.229  -5.342   0.268  0.00  0.00    +0.150 HD
ENDROOT
BRANCH   3   5
ATOM      5  C   UNL     1       4.111  -5.881   1.090  0.00  0.00    +0.226 C 
ATOM      6  C   UNL     1       4.634  -5.939  -0.333  0.00  0.00    +0.132 C 
ATOM      7  C   UNL     1       4.961  -7.199  -0.838  0.00  0.00    +0.036 A 
ATOM      8  C   UNL     1       5.455  -7.343  -2.151  0.00  0.00    +0.013 A 
ATOM      9  C   UNL     1       5.766  -8.583  -2.619  0.00  0.00    +0.001 A 
ATOM     10  C   UNL     1       5.608  -9.715  -1.826  0.00  0.00    +0.002 A 
ATOM     11  C   UNL     1       5.135  -9.639  -0.550  0.00  0.00    +0.024 A 
ATOM     12  C   UNL     1       4.793  -8.391  -0.002  0.00  0.00    +0.044 A 
ATOM     13  N   UNL     1       4.330  -8.319   1.252  0.00  0.00    -0.283 N 
ATOM     14  C   UNL     1       3.988  -7.190   1.837  0.00  0.00    +0.245 C 
ATOM     15  O   UNL     1       3.574  -7.200   2.982  0.00  0.00    -0.273 OA
ATOM     16  H   UNL     1       4.241  -9.143   1.757  0.00  0.00    +0.155 HD
BRANCH   6  17
ATOM     17  O   UNL     1       4.775  -4.833  -1.070  0.00  0.00    -0.508 OA
ATOM     18  H   UNL     1       5.117  -4.995  -1.960  0.00  0.00    +0.292 HD
ENDBRANCH   6  17
ENDBRANCH   3   5
BRANCH   1  27
ATOM     19  N   UNL     1       1.367  -1.676   1.111  0.00  0.00    -0.267 N 
ATOM     20  C   UNL     1       1.878  -1.254   2.343  0.00  0.00    +0.042 A 
ATOM     21  C   UNL     1       2.675  -0.119   2.417  0.00  0.00    +0.024 A 
ATOM     22  C   UNL     1       3.176   0.292   3.636  0.00  0.00    +0.002 A 
ATOM     23  C   UNL     1       2.886  -0.425   4.782  0.00  0.00    +0.000 A 
ATOM     24  C   UNL     1       2.092  -1.555   4.712  0.00  0.00    +0.008 A 
ATOM     25  C   UNL     1       1.588  -1.971   3.496  0.00  0.00    +0.003 A 
ATOM     26  C   UNL     1       0.723  -3.202   3.415  0.00  0.00    +0.167 C 
ATOM     27  C   UNL     1       0.979  -3.920   2.090  0.00  0.00    +0.194 C 
ATOM     28  C   UNL     1       0.917  -2.934   0.955  0.00  0.00    +0.235 C 
ATOM     29  O   UNL     1       0.459  -3.278  -0.114  0.00  0.00    -0.274 OA
BRANCH  26  30
ATOM     30  O   UNL     1      -0.652  -2.824   3.494  0.00  0.00    -0.386 OA
ATOM     31  H   UNL     1      -0.888  -2.363   4.311  0.00  0.00    +0.210 HD
ENDBRANCH  26  30
BRANCH  19  32
ATOM     32  C   UNL     1       1.317  -0.740  -0.015  0.00  0.00    +0.140 C 
BRANCH  32  34
ATOM     33  C   UNL     1      -0.016   1.306   0.009  0.00  0.00    +0.005 C 
ATOM     34  C   UNL     1       0.002  -0.004   0.002  0.00  0.00    -0.015 C 
ENDBRANCH  32  34
ENDBRANCH  19  32
ENDBRANCH   1  27
TORSDOF 6
