REMARK  Name = ZINC66448280
REMARK  5 active torsions:
REMARK  status: ('A' for Active; 'I' for Inactive)
REMARK    1  A    between atoms: C_1  and  C_2
REMARK    2  A    between atoms: C_12  and  C_16
REMARK    3  A    between atoms: N_18  and  C_19
REMARK    4  A    between atoms: N_24  and  C_26
REMARK    5  A    between atoms: C_26  and  C_27
REMARK                            x       y       z     vdW  Elec       q    Type
REMARK                         _______ _______ _______ _____ _____    ______ ____
ROOT
ATOM      1  C   UNL     1       0.554  -6.708   2.262  0.00  0.00    +0.246 C 
ATOM      2  O   UNL     1      -0.390  -6.811   1.503  0.00  0.00    -0.270 OA
ATOM      3  N   UNL     1       1.048  -7.802   2.875  0.00  0.00    -0.310 N 
ATOM      4  H   UNL     1       1.801  -7.720   3.481  0.00  0.00    +0.149 HD
ENDROOT
BRANCH   1  15
ATOM      5  C   UNL     1      -0.019   1.526   0.010  0.00  0.00    +0.008 C 
ATOM      6  C   UNL     1       0.002  -0.004   0.002  0.00  0.00    -0.009 C 
ATOM      7  C   UNL     1      -1.434  -0.535   0.014  0.00  0.00    +0.009 C 
ATOM      8  C   UNL     1      -1.422  -2.045  -0.245  0.00  0.00    +0.054 C 
ATOM      9  C   UNL     1      -0.427  -2.687   0.694  0.00  0.00    +0.020 A 
ATOM     10  C   UNL     1       0.531  -2.001   1.354  0.00  0.00    -0.019 A 
ATOM     11  C   UNL     1       1.271  -2.963   2.145  0.00  0.00    +0.004 A 
ATOM     12  C   UNL     1       2.357  -2.838   3.017  0.00  0.00    +0.010 A 
ATOM     13  C   UNL     1       2.821  -3.997   3.618  0.00  0.00    +0.001 A 
ATOM     14  C   UNL     1       2.247  -5.229   3.379  0.00  0.00    +0.015 A 
ATOM     15  C   UNL     1       1.159  -5.386   2.511  0.00  0.00    +0.061 A 
ATOM     16  C   UNL     1       0.672  -4.222   1.889  0.00  0.00    +0.059 A 
ATOM     17  N   UNL     1      -0.346  -4.018   1.011  0.00  0.00    -0.357 N 
ATOM     18  H   UNL     1      -0.927  -4.711   0.661  0.00  0.00    +0.166 HD
ATOM     19  C   UNL     1       0.742  -0.513   1.245  0.00  0.00    +0.040 C 
ENDBRANCH   1  15
BRANCH   3  20
ATOM     20  C   UNL     1       0.446  -9.115   2.627  0.00  0.00    +0.057 C 
ATOM     21  C   UNL     1      -0.750  -9.314   3.562  0.00  0.00    +0.018 C 
ATOM     22  C   UNL     1      -1.323 -10.718   3.350  0.00  0.00    -0.017 C 
ATOM     23  C   UNL     1      -0.222 -11.753   3.589  0.00  0.00    -0.078 C 
ATOM     24  N   UNL     1       0.881 -11.526   2.648  0.00  0.00    +0.387 N 
ATOM     25  C   UNL     1       1.482 -10.209   2.892  0.00  0.00    -0.056 C 
ATOM     26  H   UNL     1       0.529 -11.563   1.703  0.00  0.00    -0.081 HD
BRANCH  24  27
ATOM     27  C   UNL     1       1.900 -12.569   2.829  0.00  0.00    +0.018 C 
BRANCH  27  28
ATOM     28  C   UNL     1       1.321 -13.908   2.450  0.00  0.00    +0.194 C 
ATOM     29  O   UNL     1       0.173 -13.986   2.067  0.00  0.00    -0.278 OA
ATOM     30  N   UNL     1       2.080 -15.018   2.537  0.00  0.00    -0.331 N 
ATOM     31  H   UNL     1       2.998 -14.956   2.843  0.00  0.00    +0.145 HD
ATOM     32  H   UNL     1       1.707 -15.880   2.293  0.00  0.00    +0.145 HD
ENDBRANCH  27  28
ENDBRANCH  24  27
ENDBRANCH   3  20
TORSDOF 4
