REMARK  Name = ZINC09272828
REMARK  17 active torsions:
REMARK  status: ('A' for Active; 'I' for Inactive)
REMARK    1  A    between atoms: C_1  and  C_2
REMARK    2  A    between atoms: C_2  and  N_66
REMARK    3  A    between atoms: C_3  and  C_4
REMARK    4  A    between atoms: C_3  and  N_66
REMARK    5  A    between atoms: C_5  and  C_6
REMARK    6  A    between atoms: C_5  and  N_66
REMARK    7  A    between atoms: C_6  and  N_7
REMARK    8  A    between atoms: C_8  and  C_26
REMARK    9  A    between atoms: C_10  and  C_15
REMARK   10  A    between atoms: C_11  and  O_14
REMARK   11  A    between atoms: C_15  and  C_17
REMARK   12  A    between atoms: C_20  and  O_24
REMARK   13  A    between atoms: C_21  and  C_23
REMARK   14  A    between atoms: O_24  and  C_25
REMARK   15  A    between atoms: C_29  and  O_34
REMARK   16  A    between atoms: C_30  and  O_32
REMARK   17  A    between atoms: O_32  and  C_33
REMARK                            x       y       z     vdW  Elec       q    Type
REMARK                         _______ _______ _______ _____ _____    ______ ____
ROOT
ATOM      1  N   UNL     1      -0.042   2.060   3.256  0.00  0.00    -0.285 N 
ATOM      2  C   UNL     1       1.135   2.717   3.837  0.00  0.00    +0.144 C 
ATOM      3  C   UNL     1       1.553   1.868   5.015  0.00  0.00    +0.071 C 
ATOM      4  C   UNL     1       0.683   0.833   5.078  0.00  0.00    +0.188 C 
ATOM      5  C   UNL     1      -0.306   0.962   3.987  0.00  0.00    +0.282 C 
ATOM      6  O   UNL     1      -1.221   0.190   3.780  0.00  0.00    -0.267 OA
ENDROOT
BRANCH   2   7
ATOM      7  C   UNL     1       2.248   2.779   2.823  0.00  0.00    -0.019 A 
ATOM      8  C   UNL     1       2.585   1.650   2.099  0.00  0.00    +0.009 A 
ATOM      9  C   UNL     1       3.605   1.702   1.167  0.00  0.00    +0.049 A 
ATOM     10  C   UNL     1       4.291   2.887   0.956  0.00  0.00    +0.158 A 
ATOM     11  C   UNL     1       3.952   4.023   1.685  0.00  0.00    +0.162 A 
ATOM     12  C   UNL     1       2.925   3.966   2.614  0.00  0.00    +0.055 A 
BRANCH  11  13
ATOM     13  O   UNL     1       4.623   5.188   1.482  0.00  0.00    -0.491 OA
ATOM     14  C   UNL     1       4.292   6.285   2.336  0.00  0.00    +0.277 C 
ENDBRANCH  11  13
BRANCH  10  15
ATOM     15  O   UNL     1       5.294   2.940   0.039  0.00  0.00    -0.503 OA
ATOM     16  H   UNL     1       5.001   3.182  -0.850  0.00  0.00    +0.292 HD
ENDBRANCH  10  15
ENDBRANCH   2   7
BRANCH   4  17
ATOM     17  O   UNL     1       0.710  -0.159   5.998  0.00  0.00    -0.502 OA
ATOM     18  H   UNL     1      -0.040  -0.797   5.823  0.00  0.00    +0.292 HD
ENDBRANCH   4  17
BRANCH   3  19
ATOM     19  C   UNL     1       2.683   2.116   5.916  0.00  0.00    +0.195 C 
ATOM     20  O   UNL     1       3.631   1.353   5.927  0.00  0.00    -0.287 OA
BRANCH  19  21
ATOM     21  C   UNL     1       2.671   3.292   6.808  0.00  0.00    +0.023 A 
ATOM     22  C   UNL     1       1.538   4.110   6.874  0.00  0.00    +0.015 A 
ATOM     23  C   UNL     1       1.529   5.203   7.711  0.00  0.00    +0.046 A 
ATOM     24  C   UNL     1       2.648   5.500   8.483  0.00  0.00    +0.123 A 
ATOM     25  C   UNL     1       3.777   4.692   8.415  0.00  0.00    -0.008 A 
ATOM     26  C   UNL     1       3.793   3.594   7.585  0.00  0.00    +0.018 A 
ATOM     27  C   UNL     1       4.987   5.019   9.253  0.00  0.00    +0.047 C 
BRANCH  24  28
ATOM     28  O   UNL     1       2.636   6.580   9.303  0.00  0.00    -0.495 OA
ATOM     29  C   UNL     1       1.408   7.303   9.408  0.00  0.00    +0.277 C 
ENDBRANCH  24  28
ENDBRANCH  19  21
ENDBRANCH   3  19
BRANCH   1  30
ATOM     30  C   UNL     1      -0.798   2.522   2.090  0.00  0.00    +0.090 C 
BRANCH  30  31
ATOM     31  C   UNL     1      -0.203   1.909   0.820  0.00  0.00    -0.060 C 
BRANCH  31  32
ATOM     32  N   UNL     1      -1.002   2.353  -0.342  0.00  0.00    +0.380 N 
ATOM     33  H   UNL     1      -1.124   3.371  -0.293  0.00  0.00    -0.082 HD
BRANCH  32  35
ATOM     34  C   UNL     1      -1.028   2.678  -2.766  0.00  0.00    -0.017 C 
ATOM     35  C   UNL     1      -0.298   2.014  -1.597  0.00  0.00    -0.082 C 
ENDBRANCH  32  35
BRANCH  32  36
ATOM     36  C   UNL     1      -2.331   1.708  -0.318  0.00  0.00    -0.082 C 
ATOM     37  C   UNL     1      -2.191   0.187  -0.414  0.00  0.00    -0.017 C 
ENDBRANCH  32  36
ENDBRANCH  31  32
ENDBRANCH  30  31
ENDBRANCH   1  30
TORSDOF 12
