REMARK  Name = ZINC04192258
REMARK  9 active torsions:
REMARK  status: ('A' for Active; 'I' for Inactive)
REMARK    1  A    between atoms: C_1  and  C_2
REMARK    2  A    between atoms: C_2  and  C_4
REMARK    3  A    between atoms: C_2  and  N_14
REMARK    4  A    between atoms: N_6  and  C_7
REMARK    5  A    between atoms: C_7  and  C_8
REMARK    6  A    between atoms: N_14  and  C_15
REMARK    7  A    between atoms: C_20  and  C_22
REMARK    8  A    between atoms: C_23  and  N_30
REMARK    9  A    between atoms: C_24  and  C_27
REMARK                            x       y       z     vdW  Elec       q    Type
REMARK                         _______ _______ _______ _____ _____    ______ ____
ROOT
ATOM      1  N   UNL     1      -3.860   2.936   7.162  0.00  0.00    -0.283 N 
ATOM      2  C   UNL     1      -5.118   2.454   7.210  0.00  0.00    +0.257 C 
ATOM      3  O   UNL     1      -6.059   3.220   7.312  0.00  0.00    -0.269 OA
ENDROOT
BRANCH   1   4
ATOM      4  C   UNL     1      -3.606   4.350   7.449  0.00  0.00    +0.077 C 
ATOM      5  C   UNL     1      -4.310   4.757   8.760  0.00  0.00    +0.022 C 
ATOM      6  C   UNL     1      -4.803   6.202   8.492  0.00  0.00    +0.002 C 
ATOM      7  C   UNL     1      -5.248   6.142   7.010  0.00  0.00    +0.002 C 
ATOM      8  C   UNL     1      -4.202   5.230   6.337  0.00  0.00    +0.022 C 
ENDBRANCH   1   4
BRANCH   2   9
ATOM      9  C   UNL     1      -5.353   1.011   7.139  0.00  0.00    +0.115 A 
ATOM     10  C   UNL     1      -6.126   0.198   7.970  0.00  0.00    +0.076 A 
ATOM     11  C   UNL     1      -6.106  -1.140   7.578  0.00  0.00    +0.155 A 
ATOM     12  N   UNL     1      -5.395  -1.492   6.530  0.00  0.00    -0.203 NA
ATOM     13  S   UNL     1      -4.721  -0.180   5.975  0.00  0.00    +0.019 S 
BRANCH  11  14
ATOM     14  C   UNL     1      -6.869  -2.150   8.334  0.00  0.00    +0.262 C 
ATOM     15  O   UNL     1      -7.524  -1.817   9.303  0.00  0.00    -0.269 OA
ATOM     16  N   UNL     1      -6.840  -3.442   7.952  0.00  0.00    -0.324 N 
ATOM     17  H   UNL     1      -6.318  -3.707   7.179  0.00  0.00    +0.145 HD
ATOM     18  H   UNL     1      -7.343  -4.106   8.449  0.00  0.00    +0.145 HD
ENDBRANCH  11  14
BRANCH  10  19
ATOM     19  N   UNL     1      -6.838   0.671   9.065  0.00  0.00    -0.355 N 
ATOM     20  H   UNL     1      -6.815   1.614   9.288  0.00  0.00    +0.142 HD
ATOM     21  H   UNL     1      -7.359   0.057   9.606  0.00  0.00    +0.142 HD
ENDBRANCH  10  19
ENDBRANCH   2   9
BRANCH   1  23
ATOM     22  C   UNL     1      -1.655   2.165   7.886  0.00  0.00    +0.038 C 
ATOM     23  C   UNL     1      -2.748   2.046   6.821  0.00  0.00    +0.159 C 
BRANCH  23  24
ATOM     24  C   UNL     1      -2.186   2.435   5.479  0.00  0.00    +0.233 C 
ATOM     25  O   UNL     1      -2.667   3.364   4.866  0.00  0.00    -0.274 OA
ATOM     26  N   UNL     1      -1.148   1.750   4.958  0.00  0.00    -0.311 N 
ATOM     27  H   UNL     1      -0.763   1.007   5.448  0.00  0.00    +0.149 HD
BRANCH  26  28
ATOM     28  C   UNL     1      -0.601   2.128   3.653  0.00  0.00    +0.135 C 
BRANCH  28  29
ATOM     29  C   UNL     1       0.561   1.199   3.297  0.00  0.00    +0.135 C 
ATOM     30  C   UNL     1       1.153   1.580   1.923  0.00  0.00    +0.035 C 
ATOM     31  C   UNL     1       2.673   1.356   2.094  0.00  0.00    +0.031 C 
ATOM     32  C   UNL     1       2.818   0.866   3.552  0.00  0.00    +0.160 C 
ATOM     33  O   UNL     1       1.651   1.375   4.233  0.00  0.00    -0.375 OA
ENDBRANCH  28  29
ENDBRANCH  26  28
ENDBRANCH  23  24
ENDBRANCH   1  23
TORSDOF 8
