REMARK  Name = ZINC12796960
REMARK  8 active torsions:
REMARK  status: ('A' for Active; 'I' for Inactive)
REMARK    1  A    between atoms: C_1  and  C_2
REMARK    2  A    between atoms: C_2  and  C_4
REMARK    3  A    between atoms: C_2  and  N_12
REMARK    4  A    between atoms: N_12  and  C_13
REMARK    5  A    between atoms: C_13  and  C_15
REMARK    6  A    between atoms: C_13  and  C_16
REMARK    7  A    between atoms: N_18  and  C_19
REMARK    8  A    between atoms: C_20  and  C_24
REMARK                            x       y       z     vdW  Elec       q    Type
REMARK                         _______ _______ _______ _____ _____    ______ ____
ROOT
ATOM      1  C   UNL     1      -0.191  -0.572   2.348  0.00  0.00    +0.138 C 
ATOM      2  C   UNL     1      -0.931  -1.911   2.323  0.00  0.00    +0.034 C 
ENDROOT
BRANCH   1   3
ATOM      3  C   UNL     1       0.610  -0.464   3.620  0.00  0.00    +0.234 C 
ATOM      4  O   UNL     1       1.815  -0.333   3.569  0.00  0.00    -0.274 OA
ATOM      5  N   UNL     1      -0.012  -0.514   4.814  0.00  0.00    -0.278 N 
ATOM      6  H   UNL     1      -0.975  -0.620   4.855  0.00  0.00    +0.155 HD
BRANCH   5   7
ATOM      7  C   UNL     1       0.725  -0.415   5.985  0.00  0.00    +0.084 A 
ATOM      8  C   UNL     1       0.260  -0.452   7.291  0.00  0.00    +0.065 A 
ATOM      9  C   UNL     1       1.252  -0.325   8.334  0.00  0.00    +0.022 A 
ATOM     10  C   UNL     1       2.525  -0.185   7.919  0.00  0.00    +0.048 A 
ATOM     11  S   UNL     1       2.385  -0.231   6.146  0.00  0.00    -0.081 S 
BRANCH   8  12
ATOM     12  C   UNL     1      -1.165  -0.610   7.598  0.00  0.00    +0.244 C 
ATOM     13  O   UNL     1      -1.974  -0.714   6.694  0.00  0.00    -0.270 OA
ATOM     14  N   UNL     1      -1.579  -0.641   8.880  0.00  0.00    -0.325 N 
ATOM     15  H   UNL     1      -0.934  -0.559   9.600  0.00  0.00    +0.145 HD
ATOM     16  H   UNL     1      -2.522  -0.746   9.083  0.00  0.00    +0.145 HD
ENDBRANCH   8  12
ENDBRANCH   5   7
ENDBRANCH   1   3
BRANCH   1  17
ATOM     17  N   UNL     1       0.713  -0.491   1.192  0.00  0.00    -0.299 NA
ATOM     18  H   UNL     1       1.151  -1.381   1.012  0.00  0.00    +0.123 HD
BRANCH  17  20
ATOM     19  C   UNL     1      -0.019   1.526   0.010  0.00  0.00    +0.029 C 
ATOM     20  C   UNL     1       0.002  -0.004   0.002  0.00  0.00    +0.082 C 
BRANCH  20  21
ATOM     21  C   UNL     1       0.707  -0.490  -1.238  0.00  0.00    -0.028 A 
ATOM     22  C   UNL     1       2.089  -0.510  -1.283  0.00  0.00    +0.008 A 
ATOM     23  C   UNL     1       2.738  -0.956  -2.419  0.00  0.00    +0.041 A 
ATOM     24  C   UNL     1       2.005  -1.382  -3.513  0.00  0.00    +0.158 A 
ATOM     25  C   UNL     1       0.620  -1.362  -3.467  0.00  0.00    +0.159 A 
ATOM     26  C   UNL     1      -0.028  -0.920  -2.326  0.00  0.00    +0.046 A 
ATOM     27  F   UNL     1      -0.098  -1.778  -4.534  0.00  0.00    -0.202 F 
ATOM     28  F   UNL     1       2.639  -1.817  -4.624  0.00  0.00    -0.202 F 
ENDBRANCH  20  21
ENDBRANCH  17  20
ENDBRANCH   1  17
TORSDOF 6
