REMARK  Name = ZINC09542407
REMARK  9 active torsions:
REMARK  status: ('A' for Active; 'I' for Inactive)
REMARK    1  A    between atoms: C_1  and  C_2
REMARK    2  A    between atoms: C_2  and  O_3
REMARK    3  A    between atoms: O_3  and  C_4
REMARK    4  A    between atoms: C_8  and  C_11
REMARK    5  A    between atoms: C_9  and  O_10
REMARK    6  A    between atoms: C_14  and  C_26
REMARK    7  A    between atoms: C_16  and  C_18
REMARK    8  A    between atoms: C_21  and  C_25
REMARK    9  A    between atoms: C_23  and  C_24
REMARK                            x       y       z     vdW  Elec       q    Type
REMARK                         _______ _______ _______ _____ _____    ______ ____
ROOT
ATOM      1  C   UNL     1       1.356   1.551  -0.003  0.00  0.00    -0.028 C 
ATOM      2  C   UNL     1       2.092   0.977  -1.218  0.00  0.00    +0.044 C 
ATOM      3  C   UNL     1       1.220   1.101  -2.436  0.00  0.00    +0.040 C 
ATOM      4  N   UNL     1      -0.037   1.338  -2.375  0.00  0.00    -0.299 NA
ATOM      5  C   UNL     1      -0.774   1.527  -1.133  0.00  0.00    +0.081 C 
ATOM      6  N   UNL     1      -0.013   1.002   0.011  0.00  0.00    +0.401 N 
ATOM      7  H   UNL     1      -0.480   1.273   0.884  0.00  0.00    -0.081 HD
ATOM      8  H   UNL     1       0.030  -0.022  -0.050  0.00  0.00    -0.081 HD
ENDROOT
BRANCH   5   9
ATOM      9  C   UNL     1      -2.092   0.801  -1.223  0.00  0.00    -0.038 A 
ATOM     10  C   UNL     1      -2.639   0.220  -0.094  0.00  0.00    +0.004 A 
ATOM     11  C   UNL     1      -3.850  -0.442  -0.175  0.00  0.00    +0.003 A 
ATOM     12  C   UNL     1      -4.509  -0.531  -1.388  0.00  0.00    -0.050 A 
ATOM     13  C   UNL     1      -3.959   0.045  -2.517  0.00  0.00    +0.007 A 
ATOM     14  C   UNL     1      -2.751   0.712  -2.434  0.00  0.00    -0.047 A 
ATOM     15  C   UNL     1      -2.151   1.340  -3.666  0.00  0.00    +0.044 C 
ATOM     16  C   UNL     1      -5.826  -1.258  -1.478  0.00  0.00    +0.044 C 
ENDBRANCH   5   9
BRANCH   3  17
ATOM     17  C   UNL     1       1.842   0.942  -3.765  0.00  0.00    -0.004 A 
ATOM     18  C   UNL     1       3.211   0.688  -3.872  0.00  0.00    +0.011 A 
ATOM     19  C   UNL     1       3.785   0.536  -5.116  0.00  0.00    +0.020 A 
ATOM     20  C   UNL     1       3.010   0.644  -6.259  0.00  0.00    +0.041 A 
ATOM     21  C   UNL     1       1.652   0.901  -6.159  0.00  0.00    +0.020 A 
ATOM     22  C   UNL     1       1.065   1.050  -4.920  0.00  0.00    +0.011 A 
ATOM     23 CL   UNL     1       3.742   0.459  -7.822  0.00  0.00    -0.084 Cl
ENDBRANCH   3  17
BRANCH   1  28
ATOM     24  C   UNL     1       3.783   1.549   2.903  0.00  0.00    +0.162 A 
ATOM     25  C   UNL     1       3.386   0.411   3.586  0.00  0.00    +0.049 A 
ATOM     26  C   UNL     1       2.338  -0.353   3.108  0.00  0.00    +0.004 A 
ATOM     27  C   UNL     1       1.683   0.017   1.948  0.00  0.00    +0.006 A 
ATOM     28  C   UNL     1       2.073   1.151   1.261  0.00  0.00    -0.016 A 
ATOM     29  C   UNL     1       3.127   1.918   1.732  0.00  0.00    +0.160 A 
BRANCH  29  30
ATOM     30  O   UNL     1       3.516   3.031   1.055  0.00  0.00    -0.503 OA
ATOM     31  H   UNL     1       3.063   3.839   1.333  0.00  0.00    +0.292 HD
ENDBRANCH  29  30
BRANCH  24  32
ATOM     32  O   UNL     1       4.814   2.301   3.372  0.00  0.00    -0.489 OA
BRANCH  32  34
ATOM     33  C   UNL     1       6.573   2.824   4.945  0.00  0.00    +0.048 C 
ATOM     34  C   UNL     1       5.444   1.859   4.576  0.00  0.00    +0.226 C 
ENDBRANCH  32  34
ENDBRANCH  24  32
ENDBRANCH   1  28
TORSDOF 6
