REMARK  Name = ZINC63140609
REMARK  8 active torsions:
REMARK  status: ('A' for Active; 'I' for Inactive)
REMARK    1  A    between atoms: C_1  and  C_2
REMARK    2  A    between atoms: C_2  and  O_3
REMARK    3  A    between atoms: O_3  and  C_4
REMARK    4  A    between atoms: C_9  and  C_10
REMARK    5  A    between atoms: N_29  and  C_32
REMARK    6  A    between atoms: C_32  and  C_33
REMARK    7  A    between atoms: C_36  and  O_39
REMARK    8  A    between atoms: O_39  and  C_40
REMARK                            x       y       z     vdW  Elec       q    Type
REMARK                         _______ _______ _______ _____ _____    ______ ____
ROOT
ATOM      1  C   UNL     1      -3.981  -1.497   0.032  0.00  0.00    +0.137 C 
ATOM      2  C   UNL     1      -4.274  -0.996  -1.386  0.00  0.00    +0.131 C 
ATOM      3  C   UNL     1      -5.642  -0.329  -1.341  0.00  0.00    -0.034 C 
ATOM      4  C   UNL     1      -5.473   0.905  -1.801  0.00  0.00    -0.001 A 
ATOM      5  C   UNL     1      -6.429   1.994  -2.061  0.00  0.00    +0.010 A 
ATOM      6  C   UNL     1      -5.902   3.155  -2.530  0.00  0.00    +0.001 A 
ATOM      7  C   UNL     1      -4.535   3.341  -2.763  0.00  0.00    +0.002 A 
ATOM      8  C   UNL     1      -3.586   2.394  -2.557  0.00  0.00    +0.026 A 
ATOM      9  C   UNL     1      -4.019   1.127  -2.069  0.00  0.00    +0.043 A 
ATOM     10  N   UNL     1      -3.325   0.035  -1.809  0.00  0.00    -0.375 N 
ATOM     11  C   UNL     1      -6.861  -1.020  -0.779  0.00  0.00    +0.065 C 
ATOM     12  C   UNL     1      -6.453  -1.578   0.597  0.00  0.00    +0.167 C 
ATOM     13  N   UNL     1      -5.165  -2.255   0.496  0.00  0.00    -0.279 N 
ATOM     14  C   UNL     1      -5.000  -3.547   0.804  0.00  0.00    +0.234 C 
ATOM     15  O   UNL     1      -3.893  -4.022   0.666  0.00  0.00    -0.274 OA
ATOM     16  C   UNL     1      -6.083  -4.444   1.305  0.00  0.00    +0.204 C 
ATOM     17  N   UNL     1      -7.354  -3.752   1.433  0.00  0.00    -0.287 N 
ATOM     18  C   UNL     1      -7.532  -2.471   1.116  0.00  0.00    +0.237 C 
ATOM     19  O   UNL     1      -8.639  -1.998   1.263  0.00  0.00    -0.274 OA
ATOM     20  H   UNL     1      -2.363  -0.073  -1.877  0.00  0.00    +0.160 HD
ENDROOT
BRANCH   1  26
ATOM     21  C   UNL     1      -2.030  -2.583   1.173  0.00  0.00    +0.125 A 
ATOM     22  C   UNL     1      -0.921  -3.417   1.156  0.00  0.00    +0.046 A 
ATOM     23  C   UNL     1      -0.555  -4.054  -0.013  0.00  0.00    +0.004 A 
ATOM     24  C   UNL     1      -1.294  -3.863  -1.167  0.00  0.00    +0.001 A 
ATOM     25  C   UNL     1      -2.399  -3.033  -1.153  0.00  0.00    +0.009 A 
ATOM     26  C   UNL     1      -2.772  -2.397   0.016  0.00  0.00    +0.017 A 
BRANCH  21  27
ATOM     27  O   UNL     1      -2.392  -1.955   2.322  0.00  0.00    -0.492 OA
BRANCH  27  29
ATOM     28  C   UNL     1      -2.141  -1.407   4.662  0.00  0.00    +0.048 C 
ATOM     29  C   UNL     1      -1.582  -2.193   3.475  0.00  0.00    +0.225 C 
ENDBRANCH  27  29
ENDBRANCH  21  27
ENDBRANCH   1  26
BRANCH  17  30
ATOM     30  C   UNL     1      -8.506  -4.507   1.935  0.00  0.00    +0.143 C 
BRANCH  30  31
ATOM     31  C   UNL     1      -8.564  -4.394   3.437  0.00  0.00    -0.030 A 
ATOM     32  C   UNL     1      -7.902  -5.317   4.225  0.00  0.00    +0.009 A 
ATOM     33  C   UNL     1      -7.955  -5.216   5.601  0.00  0.00    +0.046 A 
ATOM     34  C   UNL     1      -8.673  -4.187   6.193  0.00  0.00    +0.120 A 
ATOM     35  C   UNL     1      -9.336  -3.262   5.401  0.00  0.00    +0.046 A 
ATOM     36  C   UNL     1      -9.276  -3.364   4.024  0.00  0.00    +0.009 A 
BRANCH  34  37
ATOM     37  O   UNL     1      -8.726  -4.086   7.547  0.00  0.00    -0.495 OA
ATOM     38  C   UNL     1      -9.485  -3.001   8.087  0.00  0.00    +0.277 C 
ENDBRANCH  34  37
ENDBRANCH  30  31
ENDBRANCH  17  30
TORSDOF 6
