REMARK  Name = ZINC62533234
REMARK  4 active torsions:
REMARK  status: ('A' for Active; 'I' for Inactive)
REMARK    1  A    between atoms: C_1  and  C_2
REMARK    2  A    between atoms: C_10  and  C_15
REMARK    3  A    between atoms: C_15  and  C_16
REMARK    4  A    between atoms: C_16  and  N_17
REMARK                            x       y       z     vdW  Elec       q    Type
REMARK                         _______ _______ _______ _____ _____    ______ ____
ROOT
ATOM      1  C   UNL     1      -0.018   1.503   0.010  0.00  0.00    +0.045 C 
ATOM      2  C   UNL     1       0.002  -0.004   0.002  0.00  0.00    -0.030 A 
ATOM      3  C   UNL     1       0.006  -0.687  -1.200  0.00  0.00    +0.031 A 
ATOM      4  C   UNL     1       0.020  -2.072  -1.208  0.00  0.00    +0.076 A 
ATOM      5  C   UNL     1       0.051  -2.774  -0.004  0.00  0.00    +0.144 A 
ATOM      6  C   UNL     1       0.043  -2.085   1.196  0.00  0.00    +0.067 A 
ATOM      7  C   UNL     1       0.023  -0.700   1.197  0.00  0.00    +0.047 A 
ATOM      8 CL   UNL     1       0.017   0.164   2.703  0.00  0.00    -0.083 Cl
ATOM      9  O   UNL     1       0.108  -4.133  -0.017  0.00  0.00    -0.478 OA
ATOM     10  C   UNL     1      -0.541  -4.799  -1.103  0.00  0.00    +0.257 C 
ATOM     11  C   UNL     1      -0.189  -4.114  -2.400  0.00  0.00    +0.258 C 
ATOM     12  O   UNL     1      -0.093  -4.759  -3.422  0.00  0.00    -0.271 OA
ATOM     13  N   UNL     1       0.017  -2.781  -2.417  0.00  0.00    -0.280 N 
ATOM     14  H   UNL     1       0.162  -2.318  -3.257  0.00  0.00    +0.155 HD
ENDROOT
BRANCH  10  15
ATOM     15  C   UNL     1      -2.056  -4.751  -0.897  0.00  0.00    +0.035 C 
BRANCH  15  16
ATOM     16  C   UNL     1      -2.427  -5.555   0.351  0.00  0.00    -0.082 C 
BRANCH  16  17
ATOM     17  N   UNL     1      -3.881  -5.510   0.549  0.00  0.00    +0.378 N 
ATOM     18  H   UNL     1      -4.175  -4.552   0.667  0.00  0.00    -0.090 HD
ATOM     19  H   UNL     1      -4.343  -5.906  -0.256  0.00  0.00    -0.090 HD
ATOM     20  H   UNL     1      -4.126  -6.040   1.372  0.00  0.00    -0.090 HD
ENDBRANCH  16  17
ENDBRANCH  15  16
ENDBRANCH  10  15
TORSDOF 3
