REMARK  Name = ZINC47856463
REMARK  9 active torsions:
REMARK  status: ('A' for Active; 'I' for Inactive)
REMARK    1  A    between atoms: C_1  and  C_2
REMARK    2  A    between atoms: C_2  and  S_3
REMARK    3  A    between atoms: S_3  and  C_4
REMARK    4  A    between atoms: C_9  and  N_10
REMARK    5  A    between atoms: N_13  and  C_14
REMARK    6  A    between atoms: C_14  and  C_16
REMARK    7  A    between atoms: C_14  and  C_17
REMARK    8  A    between atoms: C_20  and  S_23
REMARK    9  A    between atoms: S_23  and  N_26
REMARK                            x       y       z     vdW  Elec       q    Type
REMARK                         _______ _______ _______ _____ _____    ______ ____
ROOT
ATOM      1  N   UNL     1       1.981  -2.551  -3.455  0.00  0.00    -0.268 N 
ATOM      2  C   UNL     1       2.618  -3.320  -4.361  0.00  0.00    +0.304 C 
ATOM      3  O   UNL     1       2.578  -4.531  -4.267  0.00  0.00    -0.252 OA
ATOM      4  N   UNL     1       3.300  -2.745  -5.372  0.00  0.00    -0.293 N 
ATOM      5  H   UNL     1       1.959  -1.588  -3.567  0.00  0.00    +0.156 HD
ATOM      6  H   UNL     1       3.332  -1.778  -5.448  0.00  0.00    +0.151 HD
ENDROOT
BRANCH   1  12
ATOM      7  C   UNL     1       1.340  -2.492  -1.119  0.00  0.00    +0.029 A 
ATOM      8  C   UNL     1       0.710  -3.082  -0.033  0.00  0.00    +0.016 A 
ATOM      9  C   UNL     1       0.101  -4.315  -0.173  0.00  0.00    +0.001 A 
ATOM     10  C   UNL     1       0.118  -4.964  -1.394  0.00  0.00    +0.002 A 
ATOM     11  C   UNL     1       0.744  -4.383  -2.482  0.00  0.00    +0.024 A 
ATOM     12  C   UNL     1       1.352  -3.144  -2.352  0.00  0.00    +0.048 A 
BRANCH   7  13
ATOM     13  S   UNL     1       2.116  -0.919  -0.944  0.00  0.00    -0.124 S 
BRANCH  13  15
ATOM     14  C   UNL     1       2.475   0.876   1.089  0.00  0.00    +0.015 C 
ATOM     15  C   UNL     1       1.843  -0.487   0.796  0.00  0.00    +0.071 C 
ENDBRANCH  13  15
ENDBRANCH   7  13
ENDBRANCH   1  12
BRANCH   4  16
ATOM     16  C   UNL     1       3.991  -3.580  -6.357  0.00  0.00    +0.102 C 
ATOM     17  C   UNL     1       5.378  -3.950  -5.827  0.00  0.00    +0.033 C 
BRANCH  16  18
ATOM     18  C   UNL     1       4.134  -2.819  -7.650  0.00  0.00    -0.027 A 
ATOM     19  C   UNL     1       4.453  -1.474  -7.628  0.00  0.00    +0.007 A 
ATOM     20  C   UNL     1       4.584  -0.775  -8.814  0.00  0.00    +0.029 A 
ATOM     21  C   UNL     1       4.397  -1.422 -10.021  0.00  0.00    +0.105 A 
ATOM     22  C   UNL     1       4.079  -2.767 -10.043  0.00  0.00    +0.029 A 
ATOM     23  C   UNL     1       3.952  -3.466  -8.857  0.00  0.00    +0.007 A 
BRANCH  21  24
ATOM     24  S   UNL     1       4.563  -0.531 -11.532  0.00  0.00    +0.056 S 
ATOM     25  O   UNL     1       3.803  -1.236 -12.505  0.00  0.00    -0.153 OA
ATOM     26  O   UNL     1       4.327   0.836 -11.226  0.00  0.00    -0.153 OA
BRANCH  24  27
ATOM     27  N   UNL     1       6.148  -0.646 -11.997  0.00  0.00    -0.204 NA
ATOM     28  H   UNL     1       6.779  -1.142 -11.452  0.00  0.00    +0.144 HD
ATOM     29  H   UNL     1       6.446  -0.217 -12.814  0.00  0.00    +0.144 HD
ENDBRANCH  24  27
ENDBRANCH  21  24
ENDBRANCH  16  18
ENDBRANCH   4  16
TORSDOF 7
