REMARK  Name = ZINC36507495
REMARK  13 active torsions:
REMARK  status: ('A' for Active; 'I' for Inactive)
REMARK    1  A    between atoms: C_1  and  C_2
REMARK    2  A    between atoms: C_19  and  C_21
REMARK    3  A    between atoms: C_21  and  N_22
REMARK    4  A    between atoms: N_22  and  C_23
REMARK    5  A    between atoms: N_22  and  C_32
REMARK    6  A    between atoms: C_23  and  C_24
REMARK    7  A    between atoms: C_24  and  C_25
REMARK    8  A    between atoms: C_25  and  N_26
REMARK    9  A    between atoms: C_32  and  C_33
REMARK   10  A    between atoms: C_37  and  O_41
REMARK   11  A    between atoms: C_38  and  O_39
REMARK   12  A    between atoms: O_39  and  C_40
REMARK   13  A    between atoms: O_41  and  C_42
REMARK                            x       y       z     vdW  Elec       q    Type
REMARK                         _______ _______ _______ _____ _____    ______ ____
ROOT
ATOM      1  N   UNL     1      -2.857   1.052   5.539  0.00  0.00    -0.297 NA
ENDROOT
BRANCH   1   2
ATOM      2  C   UNL     1      -1.890   0.658   4.506  0.00  0.00    +0.099 C 
BRANCH   2  18
ATOM      3  C   UNL     1       0.629   0.874   0.448  0.00  0.00    +0.012 C 
ATOM      4  C   UNL     1       0.397  -0.637   0.489  0.00  0.00    -0.022 C 
ATOM      5  C   UNL     1       1.175  -1.288  -0.655  0.00  0.00    +0.007 C 
ATOM      6  C   UNL     1       0.932  -2.799  -0.654  0.00  0.00    +0.005 C 
ATOM      7  C   UNL     1       1.484  -3.401   0.642  0.00  0.00    +0.030 C 
ATOM      8  C   UNL     1       0.860  -2.674   1.812  0.00  0.00    -0.073 C 
ATOM      9  C   UNL     1       0.292  -3.337   2.789  0.00  0.00    +0.008 C 
ATOM     10  C   UNL     1       0.895  -1.176   1.826  0.00  0.00    +0.021 C 
ATOM     11  C   UNL     1       0.052  -0.664   3.004  0.00  0.00    +0.016 C 
ATOM     12  C   UNL     1      -1.387  -1.065   2.737  0.00  0.00    +0.045 C 
ATOM     13  C   UNL     1      -1.831  -0.283   1.466  0.00  0.00    +0.181 C 
ATOM     14  C   UNL     1      -1.101  -0.915   0.281  0.00  0.00    +0.052 C 
ATOM     15  O   UNL     1      -3.244  -0.400   1.528  0.00  0.00    -0.461 OA
ATOM     16  C   UNL     1      -3.593  -0.144   2.820  0.00  0.00    +0.312 C 
ATOM     17  O   UNL     1      -4.649   0.316   3.187  0.00  0.00    -0.250 OA
ATOM     18  C   UNL     1      -2.426  -0.553   3.740  0.00  0.00    +0.118 C 
ENDBRANCH   2  18
ENDBRANCH   1   2
BRANCH   1  19
ATOM     19  C   UNL     1      -2.493   2.344   6.135  0.00  0.00    +0.086 C 
BRANCH  19  20
ATOM     20  C   UNL     1      -2.853   3.472   5.165  0.00  0.00    +0.031 C 
BRANCH  20  21
ATOM     21  C   UNL     1      -2.435   4.815   5.767  0.00  0.00    +0.086 C 
BRANCH  21  22
ATOM     22  N   UNL     1      -2.780   5.897   4.836  0.00  0.00    -0.298 NA
ATOM     23  C   UNL     1      -1.980   5.809   3.606  0.00  0.00    +0.112 C 
ATOM     24  C   UNL     1      -2.412   6.917   2.642  0.00  0.00    +0.175 C 
ATOM     25  O   UNL     1      -2.274   8.185   3.288  0.00  0.00    -0.377 OA
ATOM     26  C   UNL     1      -3.041   8.306   4.489  0.00  0.00    +0.175 C 
ATOM     27  C   UNL     1      -2.615   7.212   5.472  0.00  0.00    +0.112 C 
ENDBRANCH  21  22
ENDBRANCH  20  21
ENDBRANCH  19  20
ENDBRANCH   1  19
BRANCH   1  28
ATOM     28  C   UNL     1      -2.977   0.012   6.570  0.00  0.00    +0.123 C 
BRANCH  28  29
ATOM     29  C   UNL     1      -4.173   0.304   7.440  0.00  0.00    +0.012 A 
ATOM     30  C   UNL     1      -3.999   0.883   8.684  0.00  0.00    +0.009 A 
ATOM     31  C   UNL     1      -5.093   1.152   9.484  0.00  0.00    +0.004 A 
ATOM     32  C   UNL     1      -6.367   0.842   9.044  0.00  0.00    +0.049 A 
ATOM     33  C   UNL     1      -6.549   0.262   7.800  0.00  0.00    +0.162 A 
ATOM     34  C   UNL     1      -5.447  -0.003   6.991  0.00  0.00    +0.166 A 
BRANCH  34  35
ATOM     35  O   UNL     1      -5.620  -0.568   5.766  0.00  0.00    -0.491 OA
ATOM     36  C   UNL     1      -5.607  -1.995   5.702  0.00  0.00    +0.277 C 
ENDBRANCH  34  35
BRANCH  33  37
ATOM     37  O   UNL     1      -7.801  -0.043   7.366  0.00  0.00    -0.491 OA
ATOM     38  C   UNL     1      -8.885   0.262   8.246  0.00  0.00    +0.277 C 
ENDBRANCH  33  37
ENDBRANCH  28  29
ENDBRANCH   1  28
TORSDOF 10
