REMARK  Name = ZINC64684653
REMARK  10 active torsions:
REMARK  status: ('A' for Active; 'I' for Inactive)
REMARK    1  A    between atoms: C_1  and  C_2
REMARK    2  A    between atoms: C_4  and  C_34
REMARK    3  A    between atoms: C_6  and  N_8
REMARK    4  A    between atoms: C_9  and  S_14
REMARK    5  A    between atoms: S_14  and  C_15
REMARK    6  A    between atoms: C_15  and  C_16
REMARK    7  A    between atoms: N_18  and  CA_19
REMARK    8  A    between atoms: CA_19  and  CB_21
REMARK    9  A    between atoms: CA_19  and  C_31
REMARK   10  A    between atoms: CB_21  and  CG_22
REMARK                            x       y       z     vdW  Elec       q    Type
REMARK                         _______ _______ _______ _____ _____    ______ ____
ROOT
ATOM      1  C   UNK A   0       2.896  -2.401   3.787  0.00  0.00    +0.167 C 
ENDROOT
BRANCH   1   2
ATOM      2  C   UNK A   0       4.214  -1.696   3.978  0.00  0.00    +0.224 C 
ATOM      3  O   UNK A   0       4.236  -0.510   4.233  0.00  0.00    -0.275 OA
ATOM      4  N   TRP A   1       5.369  -2.382   3.866  0.00  0.00    -0.301 N 
ATOM      5  H   TRP A   1       5.351  -3.330   3.662  0.00  0.00    +0.150 HD
BRANCH   4   6
ATOM      6  CA  TRP A   1       6.650  -1.696   4.052  0.00  0.00    +0.190 C 
BRANCH   6   7
ATOM      7  C   TRP A   1       7.071  -1.058   2.753  0.00  0.00    +0.376 C 
ATOM      8  O   TRP A   1       6.367  -1.166   1.764  0.00  0.00    -0.244 OA
ATOM      9  OXT TRP A   1       8.117  -0.434   2.692  0.00  0.00    -0.244 OA
ENDBRANCH   6   7
BRANCH   6  10
ATOM     10  CB  TRP A   1       7.710  -2.708   4.491  0.00  0.00    +0.067 C 
BRANCH  10  11
ATOM     11  CG  TRP A   1       7.351  -3.256   5.848  0.00  0.00    -0.039 C 
ATOM     12  CD2 TRP A   1       6.678  -4.400   6.110  0.00  0.00    -0.001 A 
ATOM     13  CE3 TRP A   1       6.101  -5.435   5.245  0.00  0.00    +0.010 A 
ATOM     14  CZ3 TRP A   1       5.471  -6.489   5.813  0.00  0.00    +0.001 A 
ATOM     15  CH2 TRP A   1       5.355  -6.616   7.204  0.00  0.00    +0.002 A 
ATOM     16  CZ2 TRP A   1       5.859  -5.705   8.064  0.00  0.00    +0.026 A 
ATOM     17  CE2 TRP A   1       6.543  -4.558   7.576  0.00  0.00    +0.043 A 
ATOM     18  NE1 TRP A   1       7.110  -3.551   8.195  0.00  0.00    -0.380 N 
ATOM     19  CD1 TRP A   1       7.675  -2.642   7.191  0.00  0.00    +0.144 C 
ATOM     20  HE1 TRP A   1       7.152  -3.429   9.157  0.00  0.00    +0.160 HD
ENDBRANCH  10  11
ENDBRANCH   6  10
ENDBRANCH   4   6
ENDBRANCH   1   2
BRANCH   1  21
ATOM     21  S   UNK A   0       1.540  -1.216   4.000  0.00  0.00    -0.114 S 
BRANCH  21  23
ATOM     22  N   UNK A   0       0.051  -2.796   2.390  0.00  0.00    -0.254 N 
ATOM     23  C   UNK A   0       0.044  -2.209   3.741  0.00  0.00    +0.203 C 
ATOM     24  N   UNK A   0       0.022  -3.358   4.679  0.00  0.00    -0.320 NA
ATOM     25  N   UNK A   0      -0.510  -4.449   3.843  0.00  0.00    +0.411 N 
ATOM     26  N   UNK A   0       0.070  -4.164   2.526  0.00  0.00    -0.265 NA
ATOM     27  H   UNK A   0       0.951  -3.575   5.008  0.00  0.00    +0.106 HD
ATOM     28  H   UNK A   0      -0.200  -5.346   4.186  0.00  0.00    -0.031 HD
ATOM     29  H   UNK A   0      -0.464  -4.607   1.792  0.00  0.00    +0.125 HD
ATOM     30  H   UNK A   0      -1.517  -4.408   3.802  0.00  0.00    -0.031 HD
BRANCH  22  36
ATOM     31  C   UNK A   0      -0.018   1.503   0.010  0.00  0.00    +0.044 C 
ATOM     32  C   UNK A   0       0.002  -0.004   0.002  0.00  0.00    -0.048 A 
ATOM     33  C   UNK A   0       0.006  -0.688  -1.200  0.00  0.00    +0.006 A 
ATOM     34  C   UNK A   0       0.024  -2.071  -1.212  0.00  0.00    -0.048 A 
ATOM     35  C   UNK A   0       0.039  -2.773  -0.023  0.00  0.00    +0.027 A 
ATOM     36  C   UNK A   0       0.036  -2.089   1.186  0.00  0.00    +0.046 A 
ATOM     37  C   UNK A   0       0.023  -0.700   1.195  0.00  0.00    +0.027 A 
ATOM     38  C   UNK A   0       0.027  -2.812  -2.524  0.00  0.00    +0.044 C 
ENDBRANCH  22  36
ENDBRANCH  21  23
ENDBRANCH   1  21
TORSDOF 8
