REMARK  Name = ZINC61809826
REMARK  8 active torsions:
REMARK  status: ('A' for Active; 'I' for Inactive)
REMARK    1  A    between atoms: C_3  and  N_20
REMARK    2  A    between atoms: C_6  and  C_7
REMARK    3  A    between atoms: C_7  and  C_8
REMARK    4  A    between atoms: C_8  and  C_9
REMARK    5  A    between atoms: N_11  and  C_12
REMARK    6  A    between atoms: N_11  and  C_16
REMARK    7  A    between atoms: C_12  and  C_13
REMARK    8  A    between atoms: C_16  and  C_17
REMARK                            x       y       z     vdW  Elec       q    Type
REMARK                         _______ _______ _______ _____ _____    ______ ____
ROOT
ATOM      1  C   UNL     1      -2.827  -2.581   0.141  0.00  0.00    +0.216 C 
ATOM      2  O   UNL     1      -3.759  -1.808   0.062  0.00  0.00    -0.276 OA
ATOM      3  N   UNL     1      -3.056  -3.905   0.238  0.00  0.00    -0.284 N 
ENDROOT
BRANCH   1   4
ATOM      4  C   UNL     1      -1.413  -2.059   0.130  0.00  0.00    +0.096 C 
BRANCH   4   5
ATOM      5  C   UNL     1      -1.433  -0.534   0.013  0.00  0.00    +0.013 C 
BRANCH   5  11
ATOM      6  C   UNL     1      -0.019   1.526   0.010  0.00  0.00    +0.002 C 
ATOM      7  C   UNL     1       1.417   2.055  -0.000  0.00  0.00    -0.016 C 
ATOM      8  C   UNL     1       2.133   1.562  -1.259  0.00  0.00    -0.075 C 
ATOM      9  C   UNL     1       2.154   0.032  -1.268  0.00  0.00    -0.016 C 
ATOM     10  C   UNL     1       0.718  -0.497  -1.257  0.00  0.00    +0.002 C 
ATOM     11  C   UNL     1       0.002  -0.004   0.002  0.00  0.00    -0.011 C 
BRANCH   8  12
ATOM     12  N   UNL     1       3.511   2.070  -1.270  0.00  0.00    +0.380 N 
ATOM     13  H   UNL     1       3.999   1.736  -0.452  0.00  0.00    -0.090 HD
ATOM     14  H   UNL     1       3.983   1.745  -2.100  0.00  0.00    -0.090 HD
ATOM     15  H   UNL     1       3.497   3.079  -1.264  0.00  0.00    -0.090 HD
ENDBRANCH   8  12
ENDBRANCH   5  11
ENDBRANCH   4   5
ENDBRANCH   1   4
BRANCH   3  16
ATOM     16  C   UNL     1      -1.930  -4.838   0.333  0.00  0.00    +0.203 C 
BRANCH  16  17
ATOM     17  C   UNL     1      -1.574  -5.049   1.781  0.00  0.00    +0.228 C 
ATOM     18  O   UNL     1      -2.198  -4.477   2.649  0.00  0.00    -0.274 OA
ATOM     19  N   UNL     1      -0.561  -5.874   2.113  0.00  0.00    -0.328 N 
ATOM     20  H   UNL     1      -0.061  -6.332   1.419  0.00  0.00    +0.145 HD
ATOM     21  H   UNL     1      -0.331  -6.010   3.045  0.00  0.00    +0.145 HD
ENDBRANCH  16  17
ENDBRANCH   3  16
BRANCH   3  22
ATOM     22  C   UNL     1      -4.430  -4.412   0.248  0.00  0.00    +0.203 C 
BRANCH  22  23
ATOM     23  C   UNL     1      -4.872  -4.695  -1.165  0.00  0.00    +0.228 C 
ATOM     24  O   UNL     1      -4.114  -4.492  -2.089  0.00  0.00    -0.274 OA
ATOM     25  N   UNL     1      -6.110  -5.172  -1.401  0.00  0.00    -0.328 N 
ATOM     26  H   UNL     1      -6.717  -5.334  -0.661  0.00  0.00    +0.145 HD
ATOM     27  H   UNL     1      -6.395  -5.354  -2.310  0.00  0.00    +0.145 HD
ENDBRANCH  22  23
ENDBRANCH   3  22
TORSDOF 8
