REMARK  Name = ZINC04592669
REMARK  4 active torsions:
REMARK  status: ('A' for Active; 'I' for Inactive)
REMARK    1  A    between atoms: C_1  and  N_42
REMARK    2  A    between atoms: C_12  and  C_15
REMARK    3  A    between atoms: C_18  and  O_22
REMARK    4  A    between atoms: O_22  and  C_23
REMARK                            x       y       z     vdW  Elec       q    Type
REMARK                         _______ _______ _______ _____ _____    ______ ____
ROOT
ATOM      1  C   UNL     1       0.117   1.426  -2.386  0.00  0.00    -0.096 C 
ATOM      2  C   UNL     1      -0.013   1.086   0.008  0.00  0.00    -0.074 C 
ATOM      3  C   UNL     1      -0.724   1.577   1.272  0.00  0.00    +0.018 C 
ATOM      4  C   UNL     1      -2.199   1.216   1.163  0.00  0.00    -0.027 A 
ATOM      5  C   UNL     1      -2.729   0.904  -0.042  0.00  0.00    -0.021 A 
ATOM      6  S   UNL     1      -4.436   0.558   0.286  0.00  0.00    -0.080 S 
ATOM      7  C   UNL     1      -4.442   0.823   1.978  0.00  0.00    +0.080 A 
ATOM      8  C   UNL     1      -3.118   1.175   2.286  0.00  0.00    +0.068 A 
ATOM      9  C   UNL     1      -2.801   1.473   3.702  0.00  0.00    +0.248 C 
ATOM     10  O   UNL     1      -1.711   1.904   4.030  0.00  0.00    -0.270 OA
ATOM     11  N   UNL     1      -3.771   1.248   4.613  0.00  0.00    -0.289 N 
ATOM     12  C   UNL     1      -5.003   0.523   4.316  0.00  0.00    +0.190 C 
ATOM     13  N   UNL     1      -5.432   0.748   2.923  0.00  0.00    -0.316 N 
ATOM     14  C   UNL     1      -2.006   0.869  -1.351  0.00  0.00    -0.036 C 
ATOM     15  H   UNL     1      -3.643   1.586   5.513  0.00  0.00    +0.151 HD
ATOM     16  H   UNL     1      -6.369   0.837   2.687  0.00  0.00    +0.149 HD
ATOM     17  N   UNL     1      -0.724   1.596  -1.182  0.00  0.00    +0.381 N 
ATOM     18  H   UNL     1      -0.921   2.595  -1.051  0.00  0.00    -0.082 HD
ENDROOT
BRANCH  12  19
ATOM     19  C   UNL     1      -4.771  -0.951   4.528  0.00  0.00    -0.008 A 
ATOM     20  C   UNL     1      -3.854  -1.377   5.471  0.00  0.00    +0.011 A 
ATOM     21  C   UNL     1      -3.640  -2.727   5.668  0.00  0.00    +0.047 A 
ATOM     22  C   UNL     1      -4.346  -3.657   4.919  0.00  0.00    +0.134 A 
ATOM     23  C   UNL     1      -5.267  -3.228   3.973  0.00  0.00    +0.060 A 
ATOM     24  C   UNL     1      -5.481  -1.875   3.784  0.00  0.00    +0.026 A 
ATOM     25 BR   UNL     1      -6.232  -4.491   2.950  0.00  0.00    -0.047 Br
BRANCH  22  26
ATOM     26  O   UNL     1      -4.138  -4.986   5.111  0.00  0.00    -0.494 OA
ATOM     27  C   UNL     1      -3.175  -5.355   6.101  0.00  0.00    +0.277 C 
ENDBRANCH  22  26
ENDBRANCH  12  19
TORSDOF 2
