REMARK  Name = ZINC38726990
REMARK  13 active torsions:
REMARK  status: ('A' for Active; 'I' for Inactive)
REMARK    1  A    between atoms: C_1  and  C_2
REMARK    2  A    between atoms: C_2  and  O_3
REMARK    3  A    between atoms: O_3  and  C_4
REMARK    4  A    between atoms: C_15  and  C_26
REMARK    5  A    between atoms: N_17  and  C_20
REMARK    6  A    between atoms: C_20  and  C_21
REMARK    7  A    between atoms: C_21  and  C_22
REMARK    8  A    between atoms: C_22  and  N_23
REMARK    9  A    between atoms: N_23  and  C_24
REMARK   10  A    between atoms: N_23  and  C_25
REMARK   11  A    between atoms: C_29  and  O_32
REMARK   12  A    between atoms: O_32  and  C_33
REMARK   13  A    between atoms: C_33  and  C_34
REMARK                            x       y       z     vdW  Elec       q    Type
REMARK                         _______ _______ _______ _____ _____    ______ ____
ROOT
ATOM      1  C   UNL     1      -1.498  -1.847   0.006  0.00  0.00    +0.124 A 
ATOM      2  C   UNL     1      -0.376  -2.674  -0.003  0.00  0.00    +0.046 A 
ATOM      3  C   UNL     1      -0.524  -4.031  -0.006  0.00  0.00    +0.019 A 
ATOM      4  C   UNL     1      -1.804  -4.589   0.001  0.00  0.00    +0.065 A 
ATOM      5  C   UNL     1      -2.945  -3.766   0.004  0.00  0.00    +0.143 A 
ATOM      6  C   UNL     1      -2.772  -2.385   0.016  0.00  0.00    +0.092 A 
ATOM      7  O   UNL     1      -4.200  -4.271  -0.003  0.00  0.00    -0.449 OA
ATOM      8  C   UNL     1      -4.391  -5.585   0.225  0.00  0.00    +0.199 A 
ATOM      9  C   UNL     1      -3.365  -6.487   0.236  0.00  0.00    +0.072 A 
ATOM     10  C   UNL     1      -1.980  -6.061   0.006  0.00  0.00    +0.199 A 
ATOM     11  O   UNL     1      -1.061  -6.843  -0.165  0.00  0.00    -0.287 OA
ATOM     12  C   UNL     1      -3.947  -7.835   0.510  0.00  0.00    +0.144 C 
ATOM     13  N   UNL     1      -5.396  -7.623   0.661  0.00  0.00    -0.284 N 
ATOM     14  C   UNL     1      -5.645  -6.309   0.494  0.00  0.00    +0.283 C 
ATOM     15  O   UNL     1      -6.745  -5.795   0.555  0.00  0.00    -0.267 OA
ENDROOT
BRANCH  12  16
ATOM     16  C   UNL     1      -3.673  -8.763  -0.645  0.00  0.00    -0.022 A 
ATOM     17  C   UNL     1      -4.436  -8.678  -1.795  0.00  0.00    +0.009 A 
ATOM     18  C   UNL     1      -4.188  -9.528  -2.856  0.00  0.00    +0.046 A 
ATOM     19  C   UNL     1      -3.171 -10.468  -2.766  0.00  0.00    +0.121 A 
ATOM     20  C   UNL     1      -2.407 -10.551  -1.611  0.00  0.00    +0.046 A 
ATOM     21  C   UNL     1      -2.656  -9.695  -0.556  0.00  0.00    +0.009 A 
BRANCH  19  22
ATOM     22  O   UNL     1      -2.925 -11.306  -3.807  0.00  0.00    -0.487 OA
BRANCH  22  23
ATOM     23  C   UNL     1      -1.863 -12.248  -3.644  0.00  0.00    +0.264 C 
BRANCH  23  24
ATOM     24  C   UNL     1      -1.739 -13.085  -4.891  0.00  0.00    -0.010 A 
ATOM     25  C   UNL     1      -2.459 -14.258  -5.011  0.00  0.00    +0.007 A 
ATOM     26  C   UNL     1      -2.345 -15.026  -6.155  0.00  0.00    +0.000 A 
ATOM     27  C   UNL     1      -1.511 -14.620  -7.180  0.00  0.00    +0.000 A 
ATOM     28  C   UNL     1      -0.791 -13.446  -7.061  0.00  0.00    +0.000 A 
ATOM     29  C   UNL     1      -0.908 -12.676  -5.918  0.00  0.00    +0.007 A 
ENDBRANCH  23  24
ENDBRANCH  22  23
ENDBRANCH  19  22
ENDBRANCH  12  16
BRANCH   1  30
ATOM     30  O   UNL     1      -1.339  -0.499   0.012  0.00  0.00    -0.492 OA
BRANCH  30  32
ATOM     31  C   UNL     1      -0.019   1.526   0.010  0.00  0.00    +0.048 C 
ATOM     32  C   UNL     1       0.002  -0.004   0.002  0.00  0.00    +0.225 C 
ENDBRANCH  30  32
ENDBRANCH   1  30
BRANCH  13  33
ATOM     33  C   UNL     1      -6.393  -8.659   0.943  0.00  0.00    +0.107 C 
BRANCH  33  34
ATOM     34  C   UNL     1      -6.561  -8.807   2.456  0.00  0.00    +0.000 C 
BRANCH  34  35
ATOM     35  C   UNL     1      -7.602  -9.889   2.750  0.00  0.00    -0.078 C 
BRANCH  35  36
ATOM     36  N   UNL     1      -7.763 -10.031   4.204  0.00  0.00    +0.376 N 
ATOM     37  C   UNL     1      -8.846 -10.983   4.485  0.00  0.00    -0.097 C 
ATOM     38  C   UNL     1      -6.511 -10.527   4.789  0.00  0.00    -0.097 C 
ATOM     39  H   UNL     1      -7.991  -9.134   4.606  0.00  0.00    -0.083 HD
ENDBRANCH  35  36
ENDBRANCH  34  35
ENDBRANCH  33  34
ENDBRANCH  13  33
TORSDOF 10
