REMARK  Name = ZINC37556327
REMARK  7 active torsions:
REMARK  status: ('A' for Active; 'I' for Inactive)
REMARK    1  A    between atoms: C_1  and  C_2
REMARK    2  A    between atoms: C_2  and  C_4
REMARK    3  A    between atoms: C_2  and  N_7
REMARK    4  A    between atoms: N_7  and  S_8
REMARK    5  A    between atoms: S_8  and  C_11
REMARK    6  A    between atoms: C_12  and  N_19
REMARK    7  A    between atoms: N_19  and  N_20
REMARK                            x       y       z     vdW  Elec       q    Type
REMARK                         _______ _______ _______ _____ _____    ______ ____
ROOT
ATOM      1  C   UNL     1      -1.242  -2.272  -2.098  0.00  0.00    +0.222 A 
ATOM      2  C   UNL     1      -0.189  -2.202  -2.938  0.00  0.00    +0.179 A 
ATOM      3  N   UNL     1       0.199  -3.454  -3.235  0.00  0.00    -0.203 NA
ATOM      4  C   UNL     1      -0.574  -4.297  -2.610  0.00  0.00    +0.181 A 
ATOM      5  N   UNL     1      -1.507  -3.625  -1.866  0.00  0.00    -0.276 N 
ATOM      6  C   UNL     1      -2.396  -4.389  -1.142  0.00  0.00    +0.102 A 
ATOM      7  C   UNL     1      -2.335  -5.719  -1.172  0.00  0.00    +0.067 A 
ATOM      8  S   UNL     1      -0.965  -6.000  -2.283  0.00  0.00    -0.058 S 
ENDROOT
BRANCH   1   9
ATOM      9  S   UNL     1      -2.119  -0.907  -1.411  0.00  0.00    +0.078 S 
ATOM     10  O   UNL     1      -3.414  -1.386  -1.071  0.00  0.00    -0.151 OA
ATOM     11  O   UNL     1      -1.920   0.189  -2.293  0.00  0.00    -0.151 OA
BRANCH   9  12
ATOM     12  N   UNL     1      -1.372  -0.511   0.012  0.00  0.00    -0.177 NA
ATOM     13  H   UNL     1      -1.845  -0.615   0.853  0.00  0.00    +0.149 HD
BRANCH  12  15
ATOM     14  C   UNL     1      -0.019   1.526   0.010  0.00  0.00    +0.035 C 
ATOM     15  C   UNL     1       0.002  -0.004   0.002  0.00  0.00    +0.159 C 
BRANCH  15  16
ATOM     16  C   UNL     1       0.731  -0.503   1.223  0.00  0.00    +0.229 C 
ATOM     17  O   UNL     1       0.159  -1.213   2.023  0.00  0.00    -0.274 OA
ATOM     18  N   UNL     1       2.019  -0.161   1.426  0.00  0.00    -0.328 N 
ATOM     19  H   UNL     1       2.476   0.406   0.786  0.00  0.00    +0.145 HD
ATOM     20  H   UNL     1       2.488  -0.483   2.212  0.00  0.00    +0.145 HD
ENDBRANCH  15  16
ENDBRANCH  12  15
ENDBRANCH   9  12
ENDBRANCH   1   9
BRANCH   2  21
ATOM     21  N   UNL     1       0.401  -1.023  -3.419  0.00  0.00    -0.265 N 
ATOM     22  H   UNL     1       0.051  -0.160  -3.148  0.00  0.00    +0.168 HD
BRANCH  21  23
ATOM     23  N   UNL     1       1.468  -1.091  -4.269  0.00  0.00    -0.255 NA
ATOM     24  H   UNL     1       1.783  -0.168  -4.529  0.00  0.00    +0.140 HD
ATOM     25  H   UNL     1       2.220  -1.628  -3.864  0.00  0.00    +0.140 HD
ENDBRANCH  21  23
ENDBRANCH   2  21
TORSDOF 6
