REMARK  Name = ZINC20292291
REMARK  9 active torsions:
REMARK  status: ('A' for Active; 'I' for Inactive)
REMARK    1  A    between atoms: C_4  and  C_7
REMARK    2  A    between atoms: C_7  and  C_9
REMARK    3  A    between atoms: C_9  and  S_10
REMARK    4  A    between atoms: S_10  and  C_11
REMARK    5  A    between atoms: N_15  and  N_16
REMARK    6  A    between atoms: N_17  and  N_18
REMARK    7  A    between atoms: C_19  and  C_20
REMARK    8  A    between atoms: C_23  and  O_27
REMARK    9  A    between atoms: C_25  and  O_26
REMARK                            x       y       z     vdW  Elec       q    Type
REMARK                         _______ _______ _______ _____ _____    ______ ____
ROOT
ATOM      1  C   UNL     1       5.297  -4.519  -0.075  0.00  0.00    +0.210 A 
ATOM      2  N   UNL     1       4.179  -5.204  -0.073  0.00  0.00    -0.119 NA
ATOM      3  N   UNL     1       4.505  -6.566  -0.081  0.00  0.00    -0.109 NA
ATOM      4  C   UNL     1       5.812  -6.670  -0.088  0.00  0.00    +0.254 A 
ATOM      5  N   UNL     1       6.336  -5.406  -0.090  0.00  0.00    -0.211 N 
ATOM      6  N   UNL     1       6.537  -7.852  -0.098  0.00  0.00    -0.204 N 
ATOM      7  H   UNL     1       7.506  -7.827  -0.102  0.00  0.00    +0.177 HD
ENDROOT
BRANCH   5   8
ATOM      8  N   UNL     1       7.664  -5.088  -0.102  0.00  0.00    -0.294 N 
ATOM      9  H   UNL     1       8.026  -5.009   0.836  0.00  0.00    +0.163 HD
ATOM     10  H   UNL     1       8.193  -5.760  -0.638  0.00  0.00    +0.163 HD
ENDBRANCH   5   8
BRANCH   6  11
ATOM     11  N   UNL     1       5.868  -9.083  -0.101  0.00  0.00    -0.187 NA
ATOM     12  C   UNL     1       6.546 -10.191  -0.110  0.00  0.00    +0.142 C 
BRANCH  12  13
ATOM     13  C   UNL     1       5.843 -11.486  -0.113  0.00  0.00    +0.036 A 
ATOM     14  C   UNL     1       6.570 -12.679  -0.117  0.00  0.00    +0.016 A 
ATOM     15  C   UNL     1       5.908 -13.887  -0.120  0.00  0.00    +0.046 A 
ATOM     16  C   UNL     1       4.519 -13.924  -0.119  0.00  0.00    +0.120 A 
ATOM     17  C   UNL     1       3.788 -12.745  -0.116  0.00  0.00    +0.091 A 
ATOM     18  C   UNL     1       4.441 -11.525  -0.107  0.00  0.00    +0.129 A 
BRANCH  18  19
ATOM     19  O   UNL     1       3.727 -10.370  -0.097  0.00  0.00    -0.506 OA
ATOM     20  H   UNL     1       3.516 -10.030  -0.978  0.00  0.00    +0.292 HD
ENDBRANCH  18  19
BRANCH  16  21
ATOM     21  O   UNL     1       3.873 -15.120  -0.123  0.00  0.00    -0.507 OA
ATOM     22  H   UNL     1       3.687 -15.469   0.759  0.00  0.00    +0.292 HD
ENDBRANCH  16  21
ENDBRANCH  12  13
ENDBRANCH   6  11
BRANCH   1  23
ATOM     23  S   UNL     1       5.436  -2.762  -0.067  0.00  0.00    -0.076 S 
BRANCH  23  24
ATOM     24  C   UNL     1       3.716  -2.186  -0.046  0.00  0.00    +0.157 C 
BRANCH  24  25
ATOM     25  C   UNL     1       3.691  -0.679  -0.038  0.00  0.00    +0.173 C 
ATOM     26  O   UNL     1       4.731  -0.056  -0.045  0.00  0.00    -0.291 OA
BRANCH  25  30
ATOM     27  C   UNL     1      -0.017   1.380   0.010  0.00  0.00    +0.000 A 
ATOM     28  C   UNL     1       1.168   2.095   0.002  0.00  0.00    +0.001 A 
ATOM     29  C   UNL     1       2.377   1.433  -0.013  0.00  0.00    +0.011 A 
ATOM     30  C   UNL     1       2.405   0.035  -0.021  0.00  0.00    +0.018 A 
ATOM     31  C   UNL     1       1.203  -0.681  -0.013  0.00  0.00    +0.011 A 
ATOM     32  C   UNL     1       0.002  -0.004   0.002  0.00  0.00    +0.001 A 
ENDBRANCH  25  30
ENDBRANCH  24  25
ENDBRANCH  23  24
ENDBRANCH   1  23
TORSDOF 9
