REMARK  Name = ZINC62243684
REMARK  5 active torsions:
REMARK  status: ('A' for Active; 'I' for Inactive)
REMARK    1  A    between atoms: C_1  and  C_2
REMARK    2  A    between atoms: C_2  and  C_3
REMARK    3  A    between atoms: C_2  and  N_4
REMARK    4  A    between atoms: C_5  and  C_8
REMARK    5  A    between atoms: N_6  and  N_7
REMARK                            x       y       z     vdW  Elec       q    Type
REMARK                         _______ _______ _______ _____ _____    ______ ____
ROOT
ATOM      1  N   UNL     1       0.829  -0.144  -1.195  0.00  0.00    -0.330 N 
ATOM      2  C   UNL     1       2.199  -0.366  -1.239  0.00  0.00    +0.090 C 
ATOM      3  N   UNL     1       2.885  -0.388  -0.144  0.00  0.00    -0.304 N 
ATOM      4  H   UNL     1       0.314  -0.127  -2.017  0.00  0.00    +0.147 HD
ATOM      5  H   UNL     1       2.459  -0.168   0.700  0.00  0.00    +0.185 HD
ENDROOT
BRANCH   2   6
ATOM      6  C   UNL     1       2.885  -0.582  -2.563  0.00  0.00    +0.077 C 
ATOM      7  C   UNL     1       2.875  -2.074  -2.907  0.00  0.00    +0.015 C 
ATOM      8  C   UNL     1       3.505  -2.272  -4.290  0.00  0.00    +0.029 C 
ATOM      9  C   UNL     1       2.739  -1.433  -5.316  0.00  0.00    +0.160 C 
ATOM     10  O   UNL     1       2.760  -0.061  -4.919  0.00  0.00    -0.379 OA
ATOM     11  C   UNL     1       2.143   0.193  -3.655  0.00  0.00    +0.170 C 
ENDBRANCH   2   6
BRANCH   1  13
ATOM     12  C   UNL     1       0.265   1.541   0.487  0.00  0.00    +0.027 C 
ATOM     13  C   UNL     1       0.162   0.066   0.092  0.00  0.00    +0.065 C 
ATOM     14  C   UNL     1      -1.312  -0.328  -0.027  0.00  0.00    +0.027 C 
ENDBRANCH   1  13
BRANCH   3  15
ATOM     15  N   UNL     1       4.243  -0.730  -0.175  0.00  0.00    -0.304 N 
ATOM     16  H   UNL     1       4.782  -0.651   0.627  0.00  0.00    +0.162 HD
ATOM     17  H   UNL     1       4.645  -1.045  -1.000  0.00  0.00    +0.162 HD
ENDBRANCH   3  15
TORSDOF 3
