REMARK  Name = ZINC65252785
REMARK  13 active torsions:
REMARK  status: ('A' for Active; 'I' for Inactive)
REMARK    1  A    between atoms: C_1  and  C_2
REMARK    2  A    between atoms: C_2  and  C_3
REMARK    3  A    between atoms: C_3  and  C_4
REMARK    4  A    between atoms: C_4  and  C_5
REMARK    5  A    between atoms: C_4  and  N_6
REMARK    6  A    between atoms: C_7  and  C_9
REMARK    7  A    between atoms: N_13  and  C_15
REMARK    8  A    between atoms: C_15  and  C_16
REMARK    9  A    between atoms: C_15  and  C_17
REMARK   10  A    between atoms: N_19  and  C_20
REMARK   11  A    between atoms: C_21  and  C_28
REMARK   12  A    between atoms: C_25  and  C_26
REMARK   13  A    between atoms: C_26  and  C_27
REMARK                            x       y       z     vdW  Elec       q    Type
REMARK                         _______ _______ _______ _____ _____    ______ ____
ROOT
ATOM      1  C   UNL     1      -4.195  -4.840   2.100  0.00  0.00    +0.058 C 
ATOM      2  C   UNL     1      -5.306  -4.064   1.387  0.00  0.00    +0.009 C 
ATOM      3  C   UNL     1      -6.426  -5.034   1.001  0.00  0.00    -0.018 C 
ATOM      4  C   UNL     1      -5.848  -6.151   0.130  0.00  0.00    -0.078 C 
ATOM      5  N   UNL     1      -4.810  -6.872   0.877  0.00  0.00    +0.388 N 
ATOM      6  C   UNL     1      -3.699  -5.964   1.188  0.00  0.00    -0.065 C 
ATOM      7  H   UNL     1      -5.202  -7.229   1.736  0.00  0.00    -0.081 HD
ENDROOT
BRANCH   1   9
ATOM      8  N   UNL     1      -3.257  -2.837   3.209  0.00  0.00    -0.313 N 
ATOM      9  C   UNL     1      -3.053  -3.908   2.416  0.00  0.00    +0.215 C 
ATOM     10  O   UNL     1      -1.951  -4.122   1.957  0.00  0.00    -0.276 OA
ATOM     11  H   UNL     1      -4.138  -2.666   3.576  0.00  0.00    +0.149 HD
BRANCH   8  12
ATOM     12  C   UNL     1      -2.147  -1.932   3.516  0.00  0.00    +0.070 C 
ATOM     13  C   UNL     1      -1.357  -2.479   4.707  0.00  0.00    +0.028 C 
BRANCH  12  14
ATOM     14  C   UNL     1      -2.699  -0.548   3.863  0.00  0.00    +0.022 C 
BRANCH  14  16
ATOM     15  C   UNL     1      -3.934   1.436   2.980  0.00  0.00    +0.004 C 
ATOM     16  C   UNL     1      -3.382   0.052   2.633  0.00  0.00    -0.002 C 
ENDBRANCH  14  16
ENDBRANCH  12  14
ENDBRANCH   8  12
ENDBRANCH   1   9
BRANCH   5  17
ATOM     17  C   UNL     1      -4.313  -7.991   0.066  0.00  0.00    +0.016 C 
ATOM     18  C   UNL     1      -5.487  -8.880  -0.350  0.00  0.00    -0.004 C 
BRANCH  17  19
ATOM     19  C   UNL     1      -3.332  -8.800   0.874  0.00  0.00    +0.203 C 
ATOM     20  O   UNL     1      -3.259  -8.642   2.074  0.00  0.00    -0.277 OA
ATOM     21  N   UNL     1      -2.535  -9.699   0.263  0.00  0.00    -0.286 N 
ATOM     22  H   UNL     1      -2.547  -9.780  -0.704  0.00  0.00    +0.155 HD
BRANCH  21  23
ATOM     23  C   UNL     1      -1.691 -10.517   1.023  0.00  0.00    +0.039 A 
ATOM     24  C   UNL     1      -0.765  -9.948   1.888  0.00  0.00    -0.029 A 
ATOM     25  C   UNL     1       0.066 -10.757   2.636  0.00  0.00    +0.005 A 
ATOM     26  C   UNL     1      -0.022 -12.133   2.525  0.00  0.00    +0.001 A 
ATOM     27  C   UNL     1      -0.942 -12.702   1.664  0.00  0.00    +0.005 A 
ATOM     28  C   UNL     1      -1.781 -11.898   0.918  0.00  0.00    -0.026 A 
ATOM     29  C   UNL     1      -0.668  -8.449   2.009  0.00  0.00    +0.045 C 
BRANCH  28  30
ATOM     30  C   UNL     1      -2.789 -12.520  -0.015  0.00  0.00    +0.033 C 
ATOM     31  C   UNL     1      -2.199 -12.598  -1.424  0.00  0.00    +0.009 C 
ENDBRANCH  28  30
ENDBRANCH  21  23
ENDBRANCH  17  19
ENDBRANCH   5  17
TORSDOF 8
