REMARK  Name = ZINC33265613
REMARK  3 active torsions:
REMARK  status: ('A' for Active; 'I' for Inactive)
REMARK    1  A    between atoms: C_1  and  C_2
REMARK    2  A    between atoms: N_15  and  C_18
REMARK    3  A    between atoms: N_23  and  C_24
REMARK                            x       y       z     vdW  Elec       q    Type
REMARK                         _______ _______ _______ _____ _____    ______ ____
ROOT
ATOM      1  C   UNL     1      -2.647  -4.840   1.050  0.00  0.00    +0.035 C 
ATOM      2  C   UNL     1      -2.364  -4.225  -0.322  0.00  0.00    +0.122 C 
ATOM      3  C   UNL     1      -3.412  -4.689  -1.284  0.00  0.00    +0.044 A 
ATOM      4  C   UNL     1      -3.266  -5.260  -2.488  0.00  0.00    +0.025 A 
ATOM      5  C   UNL     1      -4.556  -5.588  -2.960  0.00  0.00    +0.020 A 
ATOM      6  C   UNL     1      -5.446  -5.189  -2.023  0.00  0.00    +0.092 A 
ATOM      7  N   UNL     1      -4.758  -4.615  -1.009  0.00  0.00    -0.312 N 
ATOM      8  C   UNL     1      -5.185  -3.992   0.157  0.00  0.00    +0.090 A 
ATOM      9  C   UNL     1      -4.692  -2.809   0.615  0.00  0.00    +0.004 A 
ATOM     10  C   UNL     1      -5.204  -2.342   1.840  0.00  0.00    -0.034 A 
ATOM     11  C   UNL     1      -6.160  -3.090   2.454  0.00  0.00    -0.021 A 
ATOM     12  S   UNL     1      -6.377  -4.475   1.369  0.00  0.00    -0.077 S 
ATOM     13  C   UNL     1      -6.844  -2.787   3.747  0.00  0.00    -0.036 C 
ATOM     14  N   UNL     1      -6.075  -1.734   4.438  0.00  0.00    +0.381 N 
ATOM     15  C   UNL     1      -5.782  -0.621   3.524  0.00  0.00    -0.074 C 
ATOM     16  C   UNL     1      -4.734  -1.044   2.492  0.00  0.00    +0.018 C 
ATOM     17  C   UNL     1      -6.786  -1.260   5.633  0.00  0.00    -0.096 C 
ATOM     18  C   UNL     1      -3.646  -2.062  -0.182  0.00  0.00    +0.148 C 
ATOM     19  N   UNL     1      -2.341  -2.748  -0.195  0.00  0.00    -0.273 N 
ATOM     20  C   UNL     1      -1.183  -2.065  -0.100  0.00  0.00    +0.307 C 
ATOM     21  O   UNL     1      -0.123  -2.661  -0.113  0.00  0.00    -0.252 OA
ATOM     22  N   UNL     1      -1.200  -0.722   0.009  0.00  0.00    -0.268 N 
ATOM     23  H   UNL     1      -2.158  -0.189   0.095  0.00  0.00    +0.156 HD
ATOM     24  H   UNL     1      -5.117  -2.163   4.769  0.00  0.00    -0.082 HD
ENDROOT
BRANCH  22  25
ATOM     25  C   UNL     1       0.003  -0.005   0.013  0.00  0.00    +0.049 A 
ATOM     26  C   UNL     1       1.135  -0.548   0.606  0.00  0.00    +0.024 A 
ATOM     27  C   UNL     1       2.320   0.162   0.608  0.00  0.00    +0.002 A 
ATOM     28  C   UNL     1       2.380   1.412   0.020  0.00  0.00    +0.001 A 
ATOM     29  C   UNL     1       1.255   1.956  -0.571  0.00  0.00    +0.017 A 
ATOM     30  C   UNL     1       0.066   1.251  -0.576  0.00  0.00    +0.039 A 
ATOM     31 BR   UNL     1      -1.471   1.993  -1.392  0.00  0.00    -0.048 Br
ENDBRANCH  22  25
TORSDOF 1
