REMARK  Name = ZINC14977935
REMARK  10 active torsions:
REMARK  status: ('A' for Active; 'I' for Inactive)
REMARK    1  A    between atoms: C_1  and  N_59
REMARK    2  A    between atoms: C_2  and  C_3
REMARK    3  A    between atoms: C_2  and  N_59
REMARK    4  A    between atoms: C_3  and  N_4
REMARK    5  A    between atoms: C_9  and  C_10
REMARK    6  A    between atoms: C_9  and  N_59
REMARK    7  A    between atoms: C_15  and  S_32
REMARK    8  A    between atoms: N_18  and  C_21
REMARK    9  A    between atoms: C_21  and  C_22
REMARK   10  A    between atoms: S_32  and  C_33
REMARK                            x       y       z     vdW  Elec       q    Type
REMARK                         _______ _______ _______ _____ _____    ______ ____
ROOT
ATOM      1  C   UNL     1       3.422   1.797   0.143  0.00  0.00    +0.001 A 
ATOM      2  C   UNL     1       2.259   1.120  -0.022  0.00  0.00    +0.017 A 
ATOM      3  C   UNL     1       1.053   1.847  -0.186  0.00  0.00    -0.001 A 
ATOM      4  C   UNL     1      -0.169   1.181  -0.360  0.00  0.00    +0.011 A 
ATOM      5  C   UNL     1      -1.316   1.898  -0.523  0.00  0.00    +0.015 A 
ATOM      6  C   UNL     1      -1.288   3.295  -0.506  0.00  0.00    +0.010 A 
ATOM      7  C   UNL     1      -0.090   3.972  -0.336  0.00  0.00    +0.041 A 
ATOM      8  C   UNL     1       1.088   3.256  -0.175  0.00  0.00    +0.053 A 
ATOM      9  N   UNL     1       2.292   3.908  -0.005  0.00  0.00    -0.304 N 
ATOM     10  C   UNL     1       3.431   3.207   0.151  0.00  0.00    +0.253 A 
ATOM     11  O   UNL     1       4.486   3.800   0.300  0.00  0.00    -0.267 OA
ENDROOT
BRANCH   6  12
ATOM     12  S   UNL     1      -2.784   4.202  -0.711  0.00  0.00    -0.129 S 
ATOM     13  C   UNL     1      -4.054   2.920  -0.894  0.00  0.00    +0.090 C 
ENDBRANCH   6  12
BRANCH   1  14
ATOM     14  C   UNL     1       4.713   1.039   0.320  0.00  0.00    -0.038 C 
BRANCH  14  16
ATOM     15  C   UNL     1       5.813   2.212  -1.490  0.00  0.00    -0.096 C 
ATOM     16  N   UNL     1       5.364   0.892  -0.999  0.00  0.00    +0.382 N 
ATOM     17  H   UNL     1       4.685   0.502  -1.664  0.00  0.00    -0.082 HD
BRANCH  16  18
ATOM     18  C   UNL     1       6.516  -0.027  -0.894  0.00  0.00    -0.055 C 
BRANCH  18  19
ATOM     19  C   UNL     1       7.031  -0.336  -2.301  0.00  0.00    +0.125 C 
BRANCH  19  20
ATOM     20  N   UNL     1       8.161  -1.264  -2.215  0.00  0.00    -0.273 N 
ATOM     21  C   UNL     1       8.263  -2.453  -2.846  0.00  0.00    +0.108 A 
ATOM     22  C   UNL     1       9.454  -2.999  -2.507  0.00  0.00    +0.041 A 
ATOM     23  C   UNL     1      10.102  -2.115  -1.639  0.00  0.00    +0.134 A 
ATOM     24  N   UNL     1       9.330  -1.072  -1.468  0.00  0.00    -0.180 NA
ENDBRANCH  19  20
ENDBRANCH  18  19
ENDBRANCH  16  18
ENDBRANCH  14  16
ENDBRANCH   1  14
BRANCH   9  25
ATOM     25  C   UNL     1       2.332   5.372   0.007  0.00  0.00    +0.162 C 
BRANCH  25  26
ATOM     26  C   UNL     1       2.433   5.884  -1.407  0.00  0.00    -0.006 A 
ATOM     27  C   UNL     1       2.424   4.994  -2.465  0.00  0.00    +0.056 A 
ATOM     28  C   UNL     1       2.517   5.461  -3.765  0.00  0.00    +0.167 A 
ATOM     29  C   UNL     1       2.620   6.830  -4.004  0.00  0.00    +0.168 A 
ATOM     30  C   UNL     1       2.629   7.716  -2.940  0.00  0.00    +0.070 A 
ATOM     31  C   UNL     1       2.530   7.243  -1.644  0.00  0.00    +0.050 A 
ATOM     32 CL   UNL     1       2.534   8.357  -0.312  0.00  0.00    -0.083 Cl
ATOM     33  O   UNL     1       2.698   7.032  -5.352  0.00  0.00    -0.453 OA
ATOM     34  C   UNL     1       3.052   5.755  -5.913  0.00  0.00    +0.466 C 
ATOM     35  O   UNL     1       2.530   4.807  -4.963  0.00  0.00    -0.453 OA
ENDBRANCH  25  26
ENDBRANCH   9  25
TORSDOF 8
