REMARK  Name = ZINC52692776
REMARK  7 active torsions:
REMARK  status: ('A' for Active; 'I' for Inactive)
REMARK    1  A    between atoms: C_1  and  C_2
REMARK    2  A    between atoms: C_5  and  O_9
REMARK    3  A    between atoms: O_9  and  C_10
REMARK    4  A    between atoms: C_10  and  C_11
REMARK    5  A    between atoms: C_13  and  C_17
REMARK    6  A    between atoms: C_14  and  C_16
REMARK    7  A    between atoms: C_17  and  N_18
REMARK                            x       y       z     vdW  Elec       q    Type
REMARK                         _______ _______ _______ _____ _____    ______ ____
ROOT
ATOM      1  C   UNL     1       0.079  -6.266  -1.111  0.00  0.00    +0.143 A 
ATOM      2  C   UNL     1      -1.002  -7.061  -1.012  0.00  0.00    +0.050 A 
ATOM      3  C   UNL     1      -0.525  -8.382  -0.845  0.00  0.00    -0.024 A 
ATOM      4  C   UNL     1       0.819  -8.314  -0.852  0.00  0.00    +0.104 A 
ATOM      5  O   UNL     1       1.179  -7.031  -1.019  0.00  0.00    -0.461 OA
ATOM      6  C   UNL     1       1.760  -9.481  -0.702  0.00  0.00    +0.086 C 
ENDROOT
BRANCH   1   7
ATOM      7  C   UNL     1       0.058  -4.771  -1.300  0.00  0.00    +0.303 C 
BRANCH   7   8
ATOM      8  O   UNL     1       0.057  -4.130  -0.022  0.00  0.00    -0.483 OA
BRANCH   8  13
ATOM      9  C   UNL     1      -0.018   1.503   0.010  0.00  0.00    +0.044 C 
ATOM     10  C   UNL     1       0.002  -0.004   0.002  0.00  0.00    -0.049 A 
ATOM     11  C   UNL     1       0.006  -0.688  -1.200  0.00  0.00    +0.007 A 
ATOM     12  C   UNL     1       0.024  -2.069  -1.211  0.00  0.00    +0.047 A 
ATOM     13  C   UNL     1       0.039  -2.771  -0.014  0.00  0.00    +0.135 A 
ATOM     14  C   UNL     1       0.036  -2.083   1.191  0.00  0.00    +0.060 A 
ATOM     15  C   UNL     1       0.023  -0.700   1.196  0.00  0.00    +0.022 A 
ATOM     16 BR   UNL     1       0.056  -3.035   2.825  0.00  0.00    -0.047 Br
ENDBRANCH   8  13
ENDBRANCH   7   8
ENDBRANCH   1   7
BRANCH   3  17
ATOM     17  C   UNL     1      -1.361  -9.626  -0.689  0.00  0.00    -0.047 C 
BRANCH  17  18
ATOM     18  N   UNL     1      -1.435  -9.991   0.732  0.00  0.00    +0.381 N 
ATOM     19  H   UNL     1      -0.505 -10.164   1.083  0.00  0.00    -0.090 HD
ATOM     20  H   UNL     1      -1.855  -9.236   1.252  0.00  0.00    -0.090 HD
ATOM     21  H   UNL     1      -1.994 -10.824   0.836  0.00  0.00    -0.090 HD
ENDBRANCH  17  18
ENDBRANCH   3  17
TORSDOF 5
