REMARK  Name = ZINC58961266
REMARK  9 active torsions:
REMARK  status: ('A' for Active; 'I' for Inactive)
REMARK    1  A    between atoms: C_1  and  C_2
REMARK    2  A    between atoms: C_5  and  C_8
REMARK    3  A    between atoms: C_10  and  C_33
REMARK    4  A    between atoms: C_12  and  S_14
REMARK    5  A    between atoms: S_14  and  C_15
REMARK    6  A    between atoms: C_15  and  C_17
REMARK    7  A    between atoms: C_15  and  C_18
REMARK    8  A    between atoms: N_20  and  C_21
REMARK    9  A    between atoms: C_22  and  C_30
REMARK                            x       y       z     vdW  Elec       q    Type
REMARK                         _______ _______ _______ _____ _____    ______ ____
ROOT
ATOM      1  C   UNL     1       0.121  -8.850  -2.264  0.00  0.00    +0.137 C 
ATOM      2  C   UNL     1      -1.182  -9.206  -1.545  0.00  0.00    +0.029 C 
ENDROOT
BRANCH   1   3
ATOM      3  C   UNL     1       0.256  -9.694  -3.505  0.00  0.00    +0.231 C 
ATOM      4  O   UNL     1      -0.030  -9.230  -4.589  0.00  0.00    -0.274 OA
ATOM      5  N   UNL     1       0.695 -10.965  -3.411  0.00  0.00    -0.278 N 
ATOM      6  H   UNL     1       0.923 -11.337  -2.545  0.00  0.00    +0.155 HD
BRANCH   5   7
ATOM      7  C   UNL     1       0.819 -11.742  -4.553  0.00  0.00    +0.084 A 
ATOM      8  C   UNL     1       1.244 -13.058  -4.646  0.00  0.00    +0.068 A 
ATOM      9  C   UNL     1       1.286 -13.650  -5.972  0.00  0.00    -0.023 A 
ATOM     10  C   UNL     1       0.895 -12.818  -6.961  0.00  0.00    -0.004 A 
ATOM     11  S   UNL     1       0.482 -11.307  -6.140  0.00  0.00    -0.077 S 
ATOM     12  C   UNL     1       0.830 -13.128  -8.425  0.00  0.00    +0.043 C 
ATOM     13  C   UNL     1       1.630 -14.414  -8.681  0.00  0.00    +0.005 C 
ATOM     14  C   UNL     1       1.214 -15.470  -7.654  0.00  0.00    +0.005 C 
ATOM     15  C   UNL     1       1.723 -15.078  -6.266  0.00  0.00    +0.037 C 
BRANCH   8  16
ATOM     16  C   UNL     1       1.636 -13.820  -3.457  0.00  0.00    +0.244 C 
ATOM     17  O   UNL     1       0.804 -14.467  -2.847  0.00  0.00    -0.270 OA
ATOM     18  N   UNL     1       2.917 -13.805  -3.038  0.00  0.00    -0.325 N 
ATOM     19  H   UNL     1       3.580 -13.290  -3.524  0.00  0.00    +0.145 HD
ATOM     20  H   UNL     1       3.176 -14.310  -2.251  0.00  0.00    +0.145 HD
ENDBRANCH   8  16
ENDBRANCH   5   7
ENDBRANCH   1   3
BRANCH   1  21
ATOM     21  S   UNL     1       0.097  -7.096  -2.726  0.00  0.00    -0.074 S 
BRANCH  21  26
ATOM     22  C   UNL     1       0.060  -4.255  -0.021  0.00  0.00    +0.076 A 
ATOM     23  C   UNL     1       0.070  -4.971   1.179  0.00  0.00    +0.060 A 
ATOM     24  C   UNL     1       0.088  -6.354   1.122  0.00  0.00    +0.148 A 
ATOM     25  N   UNL     1       0.096  -6.953  -0.058  0.00  0.00    -0.218 NA
ATOM     26  C   UNL     1       0.086  -6.249  -1.181  0.00  0.00    +0.190 A 
ATOM     27  N   UNL     1       0.063  -4.925  -1.172  0.00  0.00    -0.222 NA
BRANCH  22  32
ATOM     28  C   UNL     1      -0.018   1.503   0.010  0.00  0.00    +0.044 C 
ATOM     29  C   UNL     1       0.002  -0.004   0.002  0.00  0.00    -0.050 A 
ATOM     30  C   UNL     1       0.006  -0.686  -1.201  0.00  0.00    +0.004 A 
ATOM     31  C   UNL     1       0.024  -2.066  -1.215  0.00  0.00    +0.010 A 
ATOM     32  C   UNL     1       0.040  -2.772  -0.013  0.00  0.00    +0.001 A 
ATOM     33  C   UNL     1       0.037  -2.079   1.196  0.00  0.00    +0.010 A 
ATOM     34  C   UNL     1       0.023  -0.699   1.198  0.00  0.00    +0.004 A 
ENDBRANCH  22  32
BRANCH  24  35
ATOM     35  C   UNL     1       0.100  -7.168   2.390  0.00  0.00    +0.434 C 
ATOM     36  F   UNL     1      -1.215  -7.437   2.783  0.00  0.00    -0.164 F 
ATOM     37  F   UNL     1       0.775  -8.372   2.164  0.00  0.00    -0.164 F 
ATOM     38  F   UNL     1       0.751  -6.450   3.399  0.00  0.00    -0.164 F 
ENDBRANCH  24  35
ENDBRANCH  21  26
ENDBRANCH   1  21
TORSDOF 7
