REMARK  Name = ZINC16636574
REMARK  11 active torsions:
REMARK  status: ('A' for Active; 'I' for Inactive)
REMARK    1  A    between atoms: C_1  and  C_2
REMARK    2  A    between atoms: C_6  and  N_9
REMARK    3  A    between atoms: C_7  and  C_8
REMARK    4  A    between atoms: C_10  and  C_12
REMARK    5  A    between atoms: C_12  and  N_61
REMARK    6  A    between atoms: C_13  and  N_61
REMARK    7  A    between atoms: C_14  and  C_15
REMARK    8  A    between atoms: C_14  and  N_61
REMARK    9  A    between atoms: C_15  and  C_16
REMARK   10  A    between atoms: N_18  and  C_19
REMARK   11  A    between atoms: C_20  and  C_29
REMARK                            x       y       z     vdW  Elec       q    Type
REMARK                         _______ _______ _______ _____ _____    ______ ____
ROOT
ATOM      1  C   UNL     1      -0.739   1.617  -1.236  0.00  0.00    -0.069 C 
ENDROOT
BRANCH   1   3
ATOM      2  C   UNL     1       1.281   1.728  -2.567  0.00  0.00    -0.096 C 
ATOM      3  N   UNL     1      -0.053   1.104  -2.441  0.00  0.00    +0.384 N 
ATOM      4  H   UNL     1       0.061   0.088  -2.353  0.00  0.00    -0.082 HD
BRANCH   3   5
ATOM      5  C   UNL     1      -0.862   1.394  -3.644  0.00  0.00    +0.018 C 
BRANCH   5   7
ATOM      6  N   UNL     1      -0.830   0.770  -6.037  0.00  0.00    -0.287 N 
ATOM      7  C   UNL     1      -0.256   0.674  -4.821  0.00  0.00    +0.201 C 
ATOM      8  O   UNL     1       0.748   0.009  -4.675  0.00  0.00    -0.278 OA
ATOM      9  H   UNL     1      -1.675   1.234  -6.139  0.00  0.00    +0.155 HD
BRANCH   6  15
ATOM     10  C   UNL     1      -1.159  -1.136 -10.557  0.00  0.00    +0.044 C 
ATOM     11  C   UNL     1      -0.342  -0.735  -9.357  0.00  0.00    -0.046 A 
ATOM     12  C   UNL     1       1.028  -0.930  -9.356  0.00  0.00    +0.004 A 
ATOM     13  C   UNL     1       1.781  -0.563  -8.257  0.00  0.00    +0.002 A 
ATOM     14  C   UNL     1       1.168   0.001  -7.155  0.00  0.00    +0.023 A 
ATOM     15  C   UNL     1      -0.206   0.199  -7.152  0.00  0.00    +0.036 A 
ATOM     16  C   UNL     1      -0.961  -0.177  -8.256  0.00  0.00    -0.026 A 
ATOM     17  C   UNL     1      -2.454   0.030  -8.254  0.00  0.00    +0.046 C 
ENDBRANCH   6  15
ENDBRANCH   5   7
ENDBRANCH   3   5
ENDBRANCH   1   3
BRANCH   1  18
ATOM     18  C   UNL     1       0.000   1.112   0.005  0.00  0.00    +0.077 C 
BRANCH  18  19
ATOM     19  C   UNL     1      -0.700   1.608   1.244  0.00  0.00    +0.216 C 
ATOM     20  O   UNL     1      -1.693   2.298   1.144  0.00  0.00    -0.276 OA
ATOM     21  N   UNL     1      -0.223   1.286   2.462  0.00  0.00    -0.279 N 
ATOM     22  H   UNL     1       0.570   0.734   2.542  0.00  0.00    +0.155 HD
BRANCH  21  23
ATOM     23  C   UNL     1      -0.868   1.743   3.603  0.00  0.00    +0.090 A 
ATOM     24  C   UNL     1      -0.537   1.516   4.929  0.00  0.00    +0.084 A 
ATOM     25  C   UNL     1      -1.380   2.120   5.951  0.00  0.00    -0.018 A 
ATOM     26  C   UNL     1      -2.423   2.837   5.479  0.00  0.00    -0.004 A 
ATOM     27  S   UNL     1      -2.287   2.730   3.715  0.00  0.00    -0.077 S 
ATOM     28  C   UNL     1      -3.474   3.552   6.268  0.00  0.00    +0.043 C 
ATOM     29  C   UNL     1      -2.801   4.405   7.352  0.00  0.00    +0.005 C 
ATOM     30  C   UNL     1      -2.645   3.554   8.608  0.00  0.00    +0.001 C 
ATOM     31  C   UNL     1      -2.404   2.094   8.227  0.00  0.00    +0.005 C 
ATOM     32  C   UNL     1      -1.105   1.956   7.441  0.00  0.00    +0.037 C 
BRANCH  24  33
ATOM     33  C   UNL     1       0.598   0.717   5.282  0.00  0.00    +0.102 C 
ATOM     34  N   UNL     1       1.498   0.084   5.562  0.00  0.00    -0.191 NA
ENDBRANCH  24  33
ENDBRANCH  21  23
ENDBRANCH  18  19
ENDBRANCH   1  18
TORSDOF 8
