REMARK  Name = ZINC67584680
REMARK  7 active torsions:
REMARK  status: ('A' for Active; 'I' for Inactive)
REMARK    1  A    between atoms: C_1  and  C_2
REMARK    2  A    between atoms: C_2  and  C_3
REMARK    3  A    between atoms: C_3  and  C_4
REMARK    4  A    between atoms: N_6  and  C_7
REMARK    5  A    between atoms: C_11  and  N_14
REMARK    6  A    between atoms: C_12  and  C_13
REMARK    7  A    between atoms: N_20  and  C_23
REMARK                            x       y       z     vdW  Elec       q    Type
REMARK                         _______ _______ _______ _____ _____    ______ ____
ROOT
ATOM      1  N   UNL     1       2.755  -6.928  -4.087  0.00  0.00    -0.269 N 
ATOM      2  C   UNL     1       2.800  -8.274  -4.026  0.00  0.00    +0.307 C 
ATOM      3  O   UNL     1       2.324  -8.855  -3.070  0.00  0.00    -0.252 OA
ATOM      4  N   UNL     1       3.373  -8.975  -5.024  0.00  0.00    -0.282 N 
ATOM      5  C   UNL     1       4.078  -8.285  -6.114  0.00  0.00    +0.128 C 
ATOM      6  C   UNL     1       5.504  -8.842  -6.204  0.00  0.00    +0.124 C 
ATOM      7  N   UNL     1       5.435 -10.310  -6.223  0.00  0.00    -0.327 N 
ATOM      8  C   UNL     1       4.730 -10.999  -5.133  0.00  0.00    +0.124 C 
ATOM      9  C   UNL     1       3.308 -10.443  -5.040  0.00  0.00    +0.128 C 
ATOM     10  H   UNL     1       3.202  -6.460  -4.810  0.00  0.00    +0.156 HD
ENDROOT
BRANCH   1  15
ATOM     11  C   UNL     1       0.768  -4.290  -2.460  0.00  0.00    +0.038 A 
ATOM     12  C   UNL     1       0.697  -4.782  -1.162  0.00  0.00    +0.024 A 
ATOM     13  C   UNL     1       1.307  -5.979  -0.841  0.00  0.00    +0.004 A 
ATOM     14  C   UNL     1       1.989  -6.691  -1.809  0.00  0.00    +0.024 A 
ATOM     15  C   UNL     1       2.063  -6.206  -3.108  0.00  0.00    +0.039 A 
ATOM     16  C   UNL     1       1.447  -5.006  -3.435  0.00  0.00    -0.008 A 
ATOM     17  C   UNL     1       1.521  -4.479  -4.845  0.00  0.00    +0.047 C 
BRANCH  11  20
ATOM     18  C   UNL     1      -0.825  -2.585  -1.995  0.00  0.00    +0.217 C 
ATOM     19  O   UNL     1      -1.246  -3.246  -1.069  0.00  0.00    -0.275 OA
ATOM     20  N   UNL     1       0.150  -3.077  -2.784  0.00  0.00    -0.285 N 
ATOM     21  H   UNL     1       0.424  -2.591  -3.577  0.00  0.00    +0.155 HD
BRANCH  18  22
ATOM     22  C   UNL     1      -1.391  -1.215  -2.262  0.00  0.00    +0.096 C 
BRANCH  22  24
ATOM     23  C   UNL     1      -3.051   0.491  -1.501  0.00  0.00    +0.004 C 
ATOM     24  C   UNL     1      -2.475  -0.901  -1.229  0.00  0.00    +0.006 C 
ENDBRANCH  22  24
ENDBRANCH  18  22
ENDBRANCH  11  20
ENDBRANCH   1  15
BRANCH   7  25
ATOM     25  C   UNL     1       6.026 -11.034  -7.253  0.00  0.00    +0.033 A 
ATOM     26  C   UNL     1       5.836 -12.411  -7.361  0.00  0.00    +0.040 A 
ATOM     27  C   UNL     1       6.439 -13.092  -8.398  0.00  0.00    +0.084 A 
ATOM     28  N   UNL     1       7.187 -12.456  -9.280  0.00  0.00    -0.367 N 
ATOM     29  C   UNL     1       7.392 -11.154  -9.212  0.00  0.00    +0.084 A 
ATOM     30  C   UNL     1       6.820 -10.400  -8.209  0.00  0.00    +0.040 A 
ATOM     31  H   UNL     1       7.599 -12.961  -9.999  0.00  0.00    +0.165 HD
ENDBRANCH   7  25
TORSDOF 5
