REMARK  Name = ZINC22969493
REMARK  6 active torsions:
REMARK  status: ('A' for Active; 'I' for Inactive)
REMARK    1  A    between atoms: C_1  and  N_2
REMARK    2  A    between atoms: C_11  and  N_14
REMARK    3  A    between atoms: C_15  and  C_17
REMARK    4  A    between atoms: N_20  and  C_26
REMARK    5  A    between atoms: C_21  and  C_22
REMARK    6  A    between atoms: C_30  and  C_32
REMARK                            x       y       z     vdW  Elec       q    Type
REMARK                         _______ _______ _______ _____ _____    ______ ____
ROOT
ATOM      1  C   UNL     1      -0.643   7.335  -0.325  0.00  0.00    +0.087 A 
ATOM      2  C   UNL     1       0.518   7.316   0.480  0.00  0.00    +0.148 A 
ATOM      3  N   UNL     1       0.841   6.071   0.696  0.00  0.00    -0.174 NA
ATOM      4  N   UNL     1      -0.079   5.244   0.043  0.00  0.00    -0.227 N 
ATOM      5  C   UNL     1      -0.985   6.021  -0.577  0.00  0.00    +0.159 A 
ENDROOT
BRANCH   4   6
ATOM      6  C   UNL     1      -0.062   3.842   0.039  0.00  0.00    +0.067 A 
ATOM      7  C   UNL     1      -1.255   3.132   0.042  0.00  0.00    +0.028 A 
ATOM      8  C   UNL     1      -1.235   1.751   0.033  0.00  0.00    +0.003 A 
ATOM      9  C   UNL     1      -0.029   1.075   0.031  0.00  0.00    +0.012 A 
ATOM     10  C   UNL     1       1.161   1.780   0.027  0.00  0.00    +0.057 A 
ATOM     11  C   UNL     1       1.148   3.161   0.031  0.00  0.00    +0.040 A 
BRANCH  10  12
ATOM     12  C   UNL     1       2.474   1.040   0.019  0.00  0.00    +0.417 C 
ATOM     13  F   UNL     1       2.232  -0.338   0.017  0.00  0.00    -0.166 F 
ATOM     14  F   UNL     1       3.199   1.388  -1.125  0.00  0.00    -0.166 F 
ATOM     15  F   UNL     1       3.209   1.382   1.159  0.00  0.00    -0.166 F 
ENDBRANCH  10  12
ENDBRANCH   4   6
BRANCH   1  17
ATOM     16  N   UNL     1      -0.906   9.760  -0.480  0.00  0.00    -0.280 N 
ATOM     17  C   UNL     1      -1.356   8.532  -0.806  0.00  0.00    +0.252 C 
ATOM     18  O   UNL     1      -2.349   8.412  -1.497  0.00  0.00    -0.270 OA
ATOM     19  H   UNL     1      -0.054   9.869   0.207  0.00  0.00    +0.155 HD
BRANCH  16  30
ATOM     20  C   UNL     1      -4.177  17.536  -5.140  0.00  0.00    -0.096 C 
ATOM     21  N   UNL     1      -3.585  16.315  -4.576  0.00  0.00    +0.380 N 
ATOM     22  C   UNL     1      -2.854  16.609  -3.336  0.00  0.00    -0.060 C 
ATOM     23  C   UNL     1      -2.187  15.330  -2.824  0.00  0.00    +0.088 C 
ATOM     24  N   UNL     1      -3.213  14.303  -2.596  0.00  0.00    -0.319 N 
ATOM     25  C   UNL     1      -3.945  14.009  -3.837  0.00  0.00    +0.088 C 
ATOM     26  C   UNL     1      -4.611  15.289  -4.348  0.00  0.00    -0.060 C 
ATOM     27  C   UNL     1      -2.652  13.147  -2.062  0.00  0.00    +0.121 A 
ATOM     28  C   UNL     1      -3.467  12.056  -1.776  0.00  0.00    +0.045 A 
ATOM     29  C   UNL     1      -2.899  10.912  -1.245  0.00  0.00    +0.028 A 
ATOM     30  C   UNL     1      -1.524  10.898  -1.017  0.00  0.00    +0.052 A 
ATOM     31  C   UNL     1      -0.776  12.024  -1.323  0.00  0.00    +0.136 A 
ATOM     32  N   UNL     1      -1.350  13.097  -1.833  0.00  0.00    -0.238 NA
ATOM     33  H   UNL     1      -2.866  15.920  -5.309  0.00  0.00    -0.082 HD
ENDBRANCH  16  30
ENDBRANCH   1  17
BRANCH   5  34
ATOM     34  C   UNL     1      -2.158   5.545  -1.396  0.00  0.00    +0.435 C 
ATOM     35  F   UNL     1      -3.272   5.385  -0.566  0.00  0.00    -0.164 F 
ATOM     36  F   UNL     1      -2.447   6.488  -2.388  0.00  0.00    -0.164 F 
ATOM     37  F   UNL     1      -1.842   4.321  -1.995  0.00  0.00    -0.164 F 
ENDBRANCH   5  34
TORSDOF 5
