REMARK  Name = ZINC63314204
REMARK  12 active torsions:
REMARK  status: ('A' for Active; 'I' for Inactive)
REMARK    1  A    between atoms: C_1  and  O_2
REMARK    2  A    between atoms: O_2  and  C_3
REMARK    3  A    between atoms: C_6  and  C_9
REMARK    4  A    between atoms: C_11  and  C_33
REMARK    5  A    between atoms: N_13  and  C_20
REMARK    6  A    between atoms: C_20  and  C_21
REMARK    7  A    between atoms: C_21  and  C_22
REMARK    8  A    between atoms: C_25  and  O_31
REMARK    9  A    between atoms: O_31  and  C_32
REMARK   10  A    between atoms: C_36  and  O_41
REMARK   11  A    between atoms: C_37  and  O_39
REMARK   12  A    between atoms: O_39  and  C_40
REMARK                            x       y       z     vdW  Elec       q    Type
REMARK                         _______ _______ _______ _____ _____    ______ ____
ROOT
ATOM      1  C   UNL     1       2.504  -2.545  -4.846  0.00  0.00    +0.097 C 
ATOM      2  C   UNL     1       2.684  -3.847  -4.738  0.00  0.00    +0.017 C 
ATOM      3  C   UNL     1       2.444  -5.243  -4.213  0.00  0.00    +0.137 C 
ATOM      4  N   UNL     1       2.170  -6.019  -5.448  0.00  0.00    -0.288 N 
ATOM      5  C   UNL     1       2.737  -5.394  -6.517  0.00  0.00    +0.247 C 
ATOM      6  O   UNL     1       2.650  -5.736  -7.677  0.00  0.00    -0.273 OA
ATOM      7  C   UNL     1       3.489  -4.205  -5.997  0.00  0.00    +0.244 C 
ATOM      8  N   UNL     1       3.449  -2.981  -6.770  0.00  0.00    -0.170 NA
ATOM      9  N   UNL     1       2.943  -2.099  -6.059  0.00  0.00    -0.153 NA
ENDROOT
BRANCH   1  13
ATOM     10  C   UNL     1       0.775  -0.082  -1.839  0.00  0.00    +0.120 A 
ATOM     11  C   UNL     1       0.364   0.044  -3.159  0.00  0.00    +0.046 A 
ATOM     12  C   UNL     1       0.923  -0.752  -4.136  0.00  0.00    +0.013 A 
ATOM     13  C   UNL     1       1.901  -1.686  -3.797  0.00  0.00    +0.002 A 
ATOM     14  C   UNL     1       2.312  -1.811  -2.471  0.00  0.00    +0.013 A 
ATOM     15  C   UNL     1       1.753  -1.007  -1.499  0.00  0.00    +0.046 A 
BRANCH  10  17
ATOM     16  C   UNL     1      -0.777   1.635  -1.298  0.00  0.00    +0.277 C 
ATOM     17  O   UNL     1       0.223   0.705  -0.879  0.00  0.00    -0.495 OA
ENDBRANCH  10  17
ENDBRANCH   1  13
BRANCH   3  18
ATOM     18  C   UNL     1       1.255  -5.268  -3.288  0.00  0.00    -0.019 A 
ATOM     19  C   UNL     1       0.024  -4.822  -3.734  0.00  0.00    +0.009 A 
ATOM     20  C   UNL     1      -1.070  -4.842  -2.890  0.00  0.00    +0.049 A 
ATOM     21  C   UNL     1      -0.935  -5.311  -1.593  0.00  0.00    +0.158 A 
ATOM     22  C   UNL     1       0.303  -5.760  -1.144  0.00  0.00    +0.162 A 
ATOM     23  C   UNL     1       1.395  -5.742  -1.997  0.00  0.00    +0.055 A 
BRANCH  22  24
ATOM     24  O   UNL     1       0.440  -6.221   0.128  0.00  0.00    -0.491 OA
ATOM     25  C   UNL     1       1.740  -6.667   0.520  0.00  0.00    +0.277 C 
ENDBRANCH  22  24
BRANCH  21  26
ATOM     26  O   UNL     1      -2.011  -5.332  -0.761  0.00  0.00    -0.503 OA
ATOM     27  H   UNL     1      -2.518  -6.154  -0.795  0.00  0.00    +0.292 HD
ENDBRANCH  21  26
ENDBRANCH   3  18
BRANCH   4  28
ATOM     28  C   UNL     1       1.407  -7.269  -5.508  0.00  0.00    +0.113 C 
BRANCH  28  29
ATOM     29  C   UNL     1      -0.048  -6.961  -5.870  0.00  0.00    +0.052 C 
BRANCH  29  30
ATOM     30  C   UNL     1      -0.803  -8.251  -6.057  0.00  0.00    -0.040 C 
ATOM     31  C   UNL     1      -1.552  -8.896  -5.134  0.00  0.00    +0.002 A 
ATOM     32  C   UNL     1      -1.877  -8.602  -3.734  0.00  0.00    +0.055 A 
ATOM     33  C   UNL     1      -2.673  -9.451  -3.041  0.00  0.00    +0.121 A 
ATOM     34  C   UNL     1      -3.206 -10.618  -3.617  0.00  0.00    +0.047 A 
ATOM     35  C   UNL     1      -2.964 -10.973  -4.897  0.00  0.00    +0.029 A 
ATOM     36  C   UNL     1      -2.115 -10.125  -5.739  0.00  0.00    +0.043 A 
ATOM     37  N   UNL     1      -1.728 -10.236  -6.986  0.00  0.00    -0.380 N 
ATOM     38  C   UNL     1      -0.881  -9.085  -7.316  0.00  0.00    +0.144 C 
ATOM     39  H   UNL     1      -1.966 -10.956  -7.590  0.00  0.00    +0.160 HD
BRANCH  33  40
ATOM     40  O   UNL     1      -2.965  -9.167  -1.745  0.00  0.00    -0.495 OA
ATOM     41  C   UNL     1      -3.807 -10.090  -1.052  0.00  0.00    +0.277 C 
ENDBRANCH  33  40
ENDBRANCH  29  30
ENDBRANCH  28  29
ENDBRANCH   4  28
TORSDOF 9
