REMARK  Name = ZINC43410554
REMARK  3 active torsions:
REMARK  status: ('A' for Active; 'I' for Inactive)
REMARK    1  A    between atoms: C_5  and  S_7
REMARK    2  A    between atoms: S_7  and  C_8
REMARK    3  A    between atoms: C_9  and  C_18
REMARK                            x       y       z     vdW  Elec       q    Type
REMARK                         _______ _______ _______ _____ _____    ______ ____
ROOT
ATOM      1  C   UNL     1      -0.442  -2.891   0.210  0.00  0.00    +0.112 A 
ATOM      2  C   UNL     1      -0.801  -4.248   0.277  0.00  0.00    +0.045 A 
ATOM      3  C   UNL     1      -2.157  -4.576   0.323  0.00  0.00    +0.019 A 
ATOM      4  C   UNL     1      -3.097  -3.552   0.305  0.00  0.00    -0.025 A 
ATOM      5  C   UNL     1      -2.671  -2.242   0.245  0.00  0.00    +0.046 A 
ATOM      6  N   UNL     1      -1.376  -1.957   0.202  0.00  0.00    -0.244 NA
ATOM      7  C   UNL     1      -3.635  -1.082   0.241  0.00  0.00    +0.056 C 
ATOM      8  C   UNL     1      -5.038  -1.551  -0.137  0.00  0.00    +0.006 C 
ATOM      9  C   UNL     1      -5.410  -2.739   0.757  0.00  0.00    +0.005 C 
ATOM     10  C   UNL     1      -4.552  -3.935   0.349  0.00  0.00    +0.037 C 
ENDROOT
BRANCH   2  11
ATOM     11  C   UNL     1       0.232  -5.303   0.296  0.00  0.00    +0.097 C 
ATOM     12  N   UNL     1       1.178  -5.291   1.235  0.00  0.00    -0.387 N 
ATOM     13  N   UNL     1       0.218  -6.266  -0.624  0.00  0.00    -0.344 N 
ATOM     14  H   UNL     1       1.230  -4.553   1.862  0.00  0.00    +0.157 HD
ATOM     15  H   UNL     1      -0.471  -6.275  -1.307  0.00  0.00    +0.144 HD
ATOM     16  H   UNL     1       0.896  -6.959  -0.611  0.00  0.00    +0.144 HD
ATOM     17  H   UNL     1       1.815  -6.021   1.291  0.00  0.00    +0.157 HD
ENDBRANCH   2  11
BRANCH   1  18
ATOM     18  S   UNL     1       1.259  -2.434   0.144  0.00  0.00    -0.068 S 
BRANCH  18  23
ATOM     19  C   UNL     1       1.542   1.359   1.451  0.00  0.00    +0.001 A 
ATOM     20  C   UNL     1       1.184   2.091   0.334  0.00  0.00    +0.001 A 
ATOM     21  C   UNL     1       0.849   1.445  -0.842  0.00  0.00    +0.021 A 
ATOM     22  C   UNL     1       0.871   0.065  -0.904  0.00  0.00    +0.055 A 
ATOM     23  C   UNL     1       1.230  -0.674   0.217  0.00  0.00    +0.032 A 
ATOM     24  C   UNL     1       1.567  -0.021   1.397  0.00  0.00    +0.016 A 
ATOM     25 CL   UNL     1       0.449  -0.746  -2.380  0.00  0.00    -0.082 Cl
ENDBRANCH  18  23
ENDBRANCH   1  18
TORSDOF 3
