REMARK  Name = ZINC03902944
REMARK  6 active torsions:
REMARK  status: ('A' for Active; 'I' for Inactive)
REMARK    1  A    between atoms: C_1  and  C_2
REMARK    2  A    between atoms: C_4  and  C_20
REMARK    3  A    between atoms: C_6  and  C_13
REMARK    4  A    between atoms: C_8  and  C_12
REMARK    5  A    between atoms: C_18  and  O_19
REMARK    6  A    between atoms: C_25  and  O_26
REMARK                            x       y       z     vdW  Elec       q    Type
REMARK                         _______ _______ _______ _____ _____    ______ ____
ROOT
ATOM      1  C   UNL     1       6.538   0.587  -1.580  0.00  0.00    +0.014 C 
ATOM      2  C   UNL     1       5.084   0.176  -1.337  0.00  0.00    +0.043 C 
ATOM      3  C   UNL     1       4.781   0.213   0.165  0.00  0.00    -0.026 C 
ATOM      4  C   UNL     1       3.807   2.434   0.047  0.00  0.00    -0.026 C 
ATOM      5  C   UNL     1       4.044   2.548  -1.463  0.00  0.00    +0.043 C 
ATOM      6  C   UNL     1       4.155   1.149  -2.032  0.00  0.00    +0.136 C 
ATOM      7  O   UNL     1       3.524   0.820  -3.008  0.00  0.00    -0.297 OA
ATOM      8  C   UNL     1       2.869   3.279  -2.116  0.00  0.00    +0.014 C 
ATOM      9  N   UNL     1       4.867   1.604   0.653  0.00  0.00    +0.389 N 
ATOM     10  H   UNL     1       5.784   1.993   0.405  0.00  0.00    -0.084 HD
ATOM     11  H   UNL     1       4.757   1.610   1.674  0.00  0.00    -0.084 HD
ENDROOT
BRANCH   4  12
ATOM     12  C   UNL     1       2.461   1.805   0.298  0.00  0.00    -0.019 A 
ATOM     13  C   UNL     1       1.810   1.134  -0.719  0.00  0.00    +0.005 A 
ATOM     14  C   UNL     1       0.575   0.557  -0.489  0.00  0.00    +0.000 A 
ATOM     15  C   UNL     1      -0.013   0.651   0.759  0.00  0.00    +0.004 A 
ATOM     16  C   UNL     1       0.633   1.321   1.779  0.00  0.00    +0.045 A 
ATOM     17  C   UNL     1       1.873   1.901   1.551  0.00  0.00    +0.118 A 
BRANCH  17  18
ATOM     18  O   UNL     1       2.510   2.561   2.554  0.00  0.00    -0.507 OA
ATOM     19  H   UNL     1       3.091   2.001   3.087  0.00  0.00    +0.292 HD
ENDBRANCH  17  18
ENDBRANCH   4  12
BRANCH   3  20
ATOM     20  C   UNL     1       5.790  -0.629   0.903  0.00  0.00    -0.019 A 
ATOM     21  C   UNL     1       6.863  -0.029   1.533  0.00  0.00    +0.005 A 
ATOM     22  C   UNL     1       7.785  -0.801   2.215  0.00  0.00    +0.000 A 
ATOM     23  C   UNL     1       7.643  -2.176   2.258  0.00  0.00    +0.004 A 
ATOM     24  C   UNL     1       6.575  -2.781   1.625  0.00  0.00    +0.045 A 
ATOM     25  C   UNL     1       5.645  -2.008   0.945  0.00  0.00    +0.118 A 
BRANCH  25  26
ATOM     26  O   UNL     1       4.593  -2.601   0.321  0.00  0.00    -0.507 OA
ATOM     27  H   UNL     1       4.768  -2.846  -0.598  0.00  0.00    +0.292 HD
ENDBRANCH  25  26
ENDBRANCH   3  20
TORSDOF 4
