REMARK  Name = ZINC01438104
REMARK  11 active torsions:
REMARK  status: ('A' for Active; 'I' for Inactive)
REMARK    1  A    between atoms: C_1  and  C_2
REMARK    2  A    between atoms: C_2  and  C_3
REMARK    3  A    between atoms: C_6  and  N_9
REMARK    4  A    between atoms: C_10  and  C_12
REMARK    5  A    between atoms: C_12  and  S_13
REMARK    6  A    between atoms: S_13  and  C_14
REMARK    7  A    between atoms: C_15  and  C_36
REMARK    8  A    between atoms: C_16  and  C_31
REMARK    9  A    between atoms: C_18  and  C_22
REMARK   10  A    between atoms: C_19  and  C_21
REMARK   11  A    between atoms: N_24  and  C_25
REMARK                            x       y       z     vdW  Elec       q    Type
REMARK                         _______ _______ _______ _____ _____    ______ ____
ROOT
ATOM      1  C   UNL     1       8.811  -0.612  -0.521  0.00  0.00    +0.080 C 
ATOM      2  C   UNL     1      10.072  -0.117  -0.640  0.00  0.00    +0.069 C 
ATOM      3  C   UNL     1      11.260  -1.029  -0.755  0.00  0.00    +0.105 C 
ATOM      4  C   UNL     1      10.829  -2.421  -1.117  0.00  0.00    +0.044 C 
ATOM      5  C   UNL     1       9.555  -2.824  -0.985  0.00  0.00    +0.014 C 
ATOM      6  N   UNL     1       8.591  -1.971  -0.520  0.00  0.00    -0.312 N 
ATOM      7  C   UNL     1       9.181  -4.236  -1.355  0.00  0.00    +0.061 C 
ATOM      8  H   UNL     1       7.639  -2.374  -0.146  0.00  0.00    +0.152 HD
ENDROOT
BRANCH   3   9
ATOM      9  C   UNL     1      11.992  -1.063   0.561  0.00  0.00    +0.002 A 
ATOM     10  C   UNL     1      13.267  -0.695   0.839  0.00  0.00    +0.012 A 
ATOM     11  C   UNL     1      13.731  -0.811   2.136  0.00  0.00    +0.008 A 
ATOM     12  C   UNL     1      12.901  -1.299   3.090  0.00  0.00    +0.045 A 
ATOM     13  S   UNL     1      11.409  -1.606   2.159  0.00  0.00    -0.101 S 
ENDBRANCH   3   9
BRANCH   4  14
ATOM     14  C   UNL     1      11.793  -3.334  -1.611  0.00  0.00    +0.247 C 
ATOM     15  O   UNL     1      11.461  -4.467  -1.910  0.00  0.00    -0.270 OA
ATOM     16  N   UNL     1      13.076  -2.949  -1.750  0.00  0.00    -0.282 N 
ATOM     17  H   UNL     1      13.391  -1.951  -1.410  0.00  0.00    +0.155 HD
BRANCH  16  18
ATOM     18  C   UNL     1      14.008  -3.817  -2.327  0.00  0.00    +0.034 A 
ATOM     19  C   UNL     1      13.920  -5.184  -2.099  0.00  0.00    +0.023 A 
ATOM     20  C   UNL     1      14.839  -6.040  -2.674  0.00  0.00    +0.002 A 
ATOM     21  C   UNL     1      15.853  -5.536  -3.468  0.00  0.00    +0.000 A 
ATOM     22  C   UNL     1      15.947  -4.175  -3.693  0.00  0.00    +0.002 A 
ATOM     23  C   UNL     1      15.028  -3.314  -3.125  0.00  0.00    +0.023 A 
ENDBRANCH  16  18
ENDBRANCH   4  14
BRANCH   2  24
ATOM     24  C   UNL     1      10.271   1.301  -0.652  0.00  0.00    +0.098 C 
ATOM     25  N   UNL     1      10.430   2.426  -0.662  0.00  0.00    -0.191 NA
ENDBRANCH   2  24
BRANCH   1  26
ATOM     26  S   UNL     1       7.447   0.494  -0.373  0.00  0.00    -0.100 S 
BRANCH  26  27
ATOM     27  C   UNL     1       6.088  -0.696  -0.261  0.00  0.00    +0.171 C 
BRANCH  27  29
ATOM     28  N   UNL     1       3.626  -0.641  -0.024  0.00  0.00    -0.285 N 
ATOM     29  C   UNL     1       4.782   0.045  -0.124  0.00  0.00    +0.227 C 
ATOM     30  O   UNL     1       4.772   1.257  -0.105  0.00  0.00    -0.275 OA
ATOM     31  H   UNL     1       3.642  -1.739   0.043  0.00  0.00    +0.155 HD
BRANCH  28  35
ATOM     32  C   UNL     1      -0.006   1.399   0.035  0.00  0.00    -0.048 A 
ATOM     33  C   UNL     1       0.142   0.231   0.762  0.00  0.00    +0.005 A 
ATOM     34  C   UNL     1       1.345  -0.447   0.744  0.00  0.00    +0.023 A 
ATOM     35  C   UNL     1       2.406   0.044  -0.004  0.00  0.00    +0.033 A 
ATOM     36  C   UNL     1       2.255   1.216  -0.733  0.00  0.00    +0.023 A 
ATOM     37  C   UNL     1       1.049   1.890  -0.711  0.00  0.00    +0.005 A 
BRANCH  32  39
ATOM     38  C   UNL     1      -2.214   1.631  -1.069  0.00  0.00    +0.009 C 
ATOM     39  C   UNL     1      -1.318   2.140   0.061  0.00  0.00    +0.032 C 
ENDBRANCH  32  39
ENDBRANCH  28  35
ENDBRANCH  27  29
ENDBRANCH  26  27
ENDBRANCH   1  26
TORSDOF 9
