REMARK  Name = ZINC09312777
REMARK  6 active torsions:
REMARK  status: ('A' for Active; 'I' for Inactive)
REMARK    1  A    between atoms: C_1  and  O_2
REMARK    2  A    between atoms: O_2  and  C_3
REMARK    3  A    between atoms: C_6  and  N_34
REMARK    4  A    between atoms: C_8  and  N_9
REMARK    5  A    between atoms: C_14  and  C_30
REMARK    6  A    between atoms: C_30  and  C_31
REMARK                            x       y       z     vdW  Elec       q    Type
REMARK                         _______ _______ _______ _____ _____    ______ ____
ROOT
ATOM      1  N   UNL     1      -0.017   1.369   0.010  0.00  0.00    -0.206 N 
ATOM      2  C   UNL     1       1.237   1.913   0.001  0.00  0.00    +0.229 C 
ATOM      3  O   UNL     1       1.542   3.054   0.275  0.00  0.00    -0.275 OA
ATOM      4  C   UNL     1       2.159   0.802  -0.422  0.00  0.00    +0.074 C 
ATOM      5  C   UNL     1       3.504   0.609   0.276  0.00  0.00    -0.049 C 
ATOM      6  C   UNL     1       2.306  -1.476   0.190  0.00  0.00    +0.050 C 
ATOM      7  C   UNL     1       1.368  -0.355   0.314  0.00  0.00    +0.088 C 
ATOM      8  C   UNL     1       0.002  -0.004   0.002  0.00  0.00    +0.229 C 
ATOM      9  O   UNL     1      -0.923  -0.756  -0.218  0.00  0.00    -0.275 OA
ATOM     10  C   UNL     1       2.378  -2.106  -1.174  0.00  0.00    -0.028 A 
ATOM     11  C   UNL     1       2.593  -1.605  -2.438  0.00  0.00    +0.004 A 
ATOM     12  C   UNL     1       2.606  -2.455  -3.529  0.00  0.00    +0.000 A 
ATOM     13  C   UNL     1       2.401  -3.811  -3.347  0.00  0.00    +0.002 A 
ATOM     14  C   UNL     1       2.183  -4.318  -2.083  0.00  0.00    +0.023 A 
ATOM     15  C   UNL     1       2.170  -3.468  -0.979  0.00  0.00    +0.036 A 
ATOM     16  N   UNL     1       1.976  -3.737   0.377  0.00  0.00    -0.286 N 
ATOM     17  C   UNL     1       2.042  -2.624   1.131  0.00  0.00    +0.211 C 
ATOM     18  O   UNL     1       1.913  -2.558   2.335  0.00  0.00    -0.277 OA
ATOM     19  H   UNL     1       1.814  -4.625   0.735  0.00  0.00    +0.155 HD
ATOM     20  N   UNL     1       3.612  -0.858   0.501  0.00  0.00    +0.394 N 
ATOM     21  H   UNL     1       3.857  -1.040   1.481  0.00  0.00    -0.083 HD
ATOM     22  H   UNL     1       4.336  -1.250  -0.112  0.00  0.00    -0.083 HD
ENDROOT
BRANCH   1  28
ATOM     23  C   UNL     1      -1.788   2.516  -1.181  0.00  0.00    +0.142 A 
ATOM     24  C   UNL     1      -2.951   3.268  -1.165  0.00  0.00    +0.050 A 
ATOM     25  C   UNL     1      -3.522   3.633   0.040  0.00  0.00    +0.036 A 
ATOM     26  C   UNL     1      -2.934   3.251   1.232  0.00  0.00    +0.128 A 
ATOM     27  C   UNL     1      -1.777   2.496   1.224  0.00  0.00    +0.060 A 
ATOM     28  C   UNL     1      -1.195   2.130   0.019  0.00  0.00    +0.088 A 
BRANCH  26  29
ATOM     29  N   UNL     1      -3.550   3.645   2.519  0.00  0.00    +0.056 N 
ATOM     30  O   UNL     1      -4.574   4.306   2.527  0.00  0.00    -0.126 OA
ATOM     31  O   UNL     1      -3.034   3.309   3.569  0.00  0.00    -0.126 OA
ENDBRANCH  26  29
BRANCH  23  33
ATOM     32  C   UNL     1      -1.888   2.586  -3.555  0.00  0.00    +0.277 C 
ATOM     33  O   UNL     1      -1.225   2.155  -2.365  0.00  0.00    -0.493 OA
ENDBRANCH  23  33
ENDBRANCH   1  28
BRANCH   5  34
ATOM     34  C   UNL     1       4.642   1.099  -0.622  0.00  0.00    +0.080 C 
BRANCH  34  35
ATOM     35  C   UNL     1       5.946   1.015   0.129  0.00  0.00    +0.209 C 
ATOM     36  O   UNL     1       5.963   0.604   1.270  0.00  0.00    -0.276 OA
ATOM     37  N   UNL     1       7.093   1.397  -0.467  0.00  0.00    -0.329 N 
ATOM     38  H   UNL     1       7.079   1.726  -1.379  0.00  0.00    +0.145 HD
ATOM     39  H   UNL     1       7.932   1.343   0.017  0.00  0.00    +0.145 HD
ENDBRANCH  34  35
ENDBRANCH   5  34
TORSDOF 5
