REMARK  Name = ZINC24716621
REMARK  13 active torsions:
REMARK  status: ('A' for Active; 'I' for Inactive)
REMARK    1  A    between atoms: C_1  and  C_2
REMARK    2  A    between atoms: C_2  and  C_4
REMARK    3  A    between atoms: C_2  and  N_18
REMARK    4  A    between atoms: N_10  and  C_11
REMARK    5  A    between atoms: N_18  and  C_19
REMARK    6  A    between atoms: N_18  and  C_20
REMARK    7  A    between atoms: C_20  and  C_21
REMARK    8  A    between atoms: C_24  and  O_31
REMARK    9  A    between atoms: C_25  and  O_29
REMARK   10  A    between atoms: C_26  and  O_27
REMARK   11  A    between atoms: O_27  and  C_28
REMARK   12  A    between atoms: O_29  and  C_30
REMARK   13  A    between atoms: O_31  and  C_32
REMARK                            x       y       z     vdW  Elec       q    Type
REMARK                         _______ _______ _______ _____ _____    ______ ____
ROOT
ATOM      1  C   UNL     1       4.276   1.858  -1.046  0.00  0.00    -0.005 C 
ATOM      2  C   UNL     1       3.569   2.094   0.290  0.00  0.00    -0.002 C 
ENDROOT
BRANCH   2   3
ATOM      3  C   UNL     1       2.266   1.337   0.310  0.00  0.00    +0.123 A 
ATOM      4  N   UNL     1       2.268   0.026   0.474  0.00  0.00    -0.201 NA
ATOM      5  C   UNL     1       1.119  -0.646   0.492  0.00  0.00    +0.217 A 
ATOM      6  N   UNL     1      -0.030   0.003   0.344  0.00  0.00    -0.181 NA
ATOM      7  C   UNL     1      -0.029   1.321   0.179  0.00  0.00    +0.224 A 
ATOM      8  N   UNL     1       1.125   1.986   0.162  0.00  0.00    -0.201 NA
ATOM      9  N   UNL     1      -1.221   2.000   0.019  0.00  0.00    -0.284 N 
ATOM     10  N   UNL     1       1.123  -2.016   0.663  0.00  0.00    -0.327 N 
ATOM     11  H   UNL     1      -1.226   3.099  -0.027  0.00  0.00    +0.155 HD
ATOM     12  H   UNL     1       0.173  -2.571   0.678  0.00  0.00    +0.145 HD
ATOM     13  H   UNL     1       2.075  -2.553   0.785  0.00  0.00    +0.145 HD
BRANCH   9  14
ATOM     14  C   UNL     1      -2.421   1.289  -0.085  0.00  0.00    +0.034 A 
ATOM     15  C   UNL     1      -2.443   0.046  -0.703  0.00  0.00    +0.023 A 
ATOM     16  C   UNL     1      -3.629  -0.656  -0.798  0.00  0.00    +0.002 A 
ATOM     17  C   UNL     1      -4.796  -0.116  -0.290  0.00  0.00    +0.000 A 
ATOM     18  C   UNL     1      -4.779   1.125   0.321  0.00  0.00    +0.002 A 
ATOM     19  C   UNL     1      -3.595   1.829   0.424  0.00  0.00    +0.023 A 
ENDBRANCH   9  14
ENDBRANCH   2   3
BRANCH   2  20
ATOM     20  N   UNL     1       4.425   1.624   1.387  0.00  0.00    +0.387 N 
ATOM     21  C   UNL     1       3.740   1.748   2.680  0.00  0.00    -0.095 C 
ATOM     22  H   UNL     1       4.636   0.557   1.217  0.00  0.00    -0.081 HD
BRANCH  20  23
ATOM     23  C   UNL     1       5.707   2.341   1.398  0.00  0.00    -0.039 C 
BRANCH  23  24
ATOM     24  C   UNL     1       6.648   1.673   2.368  0.00  0.00    -0.018 A 
ATOM     25  C   UNL     1       6.827   2.204   3.632  0.00  0.00    +0.009 A 
ATOM     26  C   UNL     1       7.689   1.595   4.525  0.00  0.00    +0.050 A 
ATOM     27  C   UNL     1       8.376   0.448   4.156  0.00  0.00    +0.165 A 
ATOM     28  C   UNL     1       8.198  -0.088   2.887  0.00  0.00    +0.204 A 
ATOM     29  C   UNL     1       7.327   0.524   1.994  0.00  0.00    +0.167 A 
BRANCH  29  30
ATOM     30  O   UNL     1       7.145  -0.001   0.752  0.00  0.00    -0.491 OA
ATOM     31  C   UNL     1       8.018   0.460  -0.281  0.00  0.00    +0.277 C 
ENDBRANCH  29  30
BRANCH  28  32
ATOM     32  O   UNL     1       8.871  -1.214   2.522  0.00  0.00    -0.488 OA
ATOM     33  C   UNL     1       8.233  -2.465   2.784  0.00  0.00    +0.277 C 
ENDBRANCH  28  32
BRANCH  27  34
ATOM     34  O   UNL     1       9.224  -0.150   5.036  0.00  0.00    -0.491 OA
ATOM     35  C   UNL     1       9.358   0.457   6.323  0.00  0.00    +0.277 C 
ENDBRANCH  27  34
ENDBRANCH  23  24
ENDBRANCH  20  23
ENDBRANCH   2  20
TORSDOF 8
