REMARK  Name = ZINC17086256
REMARK  11 active torsions:
REMARK  status: ('A' for Active; 'I' for Inactive)
REMARK    1  A    between atoms: C_1  and  C_2
REMARK    2  A    between atoms: C_5  and  N_9
REMARK    3  A    between atoms: C_6  and  C_8
REMARK    4  A    between atoms: C_10  and  C_12
REMARK    5  A    between atoms: C_13  and  C_38
REMARK    6  A    between atoms: C_20  and  C_22
REMARK    7  A    between atoms: C_25  and  O_30
REMARK    8  A    between atoms: C_26  and  O_28
REMARK    9  A    between atoms: O_28  and  C_29
REMARK   10  A    between atoms: O_30  and  C_31
REMARK   11  A    between atoms: C_31  and  C_32
REMARK                            x       y       z     vdW  Elec       q    Type
REMARK                         _______ _______ _______ _____ _____    ______ ____
ROOT
ATOM      1  C   UNL     1       0.727  -8.085  -2.447  0.00  0.00    +0.060 C 
ATOM      2  C   UNL     1       0.901  -8.633  -3.658  0.00  0.00    +0.018 C 
ATOM      3  N   UNL     1       1.355  -9.919  -3.821  0.00  0.00    -0.287 N 
ATOM      4  C   UNL     1       1.385 -10.733  -2.697  0.00  0.00    +0.218 A 
ATOM      5  N   UNL     1       1.554 -12.023  -2.596  0.00  0.00    -0.201 NA
ATOM      6  C   UNL     1       1.504 -12.381  -1.309  0.00  0.00    +0.247 A 
ATOM      7  N   UNL     1       1.303 -11.316  -0.573  0.00  0.00    -0.156 NA
ATOM      8  N   UNL     1       1.226 -10.233  -1.447  0.00  0.00    -0.221 N 
ATOM      9  C   UNL     1       1.028  -8.812  -1.164  0.00  0.00    +0.177 C 
ATOM     10  C   UNL     1       0.586  -7.812  -4.882  0.00  0.00    +0.061 C 
ATOM     11  H   UNL     1       1.644 -10.245  -4.688  0.00  0.00    +0.155 HD
ENDROOT
BRANCH   9  12
ATOM     12  C   UNL     1       2.276  -8.240  -0.543  0.00  0.00    -0.015 A 
ATOM     13  C   UNL     1       3.490  -8.363  -1.195  0.00  0.00    +0.010 A 
ATOM     14  C   UNL     1       4.638  -7.840  -0.629  0.00  0.00    +0.050 A 
ATOM     15  C   UNL     1       4.574  -7.190   0.593  0.00  0.00    +0.162 A 
ATOM     16  C   UNL     1       3.353  -7.066   1.248  0.00  0.00    +0.162 A 
ATOM     17  C   UNL     1       2.205  -7.589   0.674  0.00  0.00    +0.055 A 
BRANCH  16  18
ATOM     18  O   UNL     1       3.285  -6.429   2.448  0.00  0.00    -0.491 OA
ATOM     19  C   UNL     1       1.999  -6.346   3.067  0.00  0.00    +0.277 C 
ENDBRANCH  16  18
BRANCH  15  20
ATOM     20  O   UNL     1       5.702  -6.675   1.151  0.00  0.00    -0.484 OA
BRANCH  20  21
ATOM     21  C   UNL     1       6.920  -6.840   0.421  0.00  0.00    +0.264 C 
BRANCH  21  22
ATOM     22  C   UNL     1       8.054  -6.211   1.188  0.00  0.00    -0.010 A 
ATOM     23  C   UNL     1       8.375  -4.882   0.982  0.00  0.00    +0.007 A 
ATOM     24  C   UNL     1       9.415  -4.305   1.686  0.00  0.00    +0.000 A 
ATOM     25  C   UNL     1      10.134  -5.056   2.596  0.00  0.00    +0.000 A 
ATOM     26  C   UNL     1       9.813  -6.385   2.803  0.00  0.00    +0.000 A 
ATOM     27  C   UNL     1       8.770  -6.961   2.103  0.00  0.00    +0.007 A 
ENDBRANCH  21  22
ENDBRANCH  20  21
ENDBRANCH  15  20
ENDBRANCH   9  12
BRANCH   1  29
ATOM     28  N   UNL     1       1.066  -5.724  -2.637  0.00  0.00    -0.281 N 
ATOM     29  C   UNL     1       0.243  -6.758  -2.372  0.00  0.00    +0.248 C 
ATOM     30  O   UNL     1      -0.918  -6.549  -2.067  0.00  0.00    -0.270 OA
ATOM     31  H   UNL     1       1.960  -5.890  -2.973  0.00  0.00    +0.155 HD
BRANCH  28  36
ATOM     32  C   UNL     1      -0.702  -0.401  -1.787  0.00  0.00    +0.044 C 
ATOM     33  C   UNL     1      -0.232  -1.815  -2.013  0.00  0.00    -0.050 A 
ATOM     34  C   UNL     1      -1.143  -2.799  -2.351  0.00  0.00    +0.005 A 
ATOM     35  C   UNL     1      -0.716  -4.096  -2.558  0.00  0.00    +0.024 A 
ATOM     36  C   UNL     1       0.630  -4.412  -2.428  0.00  0.00    +0.037 A 
ATOM     37  C   UNL     1       1.542  -3.421  -2.088  0.00  0.00    -0.029 A 
ATOM     38  C   UNL     1       1.110  -2.125  -1.887  0.00  0.00    +0.008 A 
ATOM     39  C   UNL     1       3.004  -3.759  -1.945  0.00  0.00    +0.045 C 
ENDBRANCH  28  36
ENDBRANCH   1  29
TORSDOF 7
