REMARK  Name = ZINC67654563
REMARK  8 active torsions:
REMARK  status: ('A' for Active; 'I' for Inactive)
REMARK    1  A    between atoms: C_1  and  C_2
REMARK    2  A    between atoms: C_6  and  C_25
REMARK    3  A    between atoms: C_7  and  O_8
REMARK    4  A    between atoms: O_8  and  C_9
REMARK    5  A    between atoms: C_10  and  C_15
REMARK    6  A    between atoms: C_15  and  N_16
REMARK    7  A    between atoms: C_20  and  C_24
REMARK    8  A    between atoms: C_21  and  N_23
REMARK                            x       y       z     vdW  Elec       q    Type
REMARK                         _______ _______ _______ _____ _____    ______ ____
ROOT
ATOM      1  C   UNL     1      -1.172   0.265   2.946  0.00  0.00    +0.225 A 
ATOM      2  C   UNL     1      -1.210   0.955   4.151  0.00  0.00    +0.032 A 
ATOM      3  C   UNL     1      -2.438   1.254   4.717  0.00  0.00    +0.012 A 
ATOM      4  C   UNL     1      -3.588   0.849   4.054  0.00  0.00    +0.020 A 
ATOM      5  C   UNL     1      -3.475   0.166   2.860  0.00  0.00    +0.114 A 
ATOM      6  N   UNL     1      -2.291  -0.100   2.342  0.00  0.00    -0.221 NA
ENDROOT
BRANCH   1   7
ATOM      7  O   UNL     1       0.025  -0.034   2.381  0.00  0.00    -0.437 OA
BRANCH   7  14
ATOM      8  C   UNL     1      -0.018   1.503   0.010  0.00  0.00    +0.047 C 
ATOM      9  C   UNL     1       0.002  -0.004   0.002  0.00  0.00    -0.008 A 
ATOM     10  C   UNL     1       0.006  -0.689  -1.198  0.00  0.00    +0.007 A 
ATOM     11  C   UNL     1       0.024  -2.071  -1.206  0.00  0.00    +0.001 A 
ATOM     12  C   UNL     1       0.040  -2.772  -0.014  0.00  0.00    +0.007 A 
ATOM     13  C   UNL     1       0.036  -2.092   1.188  0.00  0.00    -0.008 A 
ATOM     14  C   UNL     1       0.023  -0.705   1.199  0.00  0.00    +0.136 A 
ATOM     15  C   UNL     1       0.052  -2.857   2.487  0.00  0.00    +0.047 C 
ENDBRANCH   7  14
ENDBRANCH   1   7
BRANCH   2  16
ATOM     16  C   UNL     1       0.067   1.373   4.833  0.00  0.00    +0.145 C 
BRANCH  16  17
ATOM     17  N   UNL     1       0.583   2.590   4.200  0.00  0.00    -0.311 N 
ATOM     18  C   UNL     1       1.755   3.165   4.659  0.00  0.00    +0.195 A 
ATOM     19  N   UNL     1       2.400   2.599   5.669  0.00  0.00    -0.334 N 
ATOM     20  C   UNL     1       3.525   3.120   6.136  0.00  0.00    +0.092 A 
ATOM     21  C   UNL     1       4.028   4.270   5.558  0.00  0.00    +0.005 A 
ATOM     22  C   UNL     1       3.327   4.843   4.496  0.00  0.00    +0.124 A 
ATOM     23  N   UNL     1       2.207   4.264   4.075  0.00  0.00    -0.201 NA
ATOM     24  C   UNL     1       5.304   4.891   6.064  0.00  0.00    +0.049 C 
ATOM     25  H   UNL     1       0.103   2.991   3.459  0.00  0.00    +0.149 HD
ATOM     26  H   UNL     1       2.043   1.793   6.072  0.00  0.00    +0.168 HD
BRANCH  22  27
ATOM     27  N   UNL     1       3.794   5.996   3.886  0.00  0.00    -0.343 N 
ATOM     28  H   UNL     1       4.614   6.411   4.197  0.00  0.00    +0.144 HD
ATOM     29  H   UNL     1       3.301   6.388   3.148  0.00  0.00    +0.144 HD
ENDBRANCH  22  27
ENDBRANCH  16  17
ENDBRANCH   2  16
TORSDOF 5
