REMARK  Name = ZINC39657494
REMARK  8 active torsions:
REMARK  status: ('A' for Active; 'I' for Inactive)
REMARK    1  A    between atoms: C_1  and  C_2
REMARK    2  A    between atoms: C_2  and  C_3
REMARK    3  A    between atoms: C_3  and  C_5
REMARK    4  A    between atoms: C_3  and  C_11
REMARK    5  A    between atoms: C_15  and  C_24
REMARK    6  A    between atoms: N_26  and  C_27
REMARK    7  A    between atoms: C_27  and  C_28
REMARK    8  A    between atoms: C_28  and  C_29
REMARK                            x       y       z     vdW  Elec       q    Type
REMARK                         _______ _______ _______ _____ _____    ______ ____
ROOT
ATOM      1  C   UNL     1       1.926  -0.001  -1.266  0.00  0.00    +0.223 C 
ATOM      2  O   UNL     1       2.810  -0.797  -1.501  0.00  0.00    -0.275 OA
ATOM      3  N   UNL     1       2.219   1.306  -1.114  0.00  0.00    -0.300 N 
ATOM      4  C   UNL     1       1.276   2.431  -0.913  0.00  0.00    +0.121 C 
ATOM      5  C   UNL     1       1.972   3.344   0.121  0.00  0.00    +0.100 C 
ATOM      6  C   UNL     1       3.469   3.020  -0.013  0.00  0.00    -0.004 C 
ATOM      7  C   UNL     1       3.559   1.942  -1.103  0.00  0.00    +0.115 C 
ATOM      8  C   UNL     1       4.013   2.477   1.305  0.00  0.00    -0.010 C 
ATOM      9  C   UNL     1       5.515   2.216   1.163  0.00  0.00    -0.082 C 
ATOM     10  N   UNL     1       6.199   3.465   0.806  0.00  0.00    +0.379 N 
ATOM     11  C   UNL     1       5.736   3.932  -0.507  0.00  0.00    -0.082 C 
ATOM     12  C   UNL     1       4.243   4.265  -0.435  0.00  0.00    -0.010 C 
ATOM     13  H   UNL     1       5.997   4.167   1.501  0.00  0.00    -0.086 HD
ATOM     14  H   UNL     1       7.194   3.304   0.773  0.00  0.00    -0.086 HD
ENDROOT
BRANCH   5  15
ATOM     15  C   UNL     1       1.715   4.794  -0.201  0.00  0.00    +0.218 C 
ATOM     16  O   UNL     1       1.507   5.132  -1.347  0.00  0.00    -0.275 OA
ATOM     17  N   UNL     1       1.717   5.714   0.783  0.00  0.00    -0.315 N 
ATOM     18  H   UNL     1       1.883   5.443   1.700  0.00  0.00    +0.149 HD
BRANCH  17  19
ATOM     19  C   UNL     1       1.467   7.123   0.470  0.00  0.00    +0.109 C 
BRANCH  19  20
ATOM     20  C   UNL     1       1.525   7.950   1.756  0.00  0.00    +0.061 C 
BRANCH  20  21
ATOM     21  C   UNL     1       1.268   9.399   1.433  0.00  0.00    -0.009 A 
ATOM     22  C   UNL     1       0.091  10.071   1.399  0.00  0.00    +0.011 A 
ATOM     23  C   UNL     1       0.095  11.414   1.074  0.00  0.00    +0.008 A 
ATOM     24  C   UNL     1       1.276  12.021   0.800  0.00  0.00    +0.045 A 
ATOM     25  S   UNL     1       2.436  10.680   1.004  0.00  0.00    -0.102 S 
ENDBRANCH  20  21
ENDBRANCH  19  20
ENDBRANCH  17  19
ENDBRANCH   5  15
BRANCH   1  26
ATOM     26  C   UNL     1       0.500  -0.472  -1.145  0.00  0.00    +0.105 C 
BRANCH  26  27
ATOM     27  C   UNL     1      -0.139  -0.495  -2.510  0.00  0.00    -0.036 A 
ATOM     28  C   UNL     1       0.389  -1.295  -3.506  0.00  0.00    +0.004 A 
ATOM     29  C   UNL     1      -0.197  -1.317  -4.758  0.00  0.00    +0.000 A 
ATOM     30  C   UNL     1      -1.311  -0.539  -5.013  0.00  0.00    +0.000 A 
ATOM     31  C   UNL     1      -1.839   0.260  -4.017  0.00  0.00    +0.000 A 
ATOM     32  C   UNL     1      -1.256   0.279  -2.764  0.00  0.00    +0.004 A 
ENDBRANCH  26  27
BRANCH  26  34
ATOM     33  C   UNL     1       0.995  -1.831   0.892  0.00  0.00    +0.005 C 
ATOM     34  C   UNL     1       0.477  -1.880  -0.547  0.00  0.00    +0.014 C 
ENDBRANCH  26  34
ENDBRANCH   1  26
TORSDOF 7
