REMARK  Name = ZINC12636071
REMARK  11 active torsions:
REMARK  status: ('A' for Active; 'I' for Inactive)
REMARK    1  A    between atoms: C_1  and  C_2
REMARK    2  A    between atoms: C_6  and  N_9
REMARK    3  A    between atoms: C_7  and  C_8
REMARK    4  A    between atoms: N_9  and  C_10
REMARK    5  A    between atoms: C_10  and  C_12
REMARK    6  A    between atoms: C_10  and  C_19
REMARK    7  A    between atoms: N_21  and  C_22
REMARK    8  A    between atoms: C_27  and  C_29
REMARK    9  A    between atoms: N_34  and  C_35
REMARK   10  A    between atoms: C_35  and  C_36
REMARK   11  A    between atoms: C_35  and  C_37
REMARK                            x       y       z     vdW  Elec       q    Type
REMARK                         _______ _______ _______ _____ _____    ______ ____
ROOT
ATOM      1  N   UNL     1      -6.007   2.883  -0.055  0.00  0.00    -0.251 N 
ATOM      2  C   UNL     1      -4.934   3.592   0.347  0.00  0.00    +0.253 C 
ATOM      3  O   UNL     1      -5.031   4.790   0.534  0.00  0.00    -0.270 OA
ENDROOT
BRANCH   2   4
ATOM      4  C   UNL     1      -3.641   2.915   0.561  0.00  0.00    +0.053 A 
ATOM      5  C   UNL     1      -3.149   2.003  -0.386  0.00  0.00    +0.018 A 
ATOM      6  C   UNL     1      -1.943   1.402  -0.149  0.00  0.00    +0.042 A 
ATOM      7  C   UNL     1      -1.248   1.702   1.022  0.00  0.00    +0.096 A 
ATOM      8  C   UNL     1      -2.889   3.171   1.709  0.00  0.00    +0.097 A 
ATOM      9  N   UNL     1      -0.029   1.091   1.267  0.00  0.00    -0.328 N 
ATOM     10  H   UNL     1       0.462   1.298   2.078  0.00  0.00    +0.148 HD
ATOM     11  N   UNL     1      -1.693   2.583   1.966  0.00  0.00    -0.349 N 
ATOM     12  H   UNL     1      -1.157   2.787   2.818  0.00  0.00    +0.167 HD
BRANCH   9  13
ATOM     13  C   UNL     1       0.515   0.130   0.305  0.00  0.00    +0.065 C 
ATOM     14  C   UNL     1       2.038   0.073   0.447  0.00  0.00    +0.027 C 
ATOM     15  C   UNL     1      -0.074  -1.255   0.580  0.00  0.00    +0.027 C 
ENDBRANCH   9  13
ENDBRANCH   2   4
BRANCH   1  21
ATOM     16  C   UNL     1      -6.257  -1.545   2.065  0.00  0.00    +0.044 C 
ATOM     17  C   UNL     1      -6.043  -0.680   0.850  0.00  0.00    -0.046 A 
ATOM     18  C   UNL     1      -5.766  -1.263  -0.373  0.00  0.00    +0.004 A 
ATOM     19  C   UNL     1      -5.568  -0.473  -1.490  0.00  0.00    +0.002 A 
ATOM     20  C   UNL     1      -5.653   0.902  -1.389  0.00  0.00    +0.024 A 
ATOM     21  C   UNL     1      -5.926   1.491  -0.162  0.00  0.00    +0.041 A 
ATOM     22  C   UNL     1      -6.123   0.694   0.959  0.00  0.00    -0.026 A 
ATOM     23  C   UNL     1      -6.426   1.329   2.292  0.00  0.00    +0.046 C 
ENDBRANCH   1  21
BRANCH   1  24
ATOM     24  C   UNL     1      -7.259   3.571  -0.380  0.00  0.00    +0.197 C 
BRANCH  24  25
ATOM     25  C   UNL     1      -7.047   4.462  -1.576  0.00  0.00    -0.018 A 
ATOM     26  C   UNL     1      -6.337   3.996  -2.667  0.00  0.00    +0.009 A 
ATOM     27  C   UNL     1      -6.146   4.810  -3.767  0.00  0.00    +0.038 A 
ATOM     28  C   UNL     1      -6.657   6.097  -3.773  0.00  0.00    +0.123 A 
ATOM     29  C   UNL     1      -7.364   6.564  -2.677  0.00  0.00    +0.038 A 
ATOM     30  C   UNL     1      -7.558   5.746  -1.581  0.00  0.00    +0.009 A 
ATOM     31  F   UNL     1      -6.466   6.896  -4.845  0.00  0.00    -0.205 F 
ENDBRANCH  24  25
BRANCH  24  32
ATOM     32  C   UNL     1      -8.325   2.553  -0.694  0.00  0.00    +0.239 C 
ATOM     33  O   UNL     1      -8.094   1.370  -0.555  0.00  0.00    -0.273 OA
ATOM     34  N   UNL     1      -9.535   2.956  -1.130  0.00  0.00    -0.311 N 
ATOM     35  H   UNL     1      -9.720   3.902  -1.241  0.00  0.00    +0.149 HD
BRANCH  34  36
ATOM     36  C   UNL     1     -10.570   1.966  -1.435  0.00  0.00    +0.073 C 
ATOM     37  C   UNL     1     -10.440   1.499  -2.900  0.00  0.00    +0.022 C 
ATOM     38  C   UNL     1     -11.903   1.320  -3.373  0.00  0.00    +0.002 C 
ATOM     39  C   UNL     1     -12.633   2.501  -2.687  0.00  0.00    +0.002 C 
ATOM     40  C   UNL     1     -11.965   2.603  -1.300  0.00  0.00    +0.022 C 
ENDBRANCH  34  36
ENDBRANCH  24  32
ENDBRANCH   1  24
TORSDOF 7
