REMARK  Name = ZINC20465598
REMARK  6 active torsions:
REMARK  status: ('A' for Active; 'I' for Inactive)
REMARK    1  A    between atoms: N_10  and  C_13
REMARK    2  A    between atoms: C_15  and  C_25
REMARK    3  A    between atoms: C_18  and  C_23
REMARK    4  A    between atoms: C_20  and  O_22
REMARK    5  A    between atoms: C_23  and  O_24
REMARK    6  A    between atoms: C_25  and  N_26
REMARK                            x       y       z     vdW  Elec       q    Type
REMARK                         _______ _______ _______ _____ _____    ______ ____
ROOT
ATOM      1  C   UNL     1      -1.056   3.706  -2.424  0.00  0.00    +0.118 C 
ATOM      2  C   UNL     1      -1.689   5.108  -2.280  0.00  0.00    +0.155 C 
ATOM      3  O   UNL     1      -0.797   5.987  -3.006  0.00  0.00    -0.365 OA
ATOM      4  C   UNL     1      -0.423   5.255  -4.194  0.00  0.00    +0.174 C 
ATOM      5  C   UNL     1      -0.206   3.804  -3.710  0.00  0.00    +0.165 C 
ENDROOT
BRANCH   1  15
ATOM      6  C   UNL     1       3.576   4.173   3.820  0.00  0.00    +0.005 A 
ATOM      7  C   UNL     1       3.304   3.020   4.544  0.00  0.00    +0.018 A 
ATOM      8  C   UNL     1       2.256   2.209   4.156  0.00  0.00    +0.084 A 
ATOM      9  N   UNL     1       1.514   2.517   3.109  0.00  0.00    -0.350 N 
ATOM     10  C   UNL     1       1.742   3.607   2.393  0.00  0.00    +0.099 A 
ATOM     11  C   UNL     1       2.785   4.467   2.724  0.00  0.00    +0.042 A 
ATOM     12  N   UNL     1       0.936   3.893   1.297  0.00  0.00    -0.314 N 
ATOM     13  C   UNL     1      -0.096   2.861   1.119  0.00  0.00    +0.122 C 
ATOM     14  C   UNL     1      -1.009   3.252  -0.045  0.00  0.00    +0.104 C 
ATOM     15  N   UNL     1      -0.204   3.404  -1.266  0.00  0.00    -0.292 NA
ATOM     16  C   UNL     1       0.827   4.436  -1.088  0.00  0.00    +0.104 C 
ATOM     17  C   UNL     1       1.740   4.046   0.076  0.00  0.00    +0.122 C 
ATOM     18  H   UNL     1       0.683   1.861   2.812  0.00  0.00    +0.166 HD
ENDBRANCH   1  15
BRANCH   5  19
ATOM     19  O   UNL     1       1.173   3.574  -3.418  0.00  0.00    -0.388 OA
ATOM     20  H   UNL     1       1.920   3.607  -4.225  0.00  0.00    +0.210 HD
ENDBRANCH   5  19
BRANCH   4  21
ATOM     21  C   UNL     1       0.871   5.818  -4.784  0.00  0.00    +0.190 C 
BRANCH  21  22
ATOM     22  O   UNL     1       0.621   7.115  -5.330  0.00  0.00    -0.392 OA
ATOM     23  H   UNL     1       1.438   7.681  -5.801  0.00  0.00    +0.210 HD
ENDBRANCH  21  22
ENDBRANCH   4  21
BRANCH   2  24
ATOM     24  C   UNL     1      -1.757   5.513  -0.806  0.00  0.00    +0.139 C 
BRANCH  24  25
ATOM     25  N   UNL     1      -2.213   6.901  -0.702  0.00  0.00    -0.297 N 
ATOM     26  C   UNL     1      -2.349   7.476   0.509  0.00  0.00    +0.302 C 
ATOM     27  O   UNL     1      -2.010   6.875   1.509  0.00  0.00    -0.253 OA
ATOM     28  N   UNL     1      -2.863   8.718   0.611  0.00  0.00    -0.281 N 
ATOM     29  C   UNL     1      -3.135   9.320   1.926  0.00  0.00    +0.137 C 
ATOM     30  C   UNL     1      -2.490  10.715   1.958  0.00  0.00    +0.179 C 
ATOM     31  O   UNL     1      -2.926  11.459   0.817  0.00  0.00    -0.377 OA
ATOM     32  C   UNL     1      -2.532  10.894  -0.436  0.00  0.00    +0.179 C 
ATOM     33  C   UNL     1      -3.174   9.511  -0.590  0.00  0.00    +0.137 C 
ATOM     34  H   UNL     1      -2.443   7.474  -1.613  0.00  0.00    +0.150 HD
ENDBRANCH  24  25
ENDBRANCH   2  24
TORSDOF 6
