REMARK  Name = ZINC21022310
REMARK  8 active torsions:
REMARK  status: ('A' for Active; 'I' for Inactive)
REMARK    1  A    between atoms: C_1  and  C_2
REMARK    2  A    between atoms: C_2  and  C_4
REMARK    3  A    between atoms: C_2  and  N_21
REMARK    4  A    between atoms: C_8  and  S_10
REMARK    5  A    between atoms: S_10  and  N_13
REMARK    6  A    between atoms: N_13  and  C_14
REMARK    7  A    between atoms: C_14  and  C_15
REMARK    8  A    between atoms: C_15  and  C_16
REMARK                            x       y       z     vdW  Elec       q    Type
REMARK                         _______ _______ _______ _____ _____    ______ ____
ROOT
ATOM      1  C   UNL     1       6.328   3.131  -5.032  0.00  0.00    -0.060 A 
ATOM      2  C   UNL     1       5.259   3.374  -5.875  0.00  0.00    +0.002 A 
ATOM      3  C   UNL     1       4.127   2.584  -5.801  0.00  0.00    +0.002 A 
ATOM      4  C   UNL     1       4.066   1.548  -4.888  0.00  0.00    +0.028 A 
ATOM      5  C   UNL     1       5.132   1.309  -4.041  0.00  0.00    +0.105 A 
ATOM      6  C   UNL     1       6.264   2.099  -4.115  0.00  0.00    +0.030 A 
ENDROOT
BRANCH   5   7
ATOM      7  S   UNL     1       5.052  -0.008  -2.873  0.00  0.00    +0.058 S 
ATOM      8  O   UNL     1       6.394  -0.370  -2.577  0.00  0.00    -0.153 OA
ATOM      9  O   UNL     1       4.104  -0.940  -3.376  0.00  0.00    -0.153 OA
BRANCH   7  10
ATOM     10  N   UNL     1       4.410   0.614  -1.478  0.00  0.00    -0.190 NA
ATOM     11  H   UNL     1       5.072   0.803  -0.620  0.00  0.00    +0.148 HD
BRANCH  10  12
ATOM     12  C   UNL     1       3.031   1.107  -1.463  0.00  0.00    +0.111 C 
BRANCH  12  13
ATOM     13  C   UNL     1       2.565   1.272  -0.015  0.00  0.00    +0.059 C 
BRANCH  13  14
ATOM     14  C   UNL     1       1.146   1.780   0.001  0.00  0.00    -0.009 A 
ATOM     15  C   UNL     1      -0.013   1.076   0.008  0.00  0.00    +0.011 A 
ATOM     16  C   UNL     1      -1.213   1.761   0.017  0.00  0.00    +0.008 A 
ATOM     17  C   UNL     1      -1.196   3.116   0.030  0.00  0.00    +0.045 A 
ATOM     18  S   UNL     1       0.555   3.464   0.015  0.00  0.00    -0.102 S 
ENDBRANCH  13  14
ENDBRANCH  12  13
ENDBRANCH  10  12
ENDBRANCH   7  10
ENDBRANCH   5   7
BRANCH   1  20
ATOM     19  C   UNL     1       7.318   5.304  -4.364  0.00  0.00    -0.009 C 
ATOM     20  C   UNL     1       7.562   3.993  -5.113  0.00  0.00    -0.047 C 
BRANCH  20  21
ATOM     21  N   UNL     1       7.866   4.282  -6.521  0.00  0.00    +0.382 N 
ATOM     22  H   UNL     1       8.041   3.339  -7.059  0.00  0.00    -0.089 HD
ATOM     23  H   UNL     1       8.766   4.910  -6.580  0.00  0.00    -0.089 HD
ATOM     24  H   UNL     1       7.017   4.812  -6.978  0.00  0.00    -0.089 HD
ENDBRANCH  20  21
ENDBRANCH   1  20
TORSDOF 7
