REMARK  Name = ZINC38337186
REMARK  9 active torsions:
REMARK  status: ('A' for Active; 'I' for Inactive)
REMARK    1  A    between atoms: C_1  and  C_2
REMARK    2  A    between atoms: C_2  and  O_37
REMARK    3  A    between atoms: C_7  and  O_36
REMARK    4  A    between atoms: C_13  and  O_34
REMARK    5  A    between atoms: C_16  and  O_20
REMARK    6  A    between atoms: C_21  and  N_31
REMARK    7  A    between atoms: C_25  and  C_28
REMARK    8  A    between atoms: N_31  and  C_32
REMARK    9  A    between atoms: N_31  and  C_33
REMARK                            x       y       z     vdW  Elec       q    Type
REMARK                         _______ _______ _______ _____ _____    ______ ____
ROOT
ATOM      1  C   UNL     1       0.091   1.473  -0.027  0.00  0.00    +0.047 C 
ATOM      2  C   UNL     1       0.083  -0.057  -0.008  0.00  0.00    +0.095 C 
ATOM      3  C   UNL     1       0.660  -0.572  -1.299  0.00  0.00    -0.002 A 
ATOM      4  C   UNL     1       0.388   0.104  -2.473  0.00  0.00    +0.007 A 
ATOM      5  C   UNL     1       0.903  -0.344  -3.678  0.00  0.00    +0.004 A 
ATOM      6  C   UNL     1       1.696  -1.474  -3.727  0.00  0.00    +0.046 A 
ATOM      7  C   UNL     1       1.983  -2.168  -2.561  0.00  0.00    +0.128 A 
ATOM      8  C   UNL     1       1.463  -1.715  -1.338  0.00  0.00    +0.065 A 
ATOM      9  C   UNL     1       1.771  -2.447  -0.098  0.00  0.00    +0.178 C 
ATOM     10  O   UNL     1       2.626  -3.307  -0.069  0.00  0.00    -0.291 OA
ATOM     11  C   UNL     1       0.976  -2.083   1.139  0.00  0.00    +0.138 C 
ATOM     12  C   UNL     1       1.720  -2.552   2.368  0.00  0.00    +0.184 C 
ATOM     13  C   UNL     1       1.254  -2.056   3.719  0.00  0.00    +0.194 C 
ATOM     14  C   UNL     1       1.114  -0.537   3.676  0.00  0.00    +0.089 C 
ATOM     15  C   UNL     1       0.227  -0.123   2.501  0.00  0.00    +0.130 C 
ATOM     16  C   UNL     1       0.897  -0.549   1.185  0.00  0.00    +0.072 C 
ATOM     17  C   UNL     1       0.479  -0.041   4.980  0.00  0.00    +0.137 C 
ATOM     18  C   UNL     1      -0.906  -0.645   5.077  0.00  0.00    +0.189 C 
ATOM     19  O   UNL     1      -1.858   0.019   5.434  0.00  0.00    -0.290 OA
ATOM     20  C   UNL     1      -1.057  -2.060   4.726  0.00  0.00    +0.126 C 
ATOM     21  C   UNL     1      -0.040  -2.720   4.081  0.00  0.00    +0.211 C 
ATOM     22  O   UNL     1      -0.211  -4.011   3.763  0.00  0.00    -0.288 OA
ATOM     23  O   UNL     1       2.661  -3.303   2.274  0.00  0.00    -0.293 OA
ENDROOT
BRANCH  20  24
ATOM     24  C   UNL     1      -2.299  -2.774   5.064  0.00  0.00    +0.248 C 
ATOM     25  O   UNL     1      -2.469  -3.916   4.678  0.00  0.00    -0.270 OA
ATOM     26  N   UNL     1      -3.248  -2.164   5.800  0.00  0.00    -0.325 N 
ATOM     27  H   UNL     1      -3.146  -1.231   6.047  0.00  0.00    +0.145 HD
ATOM     28  H   UNL     1      -4.035  -2.656   6.083  0.00  0.00    +0.145 HD
ENDBRANCH  20  24
BRANCH  17  29
ATOM     29  N   UNL     1       1.292  -0.471   6.125  0.00  0.00    -0.298 NA
ATOM     30  C   UNL     1       2.611   0.177   6.107  0.00  0.00    +0.105 C 
ATOM     31  C   UNL     1       0.596  -0.213   7.392  0.00  0.00    +0.105 C 
ENDBRANCH  17  29
BRANCH  15  32
ATOM     32  O   UNL     1       0.060   1.296   2.508  0.00  0.00    -0.391 OA
ATOM     33  H   UNL     1      -0.352   1.640   3.312  0.00  0.00    +0.210 HD
ENDBRANCH  15  32
BRANCH  13  34
ATOM     34  O   UNL     1       2.238  -2.391   4.699  0.00  0.00    -0.373 OA
ATOM     35  H   UNL     1       2.459  -3.332   4.729  0.00  0.00    +0.211 HD
ENDBRANCH  13  34
BRANCH   7  36
ATOM     36  O   UNL     1       2.760  -3.279  -2.602  0.00  0.00    -0.506 OA
ATOM     37  H   UNL     1       3.704  -3.102  -2.494  0.00  0.00    +0.292 HD
ENDBRANCH   7  36
BRANCH   2  38
ATOM     38  O   UNL     1      -1.264  -0.518   0.121  0.00  0.00    -0.384 OA
ATOM     39  H   UNL     1      -1.847  -0.235  -0.598  0.00  0.00    +0.211 HD
ENDBRANCH   2  38
TORSDOF 6
