REMARK  Name = ZINC39951175
REMARK  7 active torsions:
REMARK  status: ('A' for Active; 'I' for Inactive)
REMARK    1  A    between atoms: C_1  and  C_2
REMARK    2  A    between atoms: C_2  and  C_3
REMARK    3  A    between atoms: C_3  and  C_4
REMARK    4  A    between atoms: C_9  and  C_28
REMARK    5  A    between atoms: C_15  and  C_17
REMARK    6  A    between atoms: C_18  and  C_27
REMARK    7  A    between atoms: C_28  and  C_29
REMARK                            x       y       z     vdW  Elec       q    Type
REMARK                         _______ _______ _______ _____ _____    ______ ____
ROOT
ATOM      1  C   UNL     1       0.590  -2.180  -1.210  0.00  0.00    +0.055 C 
ATOM      2  C   UNL     1       1.452  -2.619  -0.037  0.00  0.00    +0.102 C 
ATOM      3  N   UNL     1       1.900  -3.982  -0.028  0.00  0.00    -0.281 NA
ATOM      4  C   UNL     1       1.067  -4.998   0.572  0.00  0.00    +0.087 C 
ATOM      5  C   UNL     1      -0.397  -4.852   0.354  0.00  0.00    +0.031 C 
ATOM      6  C   UNL     1      -0.796  -4.314  -0.986  0.00  0.00    +0.043 C 
ATOM      7  C   UNL     1      -0.784  -2.819  -1.050  0.00  0.00    +0.149 C 
ATOM      8  O   UNL     1      -1.794  -2.163  -0.967  0.00  0.00    -0.296 OA
ATOM      9  C   UNL     1       0.056  -4.892  -2.114  0.00  0.00    +0.100 C 
ATOM     10  N   UNL     1       1.310  -4.192  -2.337  0.00  0.00    -0.280 NA
ATOM     11  C   UNL     1       1.147  -2.729  -2.533  0.00  0.00    +0.102 C 
ATOM     12  C   UNL     1       2.356  -4.455  -1.349  0.00  0.00    +0.176 C 
ENDROOT
BRANCH  12  13
ATOM     13  C   UNL     1       2.630  -5.936  -1.287  0.00  0.00    +0.060 A 
ATOM     14  C   UNL     1       3.397  -6.443  -0.298  0.00  0.00    +0.036 A 
ATOM     15  C   UNL     1       3.639  -7.838  -0.261  0.00  0.00    +0.257 A 
ATOM     16  O   UNL     1       4.327  -8.318   0.622  0.00  0.00    -0.267 OA
ATOM     17  N   UNL     1       3.101  -8.628  -1.211  0.00  0.00    -0.275 N 
ATOM     18  H   UNL     1       3.262  -9.585  -1.192  0.00  0.00    +0.173 HD
ATOM     19  C   UNL     1       2.340  -8.096  -2.185  0.00  0.00    +0.327 A 
ATOM     20  O   UNL     1       1.861  -8.822  -3.036  0.00  0.00    -0.247 OA
ATOM     21  N   UNL     1       2.098  -6.774  -2.229  0.00  0.00    -0.308 N 
ATOM     22  H   UNL     1       1.543  -6.410  -2.937  0.00  0.00    +0.170 HD
ATOM     23  C   UNL     1       3.987  -5.537   0.752  0.00  0.00    +0.051 C 
ENDBRANCH  12  13
BRANCH   6  24
ATOM     24  C   UNL     1      -2.235  -4.766  -1.246  0.00  0.00    +0.012 C 
ATOM     25  C   UNL     1      -2.273  -6.289  -1.385  0.00  0.00    +0.005 C 
ENDBRANCH   6  24
BRANCH   1  26
ATOM     26  C   UNL     1       0.478  -0.655  -1.259  0.00  0.00    +0.017 C 
BRANCH  26  28
ATOM     27  C   UNL     1      -0.266   1.377  -0.010  0.00  0.00    +0.004 C 
ATOM     28  C   UNL     1      -0.154  -0.148   0.039  0.00  0.00    -0.002 C 
ENDBRANCH  26  28
ENDBRANCH   1  26
TORSDOF 4
