REMARK  Name = ZINC46556756
REMARK  10 active torsions:
REMARK  status: ('A' for Active; 'I' for Inactive)
REMARK    1  A    between atoms: C_1  and  N_2
REMARK    2  A    between atoms: N_2  and  C_3
REMARK    3  A    between atoms: N_2  and  C_15
REMARK    4  A    between atoms: C_3  and  C_4
REMARK    5  A    between atoms: N_6  and  C_7
REMARK    6  A    between atoms: C_12  and  S_13
REMARK    7  A    between atoms: S_13  and  C_14
REMARK    8  A    between atoms: C_15  and  C_16
REMARK    9  A    between atoms: N_21  and  C_22
REMARK   10  A    between atoms: C_25  and  C_28
REMARK                            x       y       z     vdW  Elec       q    Type
REMARK                         _______ _______ _______ _____ _____    ______ ____
ROOT
ATOM      1  C   UNL     1       0.438  -0.950  -1.127  0.00  0.00    +0.019 C 
ENDROOT
BRANCH   1   2
ATOM      2  C   UNL     1      -0.551  -0.514  -2.177  0.00  0.00    +0.204 C 
ATOM      3  O   UNL     1      -1.644  -0.105  -1.848  0.00  0.00    -0.277 OA
ATOM      4  N   UNL     1      -0.220  -0.578  -3.482  0.00  0.00    -0.241 N 
ATOM      5  C   UNL     1      -1.105  -0.189  -4.421  0.00  0.00    +0.310 C 
ATOM      6  O   UNL     1      -2.200   0.221  -4.092  0.00  0.00    -0.252 OA
ATOM      7  N   UNL     1      -0.774  -0.253  -5.726  0.00  0.00    -0.269 N 
ATOM      8  H   UNL     1       0.654  -0.905  -3.745  0.00  0.00    +0.159 HD
ATOM      9  H   UNL     1       0.070  -0.649  -5.994  0.00  0.00    +0.156 HD
BRANCH   7  10
ATOM     10  C   UNL     1      -1.647   0.249  -6.693  0.00  0.00    +0.035 A 
ATOM     11  C   UNL     1      -2.425   1.367  -6.411  0.00  0.00    +0.024 A 
ATOM     12  C   UNL     1      -3.287   1.865  -7.362  0.00  0.00    +0.020 A 
ATOM     13  C   UNL     1      -3.379   1.247  -8.612  0.00  0.00    +0.052 A 
ATOM     14  C   UNL     1      -2.595   0.124  -8.892  0.00  0.00    +0.020 A 
ATOM     15  C   UNL     1      -1.732  -0.366  -7.938  0.00  0.00    +0.024 A 
BRANCH  13  16
ATOM     16  C   UNL     1      -4.275   1.762  -9.603  0.00  0.00    +0.099 C 
ATOM     17  N   UNL     1      -4.986   2.170 -10.390  0.00  0.00    -0.191 NA
ENDBRANCH  13  16
ENDBRANCH   7  10
ENDBRANCH   1   2
BRANCH   1  19
ATOM     18  C   UNL     1      -0.393   0.644   0.462  0.00  0.00    -0.095 C 
ATOM     19  N   UNL     1      -0.158  -0.783   0.205  0.00  0.00    +0.389 N 
ATOM     20  H   UNL     1      -1.034  -1.281   0.247  0.00  0.00    -0.081 HD
BRANCH  19  21
ATOM     21  C   UNL     1       0.758  -1.319   1.222  0.00  0.00    +0.019 C 
BRANCH  21  22
ATOM     22  C   UNL     1       0.097  -1.260   2.575  0.00  0.00    +0.201 C 
ATOM     23  O   UNL     1      -1.027  -0.817   2.682  0.00  0.00    -0.278 OA
ATOM     24  N   UNL     1       0.754  -1.702   3.665  0.00  0.00    -0.286 N 
ATOM     25  H   UNL     1       1.626  -2.118   3.571  0.00  0.00    +0.155 HD
BRANCH  24  26
ATOM     26  C   UNL     1       0.179  -1.559   4.935  0.00  0.00    +0.047 A 
ATOM     27  C   UNL     1      -1.197  -1.625   5.087  0.00  0.00    +0.024 A 
ATOM     28  C   UNL     1      -1.763  -1.485   6.340  0.00  0.00    +0.002 A 
ATOM     29  C   UNL     1      -0.960  -1.278   7.447  0.00  0.00    +0.001 A 
ATOM     30  C   UNL     1       0.414  -1.210   7.306  0.00  0.00    +0.016 A 
ATOM     31  C   UNL     1       0.990  -1.356   6.052  0.00  0.00    +0.029 A 
BRANCH  31  32
ATOM     32  S   UNL     1       2.741  -1.278   5.870  0.00  0.00    -0.127 S 
ATOM     33  C   UNL     1       3.346  -1.008   7.559  0.00  0.00    +0.090 C 
ENDBRANCH  31  32
ENDBRANCH  24  26
ENDBRANCH  21  22
ENDBRANCH  19  21
ENDBRANCH   1  19
TORSDOF 8
