REMARK  Name = ZINC08635932
REMARK  7 active torsions:
REMARK  status: ('A' for Active; 'I' for Inactive)
REMARK    1  A    between atoms: C_1  and  C_2
REMARK    2  A    between atoms: C_4  and  C_33
REMARK    3  A    between atoms: C_6  and  C_8
REMARK    4  A    between atoms: C_16  and  C_18
REMARK    5  A    between atoms: C_18  and  N_19
REMARK    6  A    between atoms: N_22  and  C_23
REMARK    7  A    between atoms: C_27  and  C_29
REMARK                            x       y       z     vdW  Elec       q    Type
REMARK                         _______ _______ _______ _____ _____    ______ ____
ROOT
ATOM      1  C   UNL     1      -1.182  -0.722  -0.253  0.00  0.00    +0.024 C 
ATOM      2  C   UNL     1      -2.133  -0.114   0.781  0.00  0.00    -0.068 C 
ATOM      3  C   UNL     1      -4.064  -0.927  -0.435  0.00  0.00    -0.078 C 
ATOM      4  C   UNL     1      -3.167  -1.558  -1.504  0.00  0.00    -0.015 C 
ATOM      5  C   UNL     1      -1.878  -0.735  -1.619  0.00  0.00    -0.007 C 
ATOM      6  C   UNL     1      -2.251   0.706  -1.992  0.00  0.00    -0.010 C 
ATOM      7  C   UNL     1      -3.173   1.274  -0.910  0.00  0.00    -0.051 C 
ATOM      8  N   UNL     1      -3.413   0.266   0.145  0.00  0.00    +0.383 N 
ATOM      9  H   UNL     1      -4.032   0.670   0.858  0.00  0.00    -0.081 HD
ENDROOT
BRANCH   1  15
ATOM     10  C   UNL     1       1.946   2.396   1.846  0.00  0.00    +0.088 C 
ATOM     11  C   UNL     1       1.553   1.576   0.644  0.00  0.00    +0.127 A 
ATOM     12  N   UNL     1       2.313   1.612  -0.430  0.00  0.00    -0.232 NA
ATOM     13  C   UNL     1       1.995   0.898  -1.511  0.00  0.00    +0.081 A 
ATOM     14  C   UNL     1       0.837   0.110  -1.485  0.00  0.00    +0.052 A 
ATOM     15  C   UNL     1       0.074   0.108  -0.334  0.00  0.00    +0.047 A 
ATOM     16  N   UNL     1       0.458   0.844   0.699  0.00  0.00    -0.237 NA
BRANCH  13  17
ATOM     17  C   UNL     1       2.849   0.938  -2.714  0.00  0.00    +0.038 A 
ATOM     18  C   UNL     1       4.053   1.566  -2.898  0.00  0.00    +0.017 A 
ATOM     19  C   UNL     1       4.673   1.462  -4.122  0.00  0.00    +0.008 A 
ATOM     20  C   UNL     1       4.075   0.743  -5.109  0.00  0.00    +0.046 A 
ATOM     21  S   UNL     1       2.584   0.175  -4.307  0.00  0.00    -0.095 S 
ENDBRANCH  13  17
ENDBRANCH   1  15
BRANCH   7  22
ATOM     22  C   UNL     1      -2.523   2.508  -0.280  0.00  0.00    +0.090 C 
BRANCH  22  23
ATOM     23  N   UNL     1      -3.351   2.982   0.832  0.00  0.00    -0.301 N 
ATOM     24  C   UNL     1      -2.924   4.002   1.603  0.00  0.00    +0.304 C 
ATOM     25  O   UNL     1      -1.897   4.588   1.322  0.00  0.00    -0.253 OA
ATOM     26  N   UNL     1      -3.636   4.372   2.685  0.00  0.00    -0.269 N 
ATOM     27  H   UNL     1      -4.207   2.563   1.013  0.00  0.00    +0.150 HD
ATOM     28  H   UNL     1      -4.414   3.858   2.953  0.00  0.00    +0.156 HD
BRANCH  26  29
ATOM     29  C   UNL     1      -3.253   5.498   3.423  0.00  0.00    +0.035 A 
ATOM     30  C   UNL     1      -2.696   6.595   2.780  0.00  0.00    +0.023 A 
ATOM     31  C   UNL     1      -2.320   7.705   3.511  0.00  0.00    +0.002 A 
ATOM     32  C   UNL     1      -2.497   7.724   4.882  0.00  0.00    +0.012 A 
ATOM     33  C   UNL     1      -3.052   6.633   5.526  0.00  0.00    +0.057 A 
ATOM     34  C   UNL     1      -3.435   5.522   4.800  0.00  0.00    +0.035 A 
BRANCH  33  35
ATOM     35  C   UNL     1      -3.244   6.658   7.020  0.00  0.00    +0.417 C 
ATOM     36  F   UNL     1      -2.789   7.880   7.528  0.00  0.00    -0.166 F 
ATOM     37  F   UNL     1      -4.602   6.506   7.319  0.00  0.00    -0.166 F 
ATOM     38  F   UNL     1      -2.518   5.613   7.601  0.00  0.00    -0.166 F 
ENDBRANCH  33  35
ENDBRANCH  26  29
ENDBRANCH  22  23
ENDBRANCH   7  22
TORSDOF 6
