REMARK  Name = ZINC44737051
REMARK  8 active torsions:
REMARK  status: ('A' for Active; 'I' for Inactive)
REMARK    1  A    between atoms: C_1  and  C_2
REMARK    2  A    between atoms: C_9  and  C_11
REMARK    3  A    between atoms: C_11  and  C_13
REMARK    4  A    between atoms: C_11  and  N_14
REMARK    5  A    between atoms: C_15  and  C_17
REMARK    6  A    between atoms: C_28  and  C_30
REMARK    7  A    between atoms: C_34  and  O_36
REMARK    8  A    between atoms: O_36  and  C_37
REMARK                            x       y       z     vdW  Elec       q    Type
REMARK                         _______ _______ _______ _____ _____    ______ ____
ROOT
ATOM      1  C   UNL     1       2.052  -9.042   0.391  0.00  0.00    +0.100 C 
ATOM      2  C   UNL     1       3.134  -8.144  -0.250  0.00  0.00    +0.121 C 
ATOM      3  N   UNL     1       4.354  -8.397   0.552  0.00  0.00    -0.296 N 
ATOM      4  C   UNL     1       4.321  -9.854   0.823  0.00  0.00    +0.115 C 
ATOM      5  C   UNL     1       2.835 -10.165   1.091  0.00  0.00    -0.004 C 
ATOM      6  C   UNL     1       2.463 -11.519   0.496  0.00  0.00    -0.010 C 
ATOM      7  C   UNL     1       3.210 -12.625   1.248  0.00  0.00    -0.082 C 
ATOM      8  N   UNL     1       2.854 -12.579   2.671  0.00  0.00    +0.379 N 
ATOM      9  C   UNL     1       3.299 -11.309   3.257  0.00  0.00    -0.082 C 
ATOM     10  C   UNL     1       2.556 -10.148   2.591  0.00  0.00    -0.010 C 
ATOM     11  C   UNL     1       5.284  -7.504   0.945  0.00  0.00    +0.247 C 
ATOM     12  O   UNL     1       5.107  -6.317   0.751  0.00  0.00    -0.270 OA
ATOM     13  H   UNL     1       1.853 -12.660   2.768  0.00  0.00    -0.086 HD
ATOM     14  H   UNL     1       3.299 -13.345   3.153  0.00  0.00    -0.086 HD
ENDROOT
BRANCH  11  15
ATOM     15  C   UNL     1       6.518  -7.968   1.614  0.00  0.00    +0.040 A 
ATOM     16  C   UNL     1       6.943  -9.289   1.462  0.00  0.00    +0.013 A 
ATOM     17  C   UNL     1       8.095  -9.719   2.087  0.00  0.00    +0.004 A 
ATOM     18  C   UNL     1       8.832  -8.845   2.865  0.00  0.00    +0.045 A 
ATOM     19  C   UNL     1       8.418  -7.529   3.022  0.00  0.00    +0.121 A 
ATOM     20  C   UNL     1       7.266  -7.086   2.393  0.00  0.00    +0.058 A 
BRANCH  19  21
ATOM     21  O   UNL     1       9.146  -6.675   3.788  0.00  0.00    -0.495 OA
ATOM     22  C   UNL     1      10.326  -7.198   4.401  0.00  0.00    +0.277 C 
ENDBRANCH  19  21
ENDBRANCH  11  15
BRANCH   1  24
ATOM     23  N   UNL     1      -0.001  -8.653   1.715  0.00  0.00    -0.305 N 
ATOM     24  C   UNL     1       1.248  -8.258   1.396  0.00  0.00    +0.219 C 
ATOM     25  O   UNL     1       1.724  -7.271   1.917  0.00  0.00    -0.275 OA
ATOM     26  H   UNL     1      -0.381  -9.441   1.298  0.00  0.00    +0.149 HD
BRANCH  23  27
ATOM     27  C   UNL     1      -0.783  -7.891   2.691  0.00  0.00    +0.136 C 
ATOM     28  C   UNL     1      -0.431  -8.360   4.104  0.00  0.00    +0.036 C 
BRANCH  27  37
ATOM     29  C   UNL     1      -8.196  -7.794   2.045  0.00  0.00    +0.044 C 
ATOM     30  C   UNL     1      -6.754  -8.223   1.960  0.00  0.00    -0.048 A 
ATOM     31  C   UNL     1      -6.430  -9.435   1.367  0.00  0.00    +0.005 A 
ATOM     32  C   UNL     1      -5.129  -9.842   1.280  0.00  0.00    +0.030 A 
ATOM     33  C   UNL     1      -4.111  -9.034   1.791  0.00  0.00    +0.089 A 
ATOM     34  C   UNL     1      -4.438  -7.806   2.391  0.00  0.00    +0.067 A 
ATOM     35  C   UNL     1      -5.766  -7.407   2.466  0.00  0.00    +0.031 A 
ATOM     36  N   UNL     1      -3.242  -7.246   2.792  0.00  0.00    -0.340 N 
ATOM     37  C   UNL     1      -2.252  -8.111   2.440  0.00  0.00    +0.128 A 
ATOM     38  N   UNL     1      -2.760  -9.157   1.855  0.00  0.00    -0.231 NA
ATOM     39  H   UNL     1      -3.127  -6.394   3.240  0.00  0.00    +0.167 HD
ENDBRANCH  27  37
ENDBRANCH  23  27
ENDBRANCH   1  24
TORSDOF 5
