REMARK  Name = ZINC12293492
REMARK  7 active torsions:
REMARK  status: ('A' for Active; 'I' for Inactive)
REMARK    1  A    between atoms: C_1  and  C_2
REMARK    2  A    between atoms: C_5  and  C_9
REMARK    3  A    between atoms: C_7  and  C_8
REMARK    4  A    between atoms: C_9  and  C_11
REMARK    5  A    between atoms: C_9  and  O_28
REMARK    6  A    between atoms: C_11  and  N_56
REMARK    7  A    between atoms: C_18  and  O_27
REMARK                            x       y       z     vdW  Elec       q    Type
REMARK                         _______ _______ _______ _____ _____    ______ ____
ROOT
ATOM      1  C   UNL     1      -3.370   4.625  -2.578  0.00  0.00    -0.075 C 
ATOM      2  C   UNL     1      -2.239   5.307  -1.806  0.00  0.00    +0.029 C 
ATOM      3  C   UNL     1      -2.484   5.150  -0.304  0.00  0.00    +0.110 C 
ATOM      4  C   UNL     1      -3.850   5.739   0.053  0.00  0.00    +0.029 C 
ATOM      5  C   UNL     1      -4.934   5.044  -0.775  0.00  0.00    -0.075 C 
ATOM      6  C   UNL     1      -1.389   5.888   0.474  0.00  0.00    +0.084 C 
ATOM      7  C   UNL     1      -0.030   5.354   0.016  0.00  0.00    +0.152 C 
ATOM      8  C   UNL     1      -0.050   3.847   0.019  0.00  0.00    +0.023 A 
ATOM      9  C   UNL     1       1.156   3.165   0.006  0.00  0.00    +0.010 A 
ATOM     10  C   UNL     1       1.175   1.784   0.000  0.00  0.00    +0.001 A 
ATOM     11  C   UNL     1      -0.013   1.076   0.008  0.00  0.00    +0.004 A 
ATOM     12  C   UNL     1      -1.216   1.750   0.017  0.00  0.00    +0.046 A 
ATOM     13  C   UNL     1      -1.240   3.141   0.030  0.00  0.00    +0.127 A 
ATOM     14  O   UNL     1      -2.445   3.769   0.051  0.00  0.00    -0.485 OA
ATOM     15  N   UNL     1      -4.653   5.261  -2.210  0.00  0.00    +0.382 N 
ATOM     16  H   UNL     1      -4.587   6.270  -2.388  0.00  0.00    -0.082 HD
ENDROOT
BRANCH   7  17
ATOM     17  O   UNL     1       0.988   5.819   0.905  0.00  0.00    -0.387 OA
ATOM     18  H   UNL     1       1.878   5.521   0.674  0.00  0.00    +0.210 HD
ENDBRANCH   7  17
BRANCH  15  19
ATOM     19  C   UNL     1      -5.747   4.700  -3.029  0.00  0.00    -0.042 C 
BRANCH  19  20
ATOM     20  C   UNL     1      -7.014   5.524  -2.789  0.00  0.00    +0.128 C 
BRANCH  20  25
ATOM     21  C   UNL     1     -11.428   3.150  -5.667  0.00  0.00    +0.044 C 
ATOM     22  C   UNL     1     -10.277   3.769  -4.916  0.00  0.00    -0.048 A 
ATOM     23  C   UNL     1      -9.368   4.570  -5.582  0.00  0.00    +0.004 A 
ATOM     24  C   UNL     1      -8.312   5.137  -4.894  0.00  0.00    +0.006 A 
ATOM     25  C   UNL     1      -8.165   4.905  -3.539  0.00  0.00    -0.021 A 
ATOM     26  C   UNL     1      -9.071   4.100  -2.874  0.00  0.00    +0.009 A 
ATOM     27  C   UNL     1     -10.130   3.536  -3.562  0.00  0.00    -0.047 A 
ATOM     28  C   UNL     1     -11.120   2.662  -2.836  0.00  0.00    +0.044 C 
ENDBRANCH  20  25
BRANCH  20  29
ATOM     29  O   UNL     1      -6.808   6.860  -3.251  0.00  0.00    -0.389 OA
ATOM     30  H   UNL     1      -6.601   6.923  -4.193  0.00  0.00    +0.210 HD
ENDBRANCH  20  29
ENDBRANCH  19  20
ENDBRANCH  15  19
TORSDOF 5
