REMARK  Name = ZINC14274480
REMARK  8 active torsions:
REMARK  status: ('A' for Active; 'I' for Inactive)
REMARK    1  A    between atoms: C_1  and  C_2
REMARK    2  A    between atoms: C_6  and  C_10
REMARK    3  A    between atoms: C_7  and  O_8
REMARK    4  A    between atoms: O_8  and  C_9
REMARK    5  A    between atoms: N_12  and  C_13
REMARK    6  A    between atoms: C_13  and  N_15
REMARK    7  A    between atoms: N_15  and  C_16
REMARK    8  A    between atoms: C_17  and  C_25
REMARK                            x       y       z     vdW  Elec       q    Type
REMARK                         _______ _______ _______ _____ _____    ______ ____
ROOT
ATOM      1  C   UNL     1       4.744   4.782  -0.016  0.00  0.00    +0.141 C 
ATOM      2  S   UNL     1       4.716   6.494  -0.007  0.00  0.00    -0.018 S 
ENDROOT
BRANCH   1   5
ATOM      3  C   UNL     1       2.410   4.744   0.005  0.00  0.00    +0.253 C 
ATOM      4  O   UNL     1       2.390   5.960   0.011  0.00  0.00    -0.270 OA
ATOM      5  N   UNL     1       3.588   4.090  -0.009  0.00  0.00    -0.263 N 
ATOM      6  H   UNL     1       3.603   3.120  -0.014  0.00  0.00    +0.157 HD
BRANCH   3  12
ATOM      7  C   UNL     1      -2.589   4.663   0.051  0.00  0.00    +0.047 C 
ATOM      8  C   UNL     1      -1.266   3.941   0.034  0.00  0.00    -0.007 A 
ATOM      9  C   UNL     1      -1.235   2.560   0.022  0.00  0.00    +0.022 A 
ATOM     10  C   UNL     1      -0.024   1.887   0.012  0.00  0.00    +0.019 A 
ATOM     11  C   UNL     1       1.163   2.590   0.005  0.00  0.00    +0.032 A 
ATOM     12  C   UNL     1       1.145   3.986   0.012  0.00  0.00    +0.080 A 
ATOM     13  C   UNL     1      -0.083   4.663   0.027  0.00  0.00    +0.135 A 
ATOM     14 BR   UNL     1       0.002  -0.004   0.002  0.00  0.00    -0.050 Br
BRANCH  13  15
ATOM     15  O   UNL     1      -0.113   6.020   0.035  0.00  0.00    -0.494 OA
ATOM     16  C   UNL     1      -0.139   6.675  -1.235  0.00  0.00    +0.277 C 
ENDBRANCH  13  15
ENDBRANCH   3  12
ENDBRANCH   1   5
BRANCH   1  17
ATOM     17  N   UNL     1       5.922   4.128  -0.030  0.00  0.00    -0.291 N 
ATOM     18  H   UNL     1       5.937   3.158  -0.035  0.00  0.00    +0.154 HD
BRANCH  17  19
ATOM     19  C   UNL     1       7.110   4.840  -0.037  0.00  0.00    +0.084 A 
ATOM     20  C   UNL     1       8.409   4.351  -0.046  0.00  0.00    +0.068 A 
ATOM     21  C   UNL     1       9.492   5.320  -0.057  0.00  0.00    -0.023 A 
ATOM     22  C   UNL     1       9.105   6.614  -0.046  0.00  0.00    -0.004 A 
ATOM     23  S   UNL     1       7.336   6.558  -0.030  0.00  0.00    -0.077 S 
ATOM     24  C   UNL     1       9.991   7.821  -0.046  0.00  0.00    +0.043 C 
ATOM     25  C   UNL     1      11.416   7.376   0.317  0.00  0.00    +0.005 C 
ATOM     26  C   UNL     1      11.781   6.154  -0.530  0.00  0.00    +0.005 C 
ATOM     27  C   UNL     1      10.968   4.942  -0.073  0.00  0.00    +0.037 C 
BRANCH  20  28
ATOM     28  C   UNL     1       8.678   2.910  -0.048  0.00  0.00    +0.244 C 
ATOM     29  O   UNL     1       8.784   2.312  -1.103  0.00  0.00    -0.270 OA
ATOM     30  N   UNL     1       8.809   2.247   1.118  0.00  0.00    -0.325 N 
ATOM     31  H   UNL     1       8.725   2.723   1.959  0.00  0.00    +0.145 HD
ATOM     32  H   UNL     1       8.988   1.293   1.117  0.00  0.00    +0.145 HD
ENDBRANCH  20  28
ENDBRANCH  17  19
ENDBRANCH   1  17
TORSDOF 6
