REMARK  Name = ZINC40166800
REMARK  6 active torsions:
REMARK  status: ('A' for Active; 'I' for Inactive)
REMARK    1  A    between atoms: C_1  and  C_2
REMARK    2  A    between atoms: C_2  and  N_9
REMARK    3  A    between atoms: N_12  and  C_13
REMARK    4  A    between atoms: C_16  and  N_19
REMARK    5  A    between atoms: N_22  and  C_23
REMARK    6  A    between atoms: C_23  and  C_30
REMARK                            x       y       z     vdW  Elec       q    Type
REMARK                         _______ _______ _______ _____ _____    ______ ____
ROOT
ATOM      1  C   UNL     1       0.556  -0.047  -4.760  0.00  0.00    +0.035 A 
ATOM      2  C   UNL     1      -0.528   0.817  -4.833  0.00  0.00    +0.025 A 
ATOM      3  C   UNL     1      -0.966   1.272  -6.061  0.00  0.00    +0.025 A 
ATOM      4  C   UNL     1      -0.321   0.868  -7.222  0.00  0.00    +0.035 A 
ATOM      5  C   UNL     1       0.764   0.004  -7.148  0.00  0.00    +0.025 A 
ATOM      6  C   UNL     1       1.204  -0.448  -5.920  0.00  0.00    +0.025 A 
ENDROOT
BRANCH   1  10
ATOM      7  N   UNL     1       2.752  -1.061  -2.073  0.00  0.00    -0.292 N 
ATOM      8  C   UNL     1       2.316  -0.706  -3.297  0.00  0.00    +0.304 C 
ATOM      9  O   UNL     1       3.110  -0.562  -4.207  0.00  0.00    -0.252 OA
ATOM     10  N   UNL     1       1.000  -0.510  -3.514  0.00  0.00    -0.269 N 
ATOM     11  H   UNL     1       2.119  -1.176  -1.347  0.00  0.00    +0.151 HD
ATOM     12  H   UNL     1       0.361  -0.689  -2.807  0.00  0.00    +0.156 HD
BRANCH   7  14
ATOM     13  C   UNL     1       4.671  -2.385  -2.770  0.00  0.00    +0.033 C 
ATOM     14  C   UNL     1       4.182  -1.274  -1.838  0.00  0.00    +0.054 C 
ATOM     15  C   UNL     1       4.928   0.015  -2.179  0.00  0.00    +0.049 C 
ATOM     16  C   UNL     1       5.037   0.923  -0.922  0.00  0.00    +0.168 C 
ATOM     17  S   UNL     1       5.367  -0.364   0.361  0.00  0.00    -0.029 S 
ATOM     18  O   UNL     1       4.768   0.034   1.587  0.00  0.00    -0.174 OA
ATOM     19  O   UNL     1       6.744  -0.711   0.331  0.00  0.00    -0.174 OA
ATOM     20  C   UNL     1       4.380  -1.731  -0.379  0.00  0.00    +0.191 C 
ENDBRANCH   7  14
ENDBRANCH   1  10
BRANCH   4  21
ATOM     21  N   UNL     1      -0.766   1.329  -8.468  0.00  0.00    -0.269 N 
ATOM     22  C   UNL     1      -0.707   0.523  -9.546  0.00  0.00    +0.304 C 
ATOM     23  O   UNL     1      -0.192  -0.575  -9.456  0.00  0.00    -0.252 OA
ATOM     24  N   UNL     1      -1.219   0.932 -10.723  0.00  0.00    -0.292 N 
ATOM     25  H   UNL     1      -1.116   2.230  -8.554  0.00  0.00    +0.156 HD
ATOM     26  H   UNL     1      -1.631   1.808 -10.794  0.00  0.00    +0.151 HD
BRANCH  24  27
ATOM     27  C   UNL     1      -1.155   0.055 -11.895  0.00  0.00    +0.054 C 
ATOM     28  C   UNL     1      -1.821  -1.276 -11.547  0.00  0.00    +0.049 C 
ATOM     29  C   UNL     1      -3.336  -1.226 -11.890  0.00  0.00    +0.168 C 
ATOM     30  S   UNL     1      -3.262  -0.288 -13.479  0.00  0.00    -0.029 S 
ATOM     31  O   UNL     1      -4.421   0.525 -13.596  0.00  0.00    -0.174 OA
ATOM     32  O   UNL     1      -2.918  -1.179 -14.531  0.00  0.00    -0.174 OA
ATOM     33  C   UNL     1      -1.812   0.777 -13.088  0.00  0.00    +0.191 C 
ATOM     34  C   UNL     1       0.314  -0.208 -12.229  0.00  0.00    +0.033 C 
ENDBRANCH  24  27
ENDBRANCH   4  21
TORSDOF 4
