REMARK  Name = ZINC34834483
REMARK  7 active torsions:
REMARK  status: ('A' for Active; 'I' for Inactive)
REMARK    1  A    between atoms: C_1  and  C_2
REMARK    2  A    between atoms: C_2  and  N_3
REMARK    3  A    between atoms: N_3  and  C_4
REMARK    4  A    between atoms: C_4  and  C_5
REMARK    5  A    between atoms: C_10  and  O_11
REMARK    6  A    between atoms: O_11  and  C_12
REMARK    7  A    between atoms: C_15  and  C_18
REMARK                            x       y       z     vdW  Elec       q    Type
REMARK                         _______ _______ _______ _____ _____    ______ ____
ROOT
ATOM      1  C   UNL     1      -2.650  -2.669  -0.032  0.00  0.00    -0.022 A 
ATOM      2  C   UNL     1      -3.060  -3.368   1.088  0.00  0.00    +0.006 A 
ATOM      3  C   UNL     1      -4.161  -4.200   1.020  0.00  0.00    +0.016 A 
ATOM      4  C   UNL     1      -4.856  -4.337  -0.169  0.00  0.00    +0.021 A 
ATOM      5  C   UNL     1      -4.450  -3.640  -1.292  0.00  0.00    +0.061 A 
ATOM      6  C   UNL     1      -3.348  -2.799  -1.224  0.00  0.00    +0.131 A 
ATOM      7 BR   UNL     1      -6.362  -5.477  -0.258  0.00  0.00    -0.050 Br
ENDROOT
BRANCH   1   8
ATOM      8  C   UNL     1      -1.450  -1.761   0.044  0.00  0.00    -0.043 C 
BRANCH   8   9
ATOM      9  N   UNL     1      -1.897  -0.370   0.196  0.00  0.00    +0.382 N 
ATOM     10  H   UNL     1      -2.439  -0.282   1.043  0.00  0.00    -0.085 HD
ATOM     11  H   UNL     1      -2.465  -0.111  -0.596  0.00  0.00    -0.085 HD
BRANCH   9  13
ATOM     12  C   UNL     1      -1.192   1.964   0.429  0.00  0.00    -0.017 C 
ATOM     13  C   UNL     1      -0.727   0.515   0.270  0.00  0.00    -0.086 C 
ENDBRANCH   9  13
ENDBRANCH   8   9
ENDBRANCH   1   8
BRANCH   6  14
ATOM     14  O   UNL     1      -2.950  -2.108  -2.324  0.00  0.00    -0.456 OA
BRANCH  14  15
ATOM     15  C   UNL     1      -3.665  -2.265  -3.467  0.00  0.00    +0.128 A 
ATOM     16  C   UNL     1      -4.741  -1.426  -3.732  0.00  0.00    +0.047 A 
ATOM     17  C   UNL     1      -5.468  -1.582  -4.891  0.00  0.00    +0.016 A 
ATOM     18  C   UNL     1      -5.122  -2.584  -5.802  0.00  0.00    +0.037 A 
ATOM     19  C   UNL     1      -4.040  -3.425  -5.532  0.00  0.00    +0.016 A 
ATOM     20  C   UNL     1      -3.314  -3.260  -4.373  0.00  0.00    +0.047 A 
BRANCH  18  21
ATOM     21  C   UNL     1      -5.899  -2.754  -7.045  0.00  0.00    +0.242 C 
ATOM     22  O   UNL     1      -6.841  -2.022  -7.279  0.00  0.00    -0.270 OA
ATOM     23  N   UNL     1      -5.565  -3.722  -7.922  0.00  0.00    -0.325 N 
ATOM     24  H   UNL     1      -4.813  -4.306  -7.736  0.00  0.00    +0.145 HD
ATOM     25  H   UNL     1      -6.075  -3.834  -8.739  0.00  0.00    +0.145 HD
ENDBRANCH  18  21
ENDBRANCH  14  15
ENDBRANCH   6  14
TORSDOF 6
