REMARK  Name = ZINC09509316
REMARK  11 active torsions:
REMARK  status: ('A' for Active; 'I' for Inactive)
REMARK    1  A    between atoms: C_1  and  C_2
REMARK    2  A    between atoms: C_5  and  C_35
REMARK    3  A    between atoms: C_5  and  C_36
REMARK    4  A    between atoms: N_11  and  C_15
REMARK    5  A    between atoms: C_15  and  C_16
REMARK    6  A    between atoms: N_18  and  C_19
REMARK    7  A    between atoms: C_19  and  C_20
REMARK    8  A    between atoms: C_20  and  C_22
REMARK    9  A    between atoms: C_20  and  N_75
REMARK   10  A    between atoms: C_25  and  O_28
REMARK   11  A    between atoms: O_28  and  C_29
REMARK                            x       y       z     vdW  Elec       q    Type
REMARK                         _______ _______ _______ _____ _____    ______ ____
ROOT
ATOM      1  C   UNL     1      -0.506  -2.611  -1.960  0.00  0.00    +0.231 C 
ATOM      2  O   UNL     1      -0.763  -1.970  -2.958  0.00  0.00    -0.274 OA
ATOM      3  N   UNL     1      -0.143  -1.977  -0.828  0.00  0.00    -0.315 N 
ATOM      4  H   UNL     1       0.062  -2.489  -0.030  0.00  0.00    +0.149 HD
ENDROOT
BRANCH   1   5
ATOM      5  C   UNL     1      -0.592  -4.115  -1.988  0.00  0.00    +0.213 C 
BRANCH   5  15
ATOM      6  C   UNL     1      -3.557  -3.657  -8.411  0.00  0.00    +0.007 C 
ATOM      7  C   UNL     1      -2.826  -4.649  -7.504  0.00  0.00    -0.011 C 
ATOM      8  C   UNL     1      -3.464  -6.033  -7.644  0.00  0.00    +0.009 C 
ATOM      9  C   UNL     1      -2.729  -7.029  -6.745  0.00  0.00    -0.032 C 
ATOM     10  C   UNL     1      -2.835  -6.574  -5.288  0.00  0.00    +0.041 C 
ATOM     11  C   UNL     1      -2.224  -5.185  -5.142  0.00  0.00    +0.113 C 
ATOM     12  C   UNL     1      -2.933  -4.185  -6.049  0.00  0.00    +0.038 C 
ATOM     13  C   UNL     1      -2.286  -4.734  -3.701  0.00  0.00    +0.247 C 
ATOM     14  O   UNL     1      -3.280  -4.565  -3.027  0.00  0.00    -0.273 OA
ATOM     15  N   UNL     1      -1.003  -4.556  -3.323  0.00  0.00    -0.215 N 
ATOM     16  C   UNL     1      -0.153  -4.838  -4.318  0.00  0.00    +0.310 C 
ATOM     17  O   UNL     1       1.056  -4.756  -4.217  0.00  0.00    -0.252 OA
ATOM     18  N   UNL     1      -0.787  -5.222  -5.442  0.00  0.00    -0.285 N 
ATOM     19  C   UNL     1      -1.256  -7.095  -7.154  0.00  0.00    +0.011 C 
ATOM     20  C   UNL     1      -3.361  -8.415  -6.895  0.00  0.00    +0.011 C 
ATOM     21  H   UNL     1      -0.375  -5.474  -6.284  0.00  0.00    +0.151 HD
ENDBRANCH   5  15
ENDBRANCH   1   5
BRANCH   3  22
ATOM     22  C   UNL     1      -0.060  -0.514  -0.801  0.00  0.00    +0.093 C 
BRANCH  22  23
ATOM     23  C   UNL     1       0.207  -0.045   0.631  0.00  0.00    -0.020 C 
BRANCH  23  29
ATOM     24  C   UNL     1      -0.619  -1.712   2.181  0.00  0.00    -0.078 C 
ATOM     25  C   UNL     1      -1.738  -2.024   3.177  0.00  0.00    -0.019 C 
ATOM     26  C   UNL     1      -3.069  -2.126   2.427  0.00  0.00    -0.004 C 
ATOM     27  C   UNL     1      -3.327  -0.813   1.681  0.00  0.00    -0.019 C 
ATOM     28  C   UNL     1      -2.162  -0.536   0.729  0.00  0.00    -0.078 C 
ATOM     29  N   UNL     1      -0.915  -0.425   1.515  0.00  0.00    +0.385 N 
ATOM     30  H   UNL     1      -1.036   0.300   2.231  0.00  0.00    -0.081 HD
ENDBRANCH  23  29
BRANCH  23  31
ATOM     31  C   UNL     1       0.342   1.456   0.651  0.00  0.00    -0.059 A 
ATOM     32  C   UNL     1      -0.784   2.252   0.545  0.00  0.00    +0.005 A 
ATOM     33  C   UNL     1      -0.663   3.628   0.568  0.00  0.00    +0.046 A 
ATOM     34  C   UNL     1       0.591   4.211   0.686  0.00  0.00    +0.120 A 
ATOM     35  C   UNL     1       1.719   3.410   0.787  0.00  0.00    +0.046 A 
ATOM     36  C   UNL     1       1.592   2.034   0.769  0.00  0.00    +0.005 A 
BRANCH  34  37
ATOM     37  O   UNL     1       0.713   5.564   0.703  0.00  0.00    -0.495 OA
ATOM     38  C   UNL     1      -0.492   6.326   0.595  0.00  0.00    +0.277 C 
ENDBRANCH  34  37
ENDBRANCH  23  31
ENDBRANCH  22  23
ENDBRANCH   3  22
TORSDOF 7
