REMARK  Name = ZINC63383456
REMARK  7 active torsions:
REMARK  status: ('A' for Active; 'I' for Inactive)
REMARK    1  A    between atoms: C_1  and  C_2
REMARK    2  A    between atoms: C_5  and  C_8
REMARK    3  A    between atoms: C_8  and  N_9
REMARK    4  A    between atoms: C_10  and  C_12
REMARK    5  A    between atoms: C_12  and  C_14
REMARK    6  A    between atoms: C_12  and  N_15
REMARK    7  A    between atoms: C_16  and  C_18
REMARK                            x       y       z     vdW  Elec       q    Type
REMARK                         _______ _______ _______ _____ _____    ______ ____
ROOT
ATOM      1  C   UNL     1       4.245 -10.186   0.416  0.00  0.00    +0.167 C 
ATOM      2  C   UNL     1       3.153 -10.724   1.362  0.00  0.00    +0.065 C 
ATOM      3  C   UNL     1       3.488 -12.167   1.648  0.00  0.00    -0.034 C 
ATOM      4  C   UNL     1       2.753 -13.268   1.530  0.00  0.00    -0.001 A 
ATOM      5  C   UNL     1       1.337 -13.465   1.178  0.00  0.00    +0.010 A 
ATOM      6  C   UNL     1       0.905 -14.753   1.130  0.00  0.00    +0.001 A 
ATOM      7  C   UNL     1       1.730 -15.851   1.394  0.00  0.00    +0.002 A 
ATOM      8  C   UNL     1       3.041 -15.762   1.734  0.00  0.00    +0.026 A 
ATOM      9  C   UNL     1       3.608 -14.457   1.825  0.00  0.00    +0.043 A 
ATOM     10  N   UNL     1       4.810 -14.083   2.147  0.00  0.00    -0.375 N 
ATOM     11  C   UNL     1       4.855 -12.619   2.148  0.00  0.00    +0.131 C 
ATOM     12  C   UNL     1       5.884 -12.085   1.145  0.00  0.00    +0.134 C 
ATOM     13  N   UNL     1       5.549 -10.666   0.891  0.00  0.00    -0.276 N 
ATOM     14  C   UNL     1       6.626  -9.912   1.177  0.00  0.00    +0.248 C 
ATOM     15  O   UNL     1       6.704  -8.712   0.994  0.00  0.00    -0.270 OA
ATOM     16  C   UNL     1       7.690 -10.744   1.740  0.00  0.00    +0.042 A 
ATOM     17  C   UNL     1       7.260 -12.108   1.728  0.00  0.00    -0.013 A 
ATOM     18  C   UNL     1       8.043 -13.142   2.191  0.00  0.00    +0.006 A 
ATOM     19  C   UNL     1       9.306 -12.811   2.674  0.00  0.00    +0.000 A 
ATOM     20  C   UNL     1       9.759 -11.507   2.690  0.00  0.00    +0.001 A 
ATOM     21  C   UNL     1       8.955 -10.403   2.226  0.00  0.00    +0.013 A 
ATOM     22  H   UNL     1       5.552 -14.673   2.352  0.00  0.00    +0.160 HD
ENDROOT
BRANCH   1  24
ATOM     23  N   UNL     1       3.830  -8.004  -0.673  0.00  0.00    -0.303 N 
ATOM     24  C   UNL     1       4.225  -8.679   0.425  0.00  0.00    +0.234 C 
ATOM     25  O   UNL     1       4.565  -8.074   1.419  0.00  0.00    -0.274 OA
ATOM     26  H   UNL     1       3.558  -8.488  -1.468  0.00  0.00    +0.149 HD
BRANCH  23  27
ATOM     27  C   UNL     1       3.811  -6.539  -0.665  0.00  0.00    +0.156 C 
ATOM     28  C   UNL     1       5.202  -6.009  -1.019  0.00  0.00    +0.038 C 
BRANCH  27  30
ATOM     29  N   UNL     1       2.623  -4.721  -1.847  0.00  0.00    -0.310 N 
ATOM     30  C   UNL     1       2.812  -6.044  -1.678  0.00  0.00    +0.233 C 
ATOM     31  O   UNL     1       2.178  -6.837  -2.342  0.00  0.00    -0.274 OA
ATOM     32  H   UNL     1       3.130  -4.087  -1.316  0.00  0.00    +0.149 HD
BRANCH  29  33
ATOM     33  C   UNL     1       1.651  -4.239  -2.833  0.00  0.00    +0.139 C 
BRANCH  33  38
ATOM     34  C   UNL     1       1.575   1.539  -2.803  0.00  0.00    +0.044 C 
ATOM     35  C   UNL     1       1.595   0.032  -2.811  0.00  0.00    -0.050 A 
ATOM     36  C   UNL     1       2.461  -0.643  -3.650  0.00  0.00    +0.003 A 
ATOM     37  C   UNL     1       2.479  -2.026  -3.657  0.00  0.00    +0.005 A 
ATOM     38  C   UNL     1       1.632  -2.732  -2.824  0.00  0.00    -0.030 A 
ATOM     39  C   UNL     1       0.766  -2.057  -1.984  0.00  0.00    +0.005 A 
ATOM     40  C   UNL     1       0.751  -0.675  -1.974  0.00  0.00    +0.003 A 
ENDBRANCH  33  38
ENDBRANCH  29  33
ENDBRANCH  27  30
ENDBRANCH  23  27
ENDBRANCH   1  24
TORSDOF 5
