REMARK  Name = ZINC06569133
REMARK  12 active torsions:
REMARK  status: ('A' for Active; 'I' for Inactive)
REMARK    1  A    between atoms: C_2  and  O_31
REMARK    2  A    between atoms: C_4  and  O_30
REMARK    3  A    between atoms: C_6  and  O_13
REMARK    4  A    between atoms: C_8  and  C_10
REMARK    5  A    between atoms: C_8  and  O_12
REMARK    6  A    between atoms: C_10  and  O_11
REMARK    7  A    between atoms: O_13  and  C_14
REMARK    8  A    between atoms: C_16  and  O_29
REMARK    9  A    between atoms: C_18  and  O_28
REMARK   10  A    between atoms: C_20  and  O_27
REMARK   11  A    between atoms: C_22  and  C_25
REMARK   12  A    between atoms: C_25  and  O_26
REMARK                            x       y       z     vdW  Elec       q    Type
REMARK                         _______ _______ _______ _____ _____    ______ ____
ROOT
ATOM      1  O   UNL     1      -0.704   1.559  -1.149  0.00  0.00    -0.337 OA
ENDROOT
BRANCH   1   5
ATOM      2  C   UNL     1      -2.648   1.122  -3.981  0.00  0.00    +0.197 C 
ATOM      3  C   UNL     1      -2.539   0.091  -2.855  0.00  0.00    +0.171 C 
ATOM      4  C   UNL     1      -1.068  -0.291  -2.664  0.00  0.00    +0.179 C 
ATOM      5  C   UNL     1      -0.256   0.975  -2.374  0.00  0.00    +0.214 C 
ATOM      6  C   UNL     1      -0.454   1.972  -3.519  0.00  0.00    +0.221 C 
ATOM      7  O   UNL     1      -1.846   2.261  -3.662  0.00  0.00    -0.342 OA
BRANCH   6   8
ATOM      8  O   UNL     1       0.043   1.407  -4.734  0.00  0.00    -0.361 OA
ATOM      9  H   UNL     1      -0.049   1.985  -5.503  0.00  0.00    +0.213 HD
ENDBRANCH   6   8
BRANCH   4  10
ATOM     10  O   UNL     1      -0.577  -0.912  -3.854  0.00  0.00    -0.386 OA
ATOM     11  H   UNL     1      -1.047  -1.721  -4.098  0.00  0.00    +0.210 HD
ENDBRANCH   4  10
BRANCH   3  12
ATOM     12  O   UNL     1      -3.295  -1.073  -3.196  0.00  0.00    -0.387 OA
ATOM     13  H   UNL     1      -4.237  -0.904  -3.332  0.00  0.00    +0.210 HD
ENDBRANCH   3  12
BRANCH   6  14
ATOM     14  C   UNL     1       0.306   3.263  -3.208  0.00  0.00    +0.223 C 
BRANCH  14  15
ATOM     15  O   UNL     1       0.122   4.193  -4.277  0.00  0.00    -0.390 OA
ATOM     16  H   UNL     1       0.577   5.037  -4.147  0.00  0.00    +0.210 HD
ENDBRANCH  14  15
ENDBRANCH   6  14
ENDBRANCH   1   5
BRANCH   1  17
ATOM     17  C   UNL     1      -0.013   1.086   0.008  0.00  0.00    +0.282 C 
ATOM     18  C   UNL     1      -0.728   1.580   1.268  0.00  0.00    +0.201 C 
ATOM     19  C   UNL     1      -0.692   3.111   1.300  0.00  0.00    +0.179 C 
ATOM     20  C   UNL     1       0.766   3.578   1.238  0.00  0.00    +0.177 C 
ATOM     21  C   UNL     1       1.423   3.006  -0.021  0.00  0.00    +0.178 C 
ATOM     22  O   UNL     1       1.328   1.581  -0.002  0.00  0.00    -0.341 OA
BRANCH  20  23
ATOM     23  O   UNL     1       0.809   5.005   1.193  0.00  0.00    -0.386 OA
ATOM     24  H   UNL     1       0.408   5.435   1.961  0.00  0.00    +0.210 HD
ENDBRANCH  20  23
BRANCH  19  25
ATOM     25  O   UNL     1      -1.293   3.579   2.509  0.00  0.00    -0.386 OA
ATOM     26  H   UNL     1      -2.218   3.319   2.614  0.00  0.00    +0.210 HD
ENDBRANCH  19  25
BRANCH  18  27
ATOM     27  O   UNL     1      -2.086   1.134   1.252  0.00  0.00    -0.384 OA
ATOM     28  H   UNL     1      -2.184   0.173   1.227  0.00  0.00    +0.210 HD
ENDBRANCH  18  27
BRANCH  21  29
ATOM     29  C   UNL     1       2.896   3.419  -0.059  0.00  0.00    +0.190 C 
BRANCH  29  30
ATOM     30  O   UNL     1       3.481   2.984  -1.289  0.00  0.00    -0.392 OA
ATOM     31  H   UNL     1       4.416   3.212  -1.382  0.00  0.00    +0.210 HD
ENDBRANCH  29  30
ENDBRANCH  21  29
ENDBRANCH   1  17
TORSDOF 12
