REMARK  Name = ZINC40540668
REMARK  2 active torsions:
REMARK  status: ('A' for Active; 'I' for Inactive)
REMARK    1  A    between atoms: N_6  and  C_7
REMARK    2  A    between atoms: C_7  and  C_8
REMARK                            x       y       z     vdW  Elec       q    Type
REMARK                         _______ _______ _______ _____ _____    ______ ____
ROOT
ATOM      1  C   UNL     1      -1.285  -2.008   0.485  0.00  0.00    +0.204 C 
ATOM      2  O   UNL     1      -0.249  -2.602   0.279  0.00  0.00    -0.277 OA
ATOM      3  N   UNL     1      -2.399  -2.691   0.815  0.00  0.00    -0.242 N 
ATOM      4  C   UNL     1      -2.361  -4.034   0.917  0.00  0.00    +0.303 C 
ATOM      5  O   UNL     1      -1.321  -4.630   0.711  0.00  0.00    -0.253 OA
ATOM      6  N   UNL     1      -3.474  -4.717   1.248  0.00  0.00    -0.313 N 
ATOM      7  H   UNL     1      -3.229  -2.215   0.980  0.00  0.00    +0.159 HD
ATOM      8  H   UNL     1      -4.304  -4.242   1.412  0.00  0.00    +0.146 HD
ATOM      9  H   UNL     1      -3.447  -5.684   1.321  0.00  0.00    +0.146 HD
ENDROOT
BRANCH   1  10
ATOM     10  C   UNL     1      -1.329  -0.506   0.371  0.00  0.00    +0.019 C 
BRANCH  10  16
ATOM     11  C   UNL     1      -0.018   1.460   0.010  0.00  0.00    -0.067 C 
ATOM     12  C   UNL     1       1.417   2.000  -0.001  0.00  0.00    +0.050 C 
ATOM     13  S   UNL     1       2.221   1.454  -1.540  0.00  0.00    -0.164 S 
ATOM     14  C   UNL     1       1.862  -0.330  -1.565  0.00  0.00    +0.050 C 
ATOM     15  C   UNL     1       0.361  -0.522  -1.320  0.00  0.00    -0.067 C 
ATOM     16  N   UNL     1       0.002  -0.004   0.002  0.00  0.00    +0.386 N 
ATOM     17  H   UNL     1       0.676  -0.329   0.679  0.00  0.00    -0.081 HD
ENDBRANCH  10  16
ENDBRANCH   1  10
TORSDOF 2
