REMARK  Name = ZINC24283998
REMARK  15 active torsions:
REMARK  status: ('A' for Active; 'I' for Inactive)
REMARK    1  A    between atoms: C_1  and  C_2
REMARK    2  A    between atoms: C_2  and  O_3
REMARK    3  A    between atoms: O_3  and  C_4
REMARK    4  A    between atoms: C_7  and  N_13
REMARK    5  A    between atoms: C_9  and  O_10
REMARK    6  A    between atoms: O_10  and  C_11
REMARK    7  A    between atoms: C_11  and  C_12
REMARK    8  A    between atoms: C_14  and  C_16
REMARK    9  A    between atoms: C_16  and  N_17
REMARK   10  A    between atoms: N_17  and  C_18
REMARK   11  A    between atoms: N_17  and  C_19
REMARK   12  A    between atoms: C_19  and  C_21
REMARK   13  A    between atoms: C_19  and  C_22
REMARK   14  A    between atoms: N_24  and  C_25
REMARK   15  A    between atoms: C_26  and  C_33
REMARK                            x       y       z     vdW  Elec       q    Type
REMARK                         _______ _______ _______ _____ _____    ______ ____
ROOT
ATOM      1  N   UNL     1       5.001  -1.973   6.302  0.00  0.00    +0.391 N 
ATOM      2  C   UNL     1       5.331  -0.679   6.916  0.00  0.00    -0.094 C 
ATOM      3  H   UNL     1       4.159  -2.407   6.861  0.00  0.00    -0.080 HD
ENDROOT
BRANCH   1   4
ATOM      4  C   UNL     1       6.133  -2.904   6.396  0.00  0.00    +0.017 C 
ATOM      5  C   UNL     1       7.383  -2.249   5.804  0.00  0.00    -0.004 C 
BRANCH   4   6
ATOM      6  C   UNL     1       6.384  -3.247   7.842  0.00  0.00    +0.204 C 
ATOM      7  O   UNL     1       5.687  -2.763   8.709  0.00  0.00    -0.277 OA
ATOM      8  N   UNL     1       7.381  -4.091   8.172  0.00  0.00    -0.281 N 
ATOM      9  H   UNL     1       8.013  -4.529   7.386  0.00  0.00    +0.155 HD
BRANCH   8  10
ATOM     10  C   UNL     1       7.611  -4.406   9.503  0.00  0.00    +0.084 A 
ATOM     11  C   UNL     1       8.574  -5.248  10.033  0.00  0.00    +0.068 A 
ATOM     12  C   UNL     1       8.607  -5.407  11.487  0.00  0.00    -0.023 A 
ATOM     13  C   UNL     1       7.673  -4.711  12.159  0.00  0.00    -0.004 A 
ATOM     14  S   UNL     1       6.761  -3.848  10.903  0.00  0.00    -0.077 S 
ATOM     15  C   UNL     1       7.769  -4.928  13.645  0.00  0.00    +0.043 C 
ATOM     16  C   UNL     1       9.176  -5.527  13.861  0.00  0.00    +0.010 C 
ATOM     17  C   UNL     1       9.447  -6.191  12.496  0.00  0.00    +0.037 C 
BRANCH  11  18
ATOM     18  C   UNL     1       9.527  -5.951   9.170  0.00  0.00    +0.244 C 
ATOM     19  O   UNL     1      10.591  -5.431   8.889  0.00  0.00    -0.270 OA
ATOM     20  N   UNL     1       9.226  -7.173   8.688  0.00  0.00    -0.325 N 
ATOM     21  H   UNL     1       9.942  -7.700   8.040  0.00  0.00    +0.145 HD
ATOM     22  H   UNL     1       8.264  -7.642   8.942  0.00  0.00    +0.145 HD
ENDBRANCH  11  18
ENDBRANCH   8  10
ENDBRANCH   4   6
ENDBRANCH   1   4
BRANCH   1  23
ATOM     23  C   UNL     1       4.576  -1.800   4.907  0.00  0.00    +0.020 C 
BRANCH  23  25
ATOM     24  N   UNL     1       2.689  -0.766   3.686  0.00  0.00    -0.287 N 
ATOM     25  C   UNL     1       3.273  -1.043   4.869  0.00  0.00    +0.201 C 
ATOM     26  O   UNL     1       2.751  -0.682   5.902  0.00  0.00    -0.278 OA
ATOM     27  H   UNL     1       3.122  -1.158   2.754  0.00  0.00    +0.155 HD
BRANCH  24  31
ATOM     28  C   UNL     1      -0.761   1.578   3.569  0.00  0.00    +0.162 A 
ATOM     29  C   UNL     1      -0.553   0.701   4.622  0.00  0.00    +0.051 A 
ATOM     30  C   UNL     1       0.591  -0.073   4.662  0.00  0.00    +0.027 A 
ATOM     31  C   UNL     1       1.530   0.020   3.644  0.00  0.00    +0.037 A 
ATOM     32  C   UNL     1       1.322   0.893   2.585  0.00  0.00    +0.072 A 
ATOM     33  C   UNL     1       0.176   1.670   2.545  0.00  0.00    +0.164 A 
BRANCH  28  34
ATOM     34  O   UNL     1      -1.885   2.344   3.534  0.00  0.00    -0.489 OA
BRANCH  34  36
ATOM     35  C   UNL     1      -3.996   3.133   4.406  0.00  0.00    +0.048 C 
ATOM     36  C   UNL     1      -2.804   2.198   4.619  0.00  0.00    +0.226 C 
ENDBRANCH  34  36
ENDBRANCH  28  34
BRANCH  33  37
ATOM     37  O   UNL     1      -0.030   2.525   1.508  0.00  0.00    -0.489 OA
BRANCH  37  38
ATOM     38  C   UNL     1       0.976   2.572   0.495  0.00  0.00    +0.226 C 
ATOM     39  C   UNL     1       0.572   3.583  -0.579  0.00  0.00    +0.048 C 
ENDBRANCH  37  38
ENDBRANCH  33  37
ENDBRANCH  24  31
ENDBRANCH  23  25
ENDBRANCH   1  23
TORSDOF 11
