REMARK  Name = ZINC35616030
REMARK  9 active torsions:
REMARK  status: ('A' for Active; 'I' for Inactive)
REMARK    1  A    between atoms: C_1  and  C_2
REMARK    2  A    between atoms: C_8  and  N_22
REMARK    3  A    between atoms: C_9  and  C_11
REMARK    4  A    between atoms: C_13  and  O_20
REMARK    5  A    between atoms: C_14  and  O_19
REMARK    6  A    between atoms: C_15  and  O_17
REMARK    7  A    between atoms: O_17  and  C_18
REMARK    8  A    between atoms: O_20  and  C_21
REMARK    9  A    between atoms: N_22  and  C_23
REMARK                            x       y       z     vdW  Elec       q    Type
REMARK                         _______ _______ _______ _____ _____    ______ ____
ROOT
ATOM      1  C   UNL     1      -2.569   0.588   2.289  0.00  0.00    +0.064 C 
ATOM      2  C   UNL     1      -2.061  -0.781   1.919  0.00  0.00    +0.024 A 
ATOM      3  C   UNL     1      -2.914  -1.696   1.415  0.00  0.00    +0.021 A 
ATOM      4  C   UNL     1      -2.454  -2.979   1.065  0.00  0.00    +0.005 A 
ATOM      5  C   UNL     1      -1.143  -3.297   1.237  0.00  0.00    +0.045 A 
ATOM      6  C   UNL     1      -0.260  -2.332   1.765  0.00  0.00    +0.117 A 
ATOM      7  N   UNL     1      -0.738  -1.084   2.092  0.00  0.00    -0.286 N 
ATOM      8  C   UNL     1       0.319  -0.356   2.568  0.00  0.00    +0.133 A 
ATOM      9  C   UNL     1       1.425  -1.178   2.515  0.00  0.00    +0.087 A 
ATOM     10  N   UNL     1       1.036  -2.370   2.031  0.00  0.00    -0.338 N 
ATOM     11  H   UNL     1       1.615  -3.135   1.889  0.00  0.00    +0.167 HD
ENDROOT
BRANCH   9  12
ATOM     12  C   UNL     1       2.800  -0.814   2.931  0.00  0.00    +0.009 A 
ATOM     13  C   UNL     1       3.325   0.432   2.591  0.00  0.00    +0.059 A 
ATOM     14  C   UNL     1       4.611   0.770   2.980  0.00  0.00    +0.166 A 
ATOM     15  C   UNL     1       5.378  -0.132   3.709  0.00  0.00    +0.201 A 
ATOM     16  C   UNL     1       4.856  -1.376   4.048  0.00  0.00    +0.166 A 
ATOM     17  C   UNL     1       3.569  -1.715   3.666  0.00  0.00    +0.059 A 
BRANCH  16  18
ATOM     18  O   UNL     1       5.608  -2.257   4.760  0.00  0.00    -0.491 OA
ATOM     19  C   UNL     1       5.009  -3.516   5.073  0.00  0.00    +0.277 C 
ENDBRANCH  16  18
BRANCH  15  20
ATOM     20  O   UNL     1       6.641   0.202   4.090  0.00  0.00    -0.501 OA
ATOM     21  H   UNL     1       6.689   0.636   4.952  0.00  0.00    +0.292 HD
ENDBRANCH  15  20
BRANCH  14  22
ATOM     22  O   UNL     1       5.123   1.986   2.650  0.00  0.00    -0.491 OA
ATOM     23  C   UNL     1       4.280   2.863   1.900  0.00  0.00    +0.277 C 
ENDBRANCH  14  22
ENDBRANCH   9  12
BRANCH   8  24
ATOM     24  N   UNL     1       0.283   0.964   3.019  0.00  0.00    -0.299 N 
ATOM     25  H   UNL     1       0.330   1.695   2.384  0.00  0.00    +0.154 HD
BRANCH  24  26
ATOM     26  C   UNL     1       0.181   1.232   4.386  0.00  0.00    +0.032 A 
ATOM     27  C   UNL     1      -0.030   0.195   5.286  0.00  0.00    +0.024 A 
ATOM     28  C   UNL     1      -0.130   0.463   6.636  0.00  0.00    +0.017 A 
ATOM     29  C   UNL     1      -0.020   1.764   7.095  0.00  0.00    +0.018 A 
ATOM     30  C   UNL     1       0.191   2.800   6.202  0.00  0.00    +0.017 A 
ATOM     31  C   UNL     1       0.297   2.537   4.850  0.00  0.00    +0.024 A 
ATOM     32 BR   UNL     1      -0.157   2.127   8.945  0.00  0.00    -0.050 Br
ENDBRANCH  24  26
ENDBRANCH   8  24
TORSDOF 6
