REMARK  Name = ZINC67628215
REMARK  10 active torsions:
REMARK  status: ('A' for Active; 'I' for Inactive)
REMARK    1  A    between atoms: C_1  and  C_2
REMARK    2  A    between atoms: N_5  and  C_8
REMARK    3  A    between atoms: C_8  and  C_9
REMARK    4  A    between atoms: C_9  and  C_11
REMARK    5  A    between atoms: C_9  and  O_27
REMARK    6  A    between atoms: C_11  and  N_12
REMARK    7  A    between atoms: N_15  and  C_16
REMARK    8  A    between atoms: C_16  and  C_17
REMARK    9  A    between atoms: C_17  and  N_18
REMARK   10  A    between atoms: C_19  and  C_21
REMARK                            x       y       z     vdW  Elec       q    Type
REMARK                         _______ _______ _______ _____ _____    ______ ____
ROOT
ATOM      1  N   UNL     1       0.526  -6.331   4.079  0.00  0.00    -0.297 N 
ATOM      2  C   UNL     1       0.687  -7.641   4.351  0.00  0.00    +0.300 C 
ATOM      3  O   UNL     1       0.343  -8.477   3.538  0.00  0.00    -0.253 OA
ATOM      4  N   UNL     1       1.230  -8.024   5.523  0.00  0.00    -0.298 N 
ATOM      5  H   UNL     1       0.800  -5.664   4.727  0.00  0.00    +0.150 HD
ATOM      6  H   UNL     1       1.505  -7.357   6.171  0.00  0.00    +0.150 HD
ENDROOT
BRANCH   1   7
ATOM      7  C   UNL     1      -0.065  -5.914   2.804  0.00  0.00    +0.135 C 
BRANCH   7   8
ATOM      8  C   UNL     1      -0.134  -4.387   2.750  0.00  0.00    +0.115 C 
BRANCH   8   9
ATOM      9  O   UNL     1      -0.941  -3.908   3.828  0.00  0.00    -0.392 OA
ATOM     10  H   UNL     1      -1.850  -4.235   3.814  0.00  0.00    +0.210 HD
ENDBRANCH   8   9
BRANCH   8  11
ATOM     11  C   UNL     1      -0.750  -3.952   1.419  0.00  0.00    -0.046 C 
BRANCH  11  16
ATOM     12  C   UNL     1      -0.019   1.526   0.010  0.00  0.00    +0.007 C 
ATOM     13  C   UNL     1       0.002  -0.004   0.002  0.00  0.00    -0.018 C 
ATOM     14  C   UNL     1      -1.434  -0.536   0.023  0.00  0.00    -0.016 C 
ATOM     15  C   UNL     1      -1.405  -2.064   0.095  0.00  0.00    -0.078 C 
ATOM     16  N   UNL     1      -0.707  -2.487   1.315  0.00  0.00    +0.381 N 
ATOM     17  C   UNL     1       0.691  -2.042   1.269  0.00  0.00    -0.078 C 
ATOM     18  C   UNL     1       0.743  -0.513   1.242  0.00  0.00    -0.016 C 
ATOM     19  H   UNL     1      -1.162  -2.082   2.119  0.00  0.00    -0.082 HD
ENDBRANCH  11  16
ENDBRANCH   8  11
ENDBRANCH   7   8
ENDBRANCH   1   7
BRANCH   4  20
ATOM     20  C   UNL     1       1.405  -9.449   5.818  0.00  0.00    +0.124 C 
BRANCH  20  21
ATOM     21  C   UNL     1       2.038  -9.608   7.202  0.00  0.00    +0.123 C 
BRANCH  21  22
ATOM     22  N   UNL     1       2.213 -11.033   7.498  0.00  0.00    -0.314 N 
ATOM     23  C   UNL     1       2.756 -11.416   8.670  0.00  0.00    +0.216 C 
ATOM     24  O   UNL     1       3.100 -10.582   9.481  0.00  0.00    -0.276 OA
ATOM     25  H   UNL     1       1.938 -11.700   6.849  0.00  0.00    +0.149 HD
BRANCH  23  26
ATOM     26  C   UNL     1       2.936 -12.881   8.974  0.00  0.00    +0.075 C 
ATOM     27  C   UNL     1       1.575 -13.578   8.952  0.00  0.00    +0.013 C 
ATOM     28  C   UNL     1       1.758 -15.065   9.260  0.00  0.00    +0.001 C 
ATOM     29  C   UNL     1       2.390 -15.225  10.644  0.00  0.00    +0.000 C 
ATOM     30  C   UNL     1       3.752 -14.528  10.666  0.00  0.00    +0.001 C 
ATOM     31  C   UNL     1       3.569 -13.041  10.358  0.00  0.00    +0.013 C 
ENDBRANCH  23  26
ENDBRANCH  21  22
ENDBRANCH  20  21
ENDBRANCH   4  20
TORSDOF 9
