REMARK  Name = ZINC36821466
REMARK  7 active torsions:
REMARK  status: ('A' for Active; 'I' for Inactive)
REMARK    1  A    between atoms: C_1  and  C_2
REMARK    2  A    between atoms: C_2  and  C_3
REMARK    3  A    between atoms: C_3  and  N_4
REMARK    4  A    between atoms: C_8  and  C_10
REMARK    5  A    between atoms: C_10  and  S_11
REMARK    6  A    between atoms: S_11  and  C_12
REMARK    7  A    between atoms: C_22  and  C_26
REMARK                            x       y       z     vdW  Elec       q    Type
REMARK                         _______ _______ _______ _____ _____    ______ ____
ROOT
ATOM      1  C   UNL     1       3.074  -8.533  -4.510  0.00  0.00    +0.191 A 
ATOM      2  N   UNL     1       2.468  -9.083  -3.464  0.00  0.00    -0.207 NA
ATOM      3  C   UNL     1       2.062 -10.341  -3.469  0.00  0.00    +0.129 A 
ATOM      4  C   UNL     1       2.279 -11.138  -4.628  0.00  0.00    +0.051 A 
ATOM      5  C   UNL     1       1.916 -12.538  -4.857  0.00  0.00    -0.025 A 
ATOM      6  C   UNL     1       2.237 -13.065  -6.056  0.00  0.00    -0.004 A 
ATOM      7  S   UNL     1       3.029 -11.749  -6.942  0.00  0.00    -0.073 S 
ATOM      8  C   UNL     1       2.927 -10.489  -5.698  0.00  0.00    +0.115 A 
ATOM      9  N   UNL     1       3.298  -9.226  -5.618  0.00  0.00    -0.214 NA
ATOM     10  C   UNL     1       1.976 -14.461  -6.533  0.00  0.00    +0.046 C 
ATOM     11  C   UNL     1       0.952 -15.112  -5.592  0.00  0.00    -0.009 C 
ATOM     12  C   UNL     1       1.386 -14.859  -4.145  0.00  0.00    +0.008 C 
ATOM     13  C   UNL     1       1.208 -13.380  -3.800  0.00  0.00    +0.037 C 
ATOM     14  C   UNL     1       0.894 -16.617  -5.859  0.00  0.00    +0.008 C 
ATOM     15  N   UNL     1       1.435 -10.878  -2.359  0.00  0.00    -0.343 N 
ATOM     16  H   UNL     1       0.934 -11.704  -2.438  0.00  0.00    +0.144 HD
ATOM     17  H   UNL     1       1.497 -10.428  -1.502  0.00  0.00    +0.144 HD
ENDROOT
BRANCH   1  18
ATOM     18  S   UNL     1       3.584  -6.848  -4.426  0.00  0.00    -0.077 S 
BRANCH  18  19
ATOM     19  C   UNL     1       3.084  -6.320  -2.764  0.00  0.00    +0.173 C 
BRANCH  19  24
ATOM     20  N   UNL     1       3.258  -2.366  -0.036  0.00  0.00    -0.299 N 
ATOM     21  C   UNL     1       3.534  -2.976  -1.206  0.00  0.00    +0.306 C 
ATOM     22  O   UNL     1       4.090  -2.363  -2.095  0.00  0.00    -0.252 OA
ATOM     23  N   UNL     1       3.191  -4.267  -1.389  0.00  0.00    -0.240 N 
ATOM     24  C   UNL     1       3.466  -4.877  -2.559  0.00  0.00    +0.231 C 
ATOM     25  O   UNL     1       4.022  -4.266  -3.446  0.00  0.00    -0.274 OA
ATOM     26  H   UNL     1       2.814  -2.856   0.674  0.00  0.00    +0.150 HD
ATOM     27  H   UNL     1       2.747  -4.756  -0.680  0.00  0.00    +0.159 HD
BRANCH  20  28
ATOM     28  C   UNL     1       3.630  -0.963   0.164  0.00  0.00    +0.105 C 
BRANCH  28  30
ATOM     29  C   UNL     1       3.597   0.947   1.774  0.00  0.00    +0.005 C 
ATOM     30  C   UNL     1       3.208  -0.518   1.565  0.00  0.00    +0.015 C 
ENDBRANCH  28  30
ENDBRANCH  20  28
ENDBRANCH  19  24
ENDBRANCH  18  19
ENDBRANCH   1  18
TORSDOF 5
