REMARK  Name = ZINC20290437
REMARK  8 active torsions:
REMARK  status: ('A' for Active; 'I' for Inactive)
REMARK    1  A    between atoms: C_1  and  C_2
REMARK    2  A    between atoms: C_2  and  C_4
REMARK    3  A    between atoms: C_2  and  C_28
REMARK    4  A    between atoms: N_5  and  N_6
REMARK    5  A    between atoms: C_7  and  C_9
REMARK    6  A    between atoms: C_10  and  C_20
REMARK    7  A    between atoms: C_20  and  N_21
REMARK    8  A    between atoms: N_24  and  C_27
REMARK                            x       y       z     vdW  Elec       q    Type
REMARK                         _______ _______ _______ _____ _____    ______ ____
ROOT
ATOM      1  C   UNL     1       0.003  -0.813  -1.099  0.00  0.00    +0.173 A 
ATOM      2  C   UNL     1       0.002  -0.004   0.002  0.00  0.00    +0.093 A 
ATOM      3  N   UNL     1       0.029  -0.816   1.082  0.00  0.00    -0.191 N 
ATOM      4  N   UNL     1       0.036  -2.132   0.599  0.00  0.00    -0.058 NA
ATOM      5  N   UNL     1       0.024  -2.092  -0.688  0.00  0.00    -0.124 NA
ATOM      6  C   UNL     1       0.043  -0.419   2.424  0.00  0.00    +0.240 A 
ATOM      7  C   UNL     1       0.072  -1.315   3.584  0.00  0.00    +0.206 A 
ATOM      8  N   UNL     1       0.078  -0.586   4.666  0.00  0.00    -0.032 NA
ATOM      9  O   UNL     1       0.054   0.774   4.272  0.00  0.00    -0.239 OA
ATOM     10  N   UNL     1       0.038   0.810   2.856  0.00  0.00    -0.027 NA
ATOM     11  N   UNL     1       0.089  -2.705   3.538  0.00  0.00    -0.337 N 
ATOM     12  H   UNL     1       0.111  -3.286   4.472  0.00  0.00    +0.144 HD
ATOM     13  H   UNL     1       0.082  -3.223   2.568  0.00  0.00    +0.144 HD
ENDROOT
BRANCH   1  15
ATOM     14  N   UNL     1      -0.013  -1.262  -3.503  0.00  0.00    -0.202 N 
ATOM     15  C   UNL     1      -0.016  -0.359  -2.502  0.00  0.00    +0.285 C 
ATOM     16  O   UNL     1      -0.034   0.831  -2.756  0.00  0.00    -0.267 OA
ATOM     17  H   UNL     1       0.004  -2.337  -3.273  0.00  0.00    +0.178 HD
BRANCH  14  19
ATOM     18  C   UNL     1      -0.027  -1.688  -5.786  0.00  0.00    +0.111 C 
ATOM     19  N   UNL     1      -0.030  -0.830  -4.835  0.00  0.00    -0.192 NA
BRANCH  18  21
ATOM     20  C   UNL     1      -1.295  -1.770  -7.916  0.00  0.00    +0.018 C 
ATOM     21  C   UNL     1      -0.047  -1.224  -7.220  0.00  0.00    +0.059 C 
BRANCH  21  22
ATOM     22  C   UNL     1       1.185  -1.728  -7.927  0.00  0.00    -0.039 A 
ATOM     23  C   UNL     1       1.424  -3.087  -8.014  0.00  0.00    +0.004 A 
ATOM     24  C   UNL     1       2.551  -3.550  -8.668  0.00  0.00    +0.000 A 
ATOM     25  C   UNL     1       3.443  -2.653  -9.225  0.00  0.00    +0.000 A 
ATOM     26  C   UNL     1       3.207  -1.295  -9.134  0.00  0.00    +0.000 A 
ATOM     27  C   UNL     1       2.077  -0.832  -8.485  0.00  0.00    +0.004 A 
ENDBRANCH  21  22
ENDBRANCH  18  21
ENDBRANCH  14  19
ENDBRANCH   1  15
BRANCH   2  28
ATOM     28  C   UNL     1      -0.018   1.503   0.010  0.00  0.00    +0.142 C 
BRANCH  28  29
ATOM     29  N   UNL     1       1.360   2.011  -0.000  0.00  0.00    -0.300 NA
ATOM     30  C   UNL     1       2.058   1.667   1.247  0.00  0.00    +0.066 C 
ATOM     31  C   UNL     1       3.510   2.144   1.164  0.00  0.00    -0.064 C 
ATOM     32  N   UNL     1       3.534   3.595   0.933  0.00  0.00    +0.379 N 
ATOM     33  C   UNL     1       2.836   3.939  -0.314  0.00  0.00    -0.064 C 
ATOM     34  C   UNL     1       1.384   3.462  -0.231  0.00  0.00    +0.066 C 
ATOM     35  C   UNL     1       4.912   4.104   0.923  0.00  0.00    -0.096 C 
ATOM     36  H   UNL     1       3.002   4.080   1.765  0.00  0.00    -0.082 HD
ENDBRANCH  28  29
ENDBRANCH   2  28
TORSDOF 6
