REMARK  Name = ZINC38790115
REMARK  5 active torsions:
REMARK  status: ('A' for Active; 'I' for Inactive)
REMARK    1  A    between atoms: C_1  and  C_2
REMARK    2  A    between atoms: C_9  and  C_14
REMARK    3  A    between atoms: C_14  and  N_15
REMARK    4  A    between atoms: N_15  and  C_16
REMARK    5  A    between atoms: C_21  and  N_22
REMARK                            x       y       z     vdW  Elec       q    Type
REMARK                         _______ _______ _______ _____ _____    ______ ____
ROOT
ATOM      1  C   UNL     1      -0.018   1.503   0.010  0.00  0.00    +0.044 C 
ATOM      2  C   UNL     1       0.002  -0.004   0.002  0.00  0.00    -0.050 A 
ATOM      3  C   UNL     1       0.005  -0.680  -1.218  0.00  0.00    +0.005 A 
ATOM      4  C   UNL     1       0.024  -2.036  -1.305  0.00  0.00    +0.024 A 
ATOM      5  C   UNL     1       0.041  -2.826  -0.141  0.00  0.00    +0.040 A 
ATOM      6  N   UNL     1       0.059  -4.155  -0.238  0.00  0.00    -0.284 N 
ATOM      7  C   UNL     1       0.075  -4.956   0.815  0.00  0.00    +0.226 C 
ATOM      8  O   UNL     1       0.092  -6.163   0.663  0.00  0.00    -0.275 OA
ATOM      9  C   UNL     1       0.073  -4.365   2.207  0.00  0.00    +0.115 C 
ATOM     10  C   UNL     1       0.053  -2.854   2.322  0.00  0.00    -0.003 C 
ATOM     11  C   UNL     1       0.037  -2.138   1.162  0.00  0.00    -0.007 A 
ATOM     12  C   UNL     1       0.022  -0.675   1.183  0.00  0.00    +0.012 A 
ATOM     13  H   UNL     1       0.061  -4.554  -1.122  0.00  0.00    +0.155 HD
ENDROOT
BRANCH   9  14
ATOM     14  C   UNL     1       1.319  -4.874   2.934  0.00  0.00    +0.118 C 
BRANCH  14  15
ATOM     15  N   UNL     1       1.224  -6.326   3.109  0.00  0.00    -0.341 N 
ATOM     16  H   UNL     1       0.448  -6.804   2.779  0.00  0.00    +0.146 HD
BRANCH  15  17
ATOM     17  C   UNL     1       2.255  -7.023   3.754  0.00  0.00    +0.048 A 
ATOM     18  C   UNL     1       3.362  -6.340   4.231  0.00  0.00    +0.027 A 
ATOM     19  C   UNL     1       4.379  -7.029   4.868  0.00  0.00    +0.040 A 
ATOM     20  C   UNL     1       4.294  -8.402   5.030  0.00  0.00    +0.125 A 
ATOM     21  C   UNL     1       3.191  -9.090   4.555  0.00  0.00    +0.063 A 
ATOM     22  C   UNL     1       2.166  -8.405   3.921  0.00  0.00    +0.048 A 
ATOM     23  F   UNL     1       5.290  -9.070   5.652  0.00  0.00    -0.205 F 
BRANCH  22  24
ATOM     24  N   UNL     1       1.047  -9.098   3.445  0.00  0.00    -0.356 N 
ATOM     25  H   UNL     1       0.332  -8.618   2.998  0.00  0.00    +0.142 HD
ATOM     26  H   UNL     1       0.986 -10.059   3.562  0.00  0.00    +0.142 HD
ENDBRANCH  22  24
ENDBRANCH  15  17
ENDBRANCH  14  15
ENDBRANCH   9  14
TORSDOF 4
