REMARK  Name = ZINC39665375
REMARK  10 active torsions:
REMARK  status: ('A' for Active; 'I' for Inactive)
REMARK    1  A    between atoms: C_1  and  C_2
REMARK    2  A    between atoms: C_12  and  O_13
REMARK    3  A    between atoms: O_13  and  C_14
REMARK    4  A    between atoms: C_14  and  C_15
REMARK    5  A    between atoms: C_19  and  C_28
REMARK    6  A    between atoms: N_30  and  C_31
REMARK    7  A    between atoms: C_31  and  C_32
REMARK    8  A    between atoms: C_32  and  C_34
REMARK    9  A    between atoms: C_32  and  O_35
REMARK   10  A    between atoms: O_35  and  C_36
REMARK                            x       y       z     vdW  Elec       q    Type
REMARK                         _______ _______ _______ _____ _____    ______ ____
ROOT
ATOM      1  C   UNL     1       0.101  -6.444   3.347  0.00  0.00    +0.253 C 
ATOM      2  O   UNL     1       0.093  -6.872   2.212  0.00  0.00    -0.272 OA
ATOM      3  N   UNL     1       0.116  -7.299   4.389  0.00  0.00    -0.297 N 
ATOM      4  C   UNL     1       0.121  -6.970   5.834  0.00  0.00    +0.121 C 
ATOM      5  C   UNL     1      -0.811  -8.021   6.477  0.00  0.00    +0.100 C 
ATOM      6  C   UNL     1      -0.797  -9.208   5.499  0.00  0.00    -0.004 C 
ATOM      7  C   UNL     1       0.127  -8.781   4.349  0.00  0.00    +0.115 C 
ATOM      8  C   UNL     1      -2.203  -9.472   4.968  0.00  0.00    -0.010 C 
ATOM      9  C   UNL     1      -2.173 -10.691   4.042  0.00  0.00    -0.082 C 
ATOM     10  N   UNL     1      -1.681 -11.858   4.783  0.00  0.00    +0.379 N 
ATOM     11  C   UNL     1      -0.296 -11.633   5.211  0.00  0.00    -0.082 C 
ATOM     12  C   UNL     1      -0.245 -10.453   6.186  0.00  0.00    -0.010 C 
ATOM     13  H   UNL     1      -2.262 -12.009   5.595  0.00  0.00    -0.086 HD
ATOM     14  H   UNL     1      -1.721 -12.673   4.189  0.00  0.00    -0.086 HD
ENDROOT
BRANCH   5  15
ATOM     15  C   UNL     1      -2.207  -7.471   6.618  0.00  0.00    +0.218 C 
ATOM     16  O   UNL     1      -2.587  -6.587   5.879  0.00  0.00    -0.275 OA
ATOM     17  N   UNL     1      -3.032  -7.959   7.564  0.00  0.00    -0.312 N 
ATOM     18  H   UNL     1      -2.728  -8.666   8.155  0.00  0.00    +0.149 HD
BRANCH  17  19
ATOM     19  C   UNL     1      -4.389  -7.424   7.701  0.00  0.00    +0.148 C 
BRANCH  19  20
ATOM     20  C   UNL     1      -5.110  -8.146   8.841  0.00  0.00    +0.187 C 
ATOM     21  C   UNL     1      -6.527  -7.587   8.984  0.00  0.00    +0.053 C 
BRANCH  20  22
ATOM     22  O   UNL     1      -5.176  -9.544   8.553  0.00  0.00    -0.488 OA
BRANCH  22  23
ATOM     23  C   UNL     1      -5.289 -10.388   9.612  0.00  0.00    +0.121 A 
ATOM     24  C   UNL     1      -5.239 -11.760   9.415  0.00  0.00    +0.045 A 
ATOM     25  C   UNL     1      -5.354 -12.616  10.494  0.00  0.00    +0.004 A 
ATOM     26  C   UNL     1      -5.519 -12.106  11.768  0.00  0.00    +0.000 A 
ATOM     27  C   UNL     1      -5.569 -10.738  11.967  0.00  0.00    +0.004 A 
ATOM     28  C   UNL     1      -5.449  -9.878  10.892  0.00  0.00    +0.045 A 
ENDBRANCH  22  23
ENDBRANCH  20  22
ENDBRANCH  19  20
ENDBRANCH  17  19
ENDBRANCH   5  15
BRANCH   1  29
ATOM     29  C   UNL     1       0.092  -4.957   3.592  0.00  0.00    +0.324 C 
BRANCH  29  30
ATOM     30  O   UNL     1       0.076  -4.268   2.341  0.00  0.00    -0.479 OA
BRANCH  30  42
ATOM     31  C   UNL     1       0.013   1.503   0.028  0.00  0.00    +0.045 C 
ATOM     32  C   UNL     1       0.023  -0.004   0.012  0.00  0.00    -0.033 A 
ATOM     33  C   UNL     1       0.018  -0.689  -1.159  0.00  0.00    +0.096 A 
ATOM     34  C   UNL     1       0.029  -2.100  -1.146  0.00  0.00    +0.338 A 
ATOM     35  O   UNL     1       0.024  -2.704  -2.204  0.00  0.00    -0.245 OA
ATOM     36  O   UNL     1       0.044  -2.794   0.002  0.00  0.00    -0.418 OA
ATOM     37  C   UNL     1       0.050  -2.173   1.201  0.00  0.00    +0.181 A 
ATOM     38  C   UNL     1       0.046  -0.769   1.262  0.00  0.00    +0.024 A 
ATOM     39  C   UNL     1       0.058  -0.123   2.503  0.00  0.00    +0.012 A 
ATOM     40  C   UNL     1       0.079  -0.869   3.660  0.00  0.00    +0.004 A 
ATOM     41  C   UNL     1       0.089  -2.255   3.603  0.00  0.00    +0.049 A 
ATOM     42  C   UNL     1       0.066  -2.909   2.384  0.00  0.00    +0.164 A 
ENDBRANCH  30  42
ENDBRANCH  29  30
ENDBRANCH   1  29
TORSDOF 8
