REMARK  Name = ZINC13745302
REMARK  6 active torsions:
REMARK  status: ('A' for Active; 'I' for Inactive)
REMARK    1  A    between atoms: C_1  and  C_2
REMARK    2  A    between atoms: C_9  and  N_14
REMARK    3  A    between atoms: C_10  and  C_11
REMARK    4  A    between atoms: C_15  and  C_17
REMARK    5  A    between atoms: C_17  and  N_51
REMARK    6  A    between atoms: C_21  and  C_24
REMARK                            x       y       z     vdW  Elec       q    Type
REMARK                         _______ _______ _______ _____ _____    ______ ____
ROOT
ATOM      1  C   UNL     1      -5.193   1.961  -4.453  0.00  0.00    +0.008 C 
ATOM      2  C   UNL     1      -4.323   1.500  -3.281  0.00  0.00    -0.009 C 
ATOM      3  C   UNL     1      -2.853   1.806  -3.582  0.00  0.00    +0.008 C 
ATOM      4  C   UNL     1      -1.958   1.133  -2.540  0.00  0.00    +0.037 C 
ATOM      5  C   UNL     1      -2.443   1.528  -1.151  0.00  0.00    -0.023 A 
ATOM      6  C   UNL     1      -3.688   2.017  -0.962  0.00  0.00    -0.004 A 
ATOM      7  S   UNL     1      -3.797   2.319   0.779  0.00  0.00    -0.077 S 
ATOM      8  C   UNL     1      -2.215   1.795   1.253  0.00  0.00    +0.084 A 
ATOM      9  C   UNL     1      -1.640   1.400   0.053  0.00  0.00    +0.068 A 
ATOM     10  C   UNL     1      -4.734   2.252  -2.007  0.00  0.00    +0.046 C 
ENDROOT
BRANCH   9  11
ATOM     11  C   UNL     1      -0.271   0.878   0.001  0.00  0.00    +0.244 C 
ATOM     12  O   UNL     1      -0.069  -0.316   0.126  0.00  0.00    -0.270 OA
ATOM     13  N   UNL     1       0.764   1.720  -0.190  0.00  0.00    -0.325 N 
ATOM     14  H   UNL     1       1.670   1.375  -0.228  0.00  0.00    +0.145 HD
ATOM     15  H   UNL     1       0.604   2.672  -0.289  0.00  0.00    +0.145 HD
ENDBRANCH   9  11
BRANCH   8  16
ATOM     16  N   UNL     1      -1.657   1.776   2.522  0.00  0.00    -0.281 N 
ATOM     17  C   UNL     1      -2.375   2.204   3.580  0.00  0.00    +0.201 C 
ATOM     18  O   UNL     1      -3.509   2.606   3.421  0.00  0.00    -0.278 OA
ATOM     19  H   UNL     1      -0.751   1.455   2.650  0.00  0.00    +0.155 HD
BRANCH  17  20
ATOM     20  C   UNL     1      -1.770   2.184   4.960  0.00  0.00    +0.019 C 
BRANCH  20  27
ATOM     21  C   UNL     1      -2.254   2.613   7.292  0.00  0.00    -0.078 C 
ATOM     22  C   UNL     1      -3.305   3.176   8.252  0.00  0.00    -0.018 C 
ATOM     23  C   UNL     1      -3.485   4.673   7.984  0.00  0.00    -0.001 C 
ATOM     24  C   UNL     1      -3.888   4.877   6.521  0.00  0.00    -0.031 C 
ATOM     25  C   UNL     1      -2.820   4.265   5.612  0.00  0.00    -0.075 C 
ATOM     26  C   UNL     1      -4.011   6.374   6.230  0.00  0.00    +0.005 C 
ATOM     27  N   UNL     1      -2.713   2.820   5.902  0.00  0.00    +0.386 N 
ATOM     28  H   UNL     1      -3.638   2.389   5.790  0.00  0.00    -0.081 HD
ENDBRANCH  20  27
ENDBRANCH  17  20
ENDBRANCH   8  16
TORSDOF 4
