REMARK  Name = ZINC62659478
REMARK  11 active torsions:
REMARK  status: ('A' for Active; 'I' for Inactive)
REMARK    1  A    between atoms: C_1  and  C_2
REMARK    2  A    between atoms: C_2  and  C_3
REMARK    3  A    between atoms: C_3  and  C_4
REMARK    4  A    between atoms: C_3  and  N_18
REMARK    5  A    between atoms: C_4  and  N_5
REMARK    6  A    between atoms: N_8  and  C_9
REMARK    7  A    between atoms: C_9  and  C_10
REMARK    8  A    between atoms: C_9  and  C_11
REMARK    9  A    between atoms: C_11  and  O_12
REMARK   10  A    between atoms: O_12  and  C_13
REMARK   11  A    between atoms: C_13  and  C_14
REMARK                            x       y       z     vdW  Elec       q    Type
REMARK                         _______ _______ _______ _____ _____    ______ ____
ROOT
ATOM      1  C   UNL     1       0.794  -2.058   1.148  0.00  0.00    +0.090 C 
ENDROOT
BRANCH   1   2
ATOM      2  N   UNL     1       1.575  -2.609   2.258  0.00  0.00    -0.301 N 
ATOM      3  C   UNL     1       1.743  -3.942   2.367  0.00  0.00    +0.300 C 
ATOM      4  O   UNL     1       1.245  -4.687   1.545  0.00  0.00    -0.253 OA
ATOM      5  N   UNL     1       2.462  -4.450   3.388  0.00  0.00    -0.295 N 
ATOM      6  H   UNL     1       1.973  -2.015   2.914  0.00  0.00    +0.150 HD
ATOM      7  H   UNL     1       2.859  -3.856   4.044  0.00  0.00    +0.151 HD
BRANCH   5   8
ATOM      8  C   UNL     1       2.643  -5.899   3.506  0.00  0.00    +0.097 C 
ATOM      9  C   UNL     1       1.446  -6.504   4.242  0.00  0.00    +0.030 C 
BRANCH   8  10
ATOM     10  C   UNL     1       3.924  -6.189   4.291  0.00  0.00    +0.182 C 
BRANCH  10  11
ATOM     11  O   UNL     1       3.780  -5.715   5.631  0.00  0.00    -0.369 OA
BRANCH  11  12
ATOM     12  C   UNL     1       4.927  -5.939   6.454  0.00  0.00    +0.273 C 
BRANCH  12  13
ATOM     13  C   UNL     1       4.661  -5.394   7.859  0.00  0.00    +0.413 C 
ATOM     14  F   UNL     1       3.556  -6.050   8.412  0.00  0.00    -0.168 F 
ATOM     15  F   UNL     1       5.784  -5.613   8.664  0.00  0.00    -0.168 F 
ATOM     16  F   UNL     1       4.400  -4.021   7.785  0.00  0.00    -0.168 F 
ENDBRANCH  12  13
ENDBRANCH  11  12
ENDBRANCH  10  11
ENDBRANCH   8  10
ENDBRANCH   5   8
ENDBRANCH   1   2
BRANCH   1  17
ATOM     17  C   UNL     1       0.883  -0.530   1.171  0.00  0.00    -0.051 C 
BRANCH  17  18
ATOM     18  N   UNL     1       2.210  -0.111   0.700  0.00  0.00    +0.385 N 
ATOM     19  C   UNL     1       2.488  -0.731  -0.605  0.00  0.00    -0.073 C 
ATOM     20  C   UNL     1       3.716  -0.053  -1.215  0.00  0.00    +0.017 C 
ATOM     21  C   UNL     1       4.840  -0.035  -0.212  0.00  0.00    -0.048 A 
ATOM     22  C   UNL     1       6.128   0.213  -0.661  0.00  0.00    +0.004 A 
ATOM     23  C   UNL     1       7.183   0.240   0.229  0.00  0.00    +0.000 A 
ATOM     24  C   UNL     1       6.954   0.019   1.575  0.00  0.00    +0.000 A 
ATOM     25  C   UNL     1       5.672  -0.229   2.022  0.00  0.00    +0.002 A 
ATOM     26  C   UNL     1       4.611  -0.258   1.129  0.00  0.00    -0.061 A 
ATOM     27  C   UNL     1       3.230  -0.541   1.660  0.00  0.00    -0.042 C 
ATOM     28  H   UNL     1       2.234   0.894   0.610  0.00  0.00    -0.081 HD
ENDBRANCH  17  18
BRANCH  17  30
ATOM     29  C   UNL     1      -0.153   1.585   0.337  0.00  0.00    +0.002 C 
ATOM     30  C   UNL     1      -0.192   0.057   0.255  0.00  0.00    -0.017 C 
ENDBRANCH  17  30
ENDBRANCH   1  17
TORSDOF 9
