REMARK  Name = ZINC36543187
REMARK  12 active torsions:
REMARK  status: ('A' for Active; 'I' for Inactive)
REMARK    1  A    between atoms: C_1  and  C_2
REMARK    2  A    between atoms: C_2  and  C_3
REMARK    3  A    between atoms: C_3  and  C_4
REMARK    4  A    between atoms: C_4  and  N_5
REMARK    5  A    between atoms: C_6  and  C_8
REMARK    6  A    between atoms: C_8  and  C_10
REMARK    7  A    between atoms: C_8  and  N_19
REMARK    8  A    between atoms: C_11  and  O_18
REMARK    9  A    between atoms: C_13  and  O_17
REMARK   10  A    between atoms: C_15  and  O_16
REMARK   11  A    between atoms: N_19  and  C_20
REMARK   12  A    between atoms: C_27  and  C_29
REMARK                            x       y       z     vdW  Elec       q    Type
REMARK                         _______ _______ _______ _____ _____    ______ ____
ROOT
ATOM      1  C   UNL     1      -4.138  -4.636   0.019  0.00  0.00    +0.204 C 
ENDROOT
BRANCH   1   2
ATOM      2  C   UNL     1      -4.680  -4.087   1.313  0.00  0.00    +0.065 A 
ATOM      3  C   UNL     1      -4.427  -4.746   2.507  0.00  0.00    +0.129 A 
ATOM      4  C   UNL     1      -4.926  -4.240   3.698  0.00  0.00    +0.091 A 
ATOM      5  C   UNL     1      -5.678  -3.075   3.695  0.00  0.00    +0.124 A 
ATOM      6  C   UNL     1      -5.930  -2.415   2.502  0.00  0.00    +0.091 A 
ATOM      7  C   UNL     1      -5.427  -2.919   1.311  0.00  0.00    +0.129 A 
BRANCH   7   8
ATOM      8  O   UNL     1      -5.670  -2.269   0.142  0.00  0.00    -0.506 OA
ATOM      9  H   UNL     1      -6.479  -2.554  -0.305  0.00  0.00    +0.292 HD
ENDBRANCH   7   8
BRANCH   5  10
ATOM     10  O   UNL     1      -6.168  -2.580   4.862  0.00  0.00    -0.507 OA
ATOM     11  H   UNL     1      -5.573  -1.961   5.307  0.00  0.00    +0.292 HD
ENDBRANCH   5  10
BRANCH   3  12
ATOM     12  O   UNL     1      -3.690  -5.888   2.509  0.00  0.00    -0.506 OA
ATOM     13  H   UNL     1      -2.740  -5.743   2.616  0.00  0.00    +0.292 HD
ENDBRANCH   3  12
ENDBRANCH   1   2
BRANCH   1  15
ATOM     14  N   UNL     1      -1.927  -3.527   0.068  0.00  0.00    -0.313 N 
ATOM     15  C   UNL     1      -2.632  -4.675   0.082  0.00  0.00    +0.239 C 
ATOM     16  O   UNL     1      -2.055  -5.740   0.144  0.00  0.00    -0.273 OA
ATOM     17  H   UNL     1      -2.389  -2.675   0.018  0.00  0.00    +0.149 HD
BRANCH  14  18
ATOM     18  C   UNL     1      -0.464  -3.565   0.129  0.00  0.00    +0.104 C 
BRANCH  18  19
ATOM     19  C   UNL     1       0.085  -2.137   0.099  0.00  0.00    +0.018 C 
BRANCH  19  21
ATOM     20  C   UNL     1       2.162  -0.749   0.132  0.00  0.00    +0.004 C 
ATOM     21  C   UNL     1       1.613  -2.176   0.162  0.00  0.00    -0.002 C 
ENDBRANCH  19  21
ENDBRANCH  18  19
ENDBRANCH  14  18
ENDBRANCH   1  15
BRANCH   1  22
ATOM     22  N   UNL     1      -4.653  -5.992  -0.190  0.00  0.00    -0.250 N 
ATOM     23  C   UNL     1      -4.368  -6.653  -1.329  0.00  0.00    +0.252 C 
ATOM     24  O   UNL     1      -3.612  -6.161  -2.145  0.00  0.00    -0.270 OA
BRANCH  22  25
ATOM     25  C   UNL     1      -5.441  -6.600   0.793  0.00  0.00    +0.056 A 
ATOM     26  C   UNL     1      -6.717  -6.120   1.058  0.00  0.00    +0.025 A 
ATOM     27  C   UNL     1      -7.492  -6.723   2.029  0.00  0.00    +0.002 A 
ATOM     28  C   UNL     1      -7.000  -7.803   2.738  0.00  0.00    +0.002 A 
ATOM     29  C   UNL     1      -5.730  -8.284   2.478  0.00  0.00    +0.022 A 
ATOM     30  C   UNL     1      -4.950  -7.689   1.503  0.00  0.00    +0.062 A 
ATOM     31 CL   UNL     1      -3.358  -8.297   1.172  0.00  0.00    -0.082 Cl
ENDBRANCH  22  25
BRANCH  23  32
ATOM     32  C   UNL     1      -4.974  -7.975  -1.588  0.00  0.00    +0.037 A 
ATOM     33  C   UNL     1      -6.259  -8.261  -1.121  0.00  0.00    +0.014 A 
ATOM     34  C   UNL     1      -6.819  -9.497  -1.365  0.00  0.00    +0.021 A 
ATOM     35  C   UNL     1      -6.110 -10.454  -2.071  0.00  0.00    +0.041 A 
ATOM     36  C   UNL     1      -4.835 -10.177  -2.537  0.00  0.00    +0.021 A 
ATOM     37  C   UNL     1      -4.267  -8.943  -2.304  0.00  0.00    +0.014 A 
ATOM     38 CL   UNL     1      -6.822 -12.008  -2.374  0.00  0.00    -0.084 Cl
ENDBRANCH  23  32
ENDBRANCH   1  22
TORSDOF 11
