REMARK  Name = ZINC44548071
REMARK  13 active torsions:
REMARK  status: ('A' for Active; 'I' for Inactive)
REMARK    1  A    between atoms: C_2  and  C_8
REMARK    2  A    between atoms: N_9  and  N_10
REMARK    3  A    between atoms: C_11  and  O_12
REMARK    4  A    between atoms: O_12  and  C_13
REMARK    5  A    between atoms: C_13  and  C_14
REMARK    6  A    between atoms: C_14  and  C_16
REMARK    7  A    between atoms: C_14  and  O_27
REMARK    8  A    between atoms: C_16  and  C_18
REMARK    9  A    between atoms: C_16  and  O_26
REMARK   10  A    between atoms: C_18  and  C_20
REMARK   11  A    between atoms: C_18  and  O_25
REMARK   12  A    between atoms: C_20  and  C_22
REMARK   13  A    between atoms: C_20  and  O_24
REMARK                            x       y       z     vdW  Elec       q    Type
REMARK                         _______ _______ _______ _____ _____    ______ ____
ROOT
ATOM      1  O   UNL     1       3.396   7.584   0.009  0.00  0.00    -0.478 OA
ENDROOT
BRANCH   1   3
ATOM      2  N   UNL     1       2.288   5.572   0.009  0.00  0.00    -0.143 NA
ATOM      3  C   UNL     1       3.409   6.233   0.002  0.00  0.00    +0.321 C 
BRANCH   2   5
ATOM      4  C   UNL     1       1.172   3.505   0.009  0.00  0.00    +0.137 C 
ATOM      5  N   UNL     1       2.301   4.171   0.002  0.00  0.00    -0.260 N 
ATOM      6  N   UNL     1      -0.033   4.186   0.024  0.00  0.00    -0.342 N 
ATOM      7  H   UNL     1      -0.869   3.693   0.029  0.00  0.00    +0.144 HD
ATOM      8  H   UNL     1      -0.042   5.156   0.029  0.00  0.00    +0.144 HD
ATOM      9  H   UNL     1       3.145   3.694  -0.008  0.00  0.00    +0.190 HD
BRANCH   4  11
ATOM     10  C   UNL     1      -0.016   1.315   0.009  0.00  0.00    +0.142 A 
ATOM     11  C   UNL     1       1.186   2.028   0.002  0.00  0.00    +0.122 A 
ATOM     12  N   UNL     1       2.344   1.370  -0.013  0.00  0.00    -0.229 NA
ATOM     13  C   UNL     1       2.350   0.050  -0.020  0.00  0.00    +0.148 A 
ATOM     14  C   UNL     1       1.154  -0.652  -0.013  0.00  0.00    +0.150 A 
ATOM     15  N   UNL     1       0.002  -0.004   0.002  0.00  0.00    -0.258 NA
ATOM     16 CL   UNL     1       3.859  -0.809  -0.039  0.00  0.00    -0.060 Cl
ENDBRANCH   4  11
ENDBRANCH   2   5
ENDBRANCH   1   3
BRANCH   1  17
ATOM     17  C   UNL     1       4.663   8.245   0.000  0.00  0.00    +0.264 C 
BRANCH  17  18
ATOM     18  C   UNL     1       4.449   9.760   0.010  0.00  0.00    +0.183 C 
BRANCH  18  19
ATOM     19  O   UNL     1       3.830  10.145   1.239  0.00  0.00    -0.386 OA
ATOM     20  H   UNL     1       4.347   9.925   2.026  0.00  0.00    +0.210 HD
ENDBRANCH  18  19
BRANCH  18  21
ATOM     21  C   UNL     1       5.799  10.467  -0.125  0.00  0.00    +0.178 C 
BRANCH  21  22
ATOM     22  O   UNL     1       6.418  10.082  -1.354  0.00  0.00    -0.386 OA
ATOM     23  H   UNL     1       5.901  10.302  -2.140  0.00  0.00    +0.210 HD
ENDBRANCH  21  22
BRANCH  21  24
ATOM     24  C   UNL     1       5.584  11.982  -0.115  0.00  0.00    +0.181 C 
BRANCH  24  25
ATOM     25  O   UNL     1       4.650  12.337  -1.137  0.00  0.00    -0.386 OA
ATOM     26  H   UNL     1       4.933  12.095  -2.029  0.00  0.00    +0.210 HD
ENDBRANCH  24  25
BRANCH  24  27
ATOM     27  C   UNL     1       6.917  12.688  -0.374  0.00  0.00    +0.208 C 
BRANCH  27  28
ATOM     28  C   UNL     1       6.685  14.172  -0.487  0.00  0.00    +0.257 C 
ATOM     29  O   UNL     1       6.977  14.753  -1.505  0.00  0.00    -0.298 OA
ENDBRANCH  27  28
BRANCH  27  30
ATOM     30  O   UNL     1       7.485  12.200  -1.592  0.00  0.00    -0.382 OA
ATOM     31  H   UNL     1       6.929  12.344  -2.370  0.00  0.00    +0.210 HD
ENDBRANCH  27  30
ENDBRANCH  24  27
ENDBRANCH  21  24
ENDBRANCH  18  21
ENDBRANCH  17  18
ENDBRANCH   1  17
TORSDOF 13
