REMARK  Name = ZINC04959822
REMARK  10 active torsions:
REMARK  status: ('A' for Active; 'I' for Inactive)
REMARK    1  A    between atoms: C_1  and  C_2
REMARK    2  A    between atoms: C_5  and  N_8
REMARK    3  A    between atoms: N_9  and  C_10
REMARK    4  A    between atoms: C_12  and  C_32
REMARK    5  A    between atoms: C_15  and  N_16
REMARK    6  A    between atoms: N_16  and  C_17
REMARK    7  A    between atoms: C_19  and  O_31
REMARK    8  A    between atoms: C_21  and  O_30
REMARK    9  A    between atoms: C_23  and  O_29
REMARK   10  A    between atoms: C_25  and  C_28
REMARK                            x       y       z     vdW  Elec       q    Type
REMARK                         _______ _______ _______ _____ _____    ______ ____
ROOT
ATOM      1  C   UNL     1       0.168  -4.118   2.275  0.00  0.00    +0.107 A 
ATOM      2  C   UNL     1      -0.066  -2.740   2.303  0.00  0.00    +0.034 A 
ATOM      3  C   UNL     1      -0.067  -2.068   3.506  0.00  0.00    -0.048 A 
ATOM      4  C   UNL     1       0.162  -2.751   4.690  0.00  0.00    +0.005 A 
ATOM      5  C   UNL     1       0.394  -4.112   4.679  0.00  0.00    +0.025 A 
ATOM      6  C   UNL     1       0.394  -4.808   3.478  0.00  0.00    +0.057 A 
ATOM      7  C   UNL     1      -0.319  -0.583   3.534  0.00  0.00    +0.044 C 
ENDROOT
BRANCH   1   9
ATOM      8  N   UNL     1       0.562  -4.195   0.012  0.00  0.00    -0.149 NA
ATOM      9  N   UNL     1       0.171  -4.790   1.088  0.00  0.00    -0.147 NA
BRANCH   8  14
ATOM     10  C   UNL     1       4.050   0.230   0.339  0.00  0.00    +0.044 C 
ATOM     11  C   UNL     1       3.119  -0.952   0.252  0.00  0.00    -0.050 A 
ATOM     12  C   UNL     1       2.964  -1.789   1.343  0.00  0.00    +0.005 A 
ATOM     13  C   UNL     1       2.113  -2.872   1.270  0.00  0.00    +0.030 A 
ATOM     14  C   UNL     1       1.407  -3.123   0.091  0.00  0.00    +0.086 A 
ATOM     15  C   UNL     1       1.568  -2.274  -1.007  0.00  0.00    +0.030 A 
ATOM     16  C   UNL     1       2.419  -1.192  -0.918  0.00  0.00    +0.005 A 
ENDBRANCH   8  14
ENDBRANCH   1   9
BRANCH   6  17
ATOM     17  N   UNL     1       0.623  -6.180   3.465  0.00  0.00    -0.315 N 
ATOM     18  H   UNL     1       0.626  -6.663   2.624  0.00  0.00    +0.149 HD
BRANCH  17  19
ATOM     19  C   UNL     1       0.858  -6.895   4.722  0.00  0.00    +0.235 C 
ATOM     20  C   UNL     1       0.242  -8.294   4.636  0.00  0.00    +0.192 C 
ATOM     21  C   UNL     1       0.932  -9.080   3.517  0.00  0.00    +0.178 C 
ATOM     22  C   UNL     1       2.438  -9.124   3.794  0.00  0.00    +0.174 C 
ATOM     23  C   UNL     1       2.970  -7.693   3.912  0.00  0.00    +0.149 C 
ATOM     24  O   UNL     1       2.264  -7.009   4.949  0.00  0.00    -0.351 OA
ATOM     25  C   UNL     1       4.462  -7.729   4.248  0.00  0.00    +0.041 C 
BRANCH  22  26
ATOM     26  O   UNL     1       2.679  -9.827   5.015  0.00  0.00    -0.387 OA
ATOM     27  H   UNL     1       3.614  -9.893   5.253  0.00  0.00    +0.210 HD
ENDBRANCH  22  26
BRANCH  21  28
ATOM     28  O   UNL     1       0.413 -10.411   3.477  0.00  0.00    -0.386 OA
ATOM     29  H   UNL     1      -0.539 -10.457   3.312  0.00  0.00    +0.210 HD
ENDBRANCH  21  28
BRANCH  20  30
ATOM     30  O   UNL     1       0.423  -8.973   5.880  0.00  0.00    -0.385 OA
ATOM     31  H   UNL     1       0.014  -8.527   6.635  0.00  0.00    +0.210 HD
ENDBRANCH  20  30
ENDBRANCH  17  19
ENDBRANCH   6  17
TORSDOF 7
