REMARK  Name = ZINC44988970
REMARK  6 active torsions:
REMARK  status: ('A' for Active; 'I' for Inactive)
REMARK    1  A    between atoms: C_1  and  C_2
REMARK    2  A    between atoms: C_2  and  C_4
REMARK    3  A    between atoms: C_2  and  N_14
REMARK    4  A    between atoms: C_4  and  N_5
REMARK    5  A    between atoms: N_5  and  C_6
REMARK    6  A    between atoms: C_11  and  N_12
REMARK                            x       y       z     vdW  Elec       q    Type
REMARK                         _______ _______ _______ _____ _____    ______ ____
ROOT
ATOM      1  N   UNL     1       1.111  -1.924  -1.127  0.00  0.00    -0.344 N 
ATOM      2  H   UNL     1       0.732  -2.437  -0.396  0.00  0.00    +0.146 HD
ENDROOT
BRANCH   1   3
ATOM      3  C   UNL     1       1.928  -2.554  -2.074  0.00  0.00    +0.048 A 
ATOM      4  C   UNL     1       2.475  -1.822  -3.116  0.00  0.00    +0.026 A 
ATOM      5  C   UNL     1       3.282  -2.446  -4.051  0.00  0.00    +0.017 A 
ATOM      6  C   UNL     1       3.544  -3.800  -3.949  0.00  0.00    +0.020 A 
ATOM      7  C   UNL     1       3.002  -4.538  -2.913  0.00  0.00    +0.039 A 
ATOM      8  C   UNL     1       2.196  -3.919  -1.969  0.00  0.00    +0.047 A 
ATOM      9 BR   UNL     1       4.647  -4.646  -5.232  0.00  0.00    -0.050 Br
BRANCH   8  10
ATOM     10  N   UNL     1       1.650  -4.662  -0.915  0.00  0.00    -0.357 N 
ATOM     11  H   UNL     1       1.084  -4.229  -0.258  0.00  0.00    +0.142 HD
ATOM     12  H   UNL     1       1.838  -5.611  -0.843  0.00  0.00    +0.142 HD
ENDBRANCH   8  10
ENDBRANCH   1   3
BRANCH   1  13
ATOM     13  C   UNL     1       0.830  -0.491  -1.240  0.00  0.00    +0.086 C 
BRANCH  13  15
ATOM     14  C   UNL     1      -0.166   1.486  -0.080  0.00  0.00    -0.012 C 
ATOM     15  C   UNL     1       0.029  -0.031  -0.020  0.00  0.00    -0.054 C 
BRANCH  15  16
ATOM     16  N   UNL     1       0.759  -0.383   1.206  0.00  0.00    +0.382 N 
ATOM     17  C   UNL     1      -0.074  -0.074   2.375  0.00  0.00    -0.078 C 
ATOM     18  C   UNL     1       0.648  -0.513   3.650  0.00  0.00    -0.019 C 
ATOM     19  C   UNL     1       1.981   0.234   3.759  0.00  0.00    -0.004 C 
ATOM     20  C   UNL     1       2.810  -0.036   2.500  0.00  0.00    -0.019 C 
ATOM     21  C   UNL     1       2.008   0.386   1.267  0.00  0.00    -0.078 C 
ATOM     22  H   UNL     1       0.971  -1.369   1.198  0.00  0.00    -0.081 HD
ENDBRANCH  15  16
ENDBRANCH  13  15
ENDBRANCH   1  13
TORSDOF 5
