REMARK  Name = ZINC39560948
REMARK  14 active torsions:
REMARK  status: ('A' for Active; 'I' for Inactive)
REMARK    1  A    between atoms: C_1  and  C_2
REMARK    2  A    between atoms: C_2  and  C_4
REMARK    3  A    between atoms: C_2  and  N_7
REMARK    4  A    between atoms: C_8  and  C_10
REMARK    5  A    between atoms: C_12  and  N_21
REMARK    6  A    between atoms: C_14  and  O_20
REMARK    7  A    between atoms: C_16  and  O_19
REMARK    8  A    between atoms: C_22  and  C_24
REMARK    9  A    between atoms: C_24  and  C_26
REMARK   10  A    between atoms: C_24  and  N_30
REMARK   11  A    between atoms: C_26  and  C_27
REMARK   12  A    between atoms: C_27  and  C_28
REMARK   13  A    between atoms: C_27  and  C_29
REMARK   14  A    between atoms: N_30  and  C_31
REMARK                            x       y       z     vdW  Elec       q    Type
REMARK                         _______ _______ _______ _____ _____    ______ ____
ROOT
ATOM      1  C   UNL     1      -0.341  -2.881  -4.801  0.00  0.00    +0.015 C 
ATOM      2  C   UNL     1      -0.879  -2.502  -5.940  0.00  0.00    +0.006 C 
ATOM      3  C   UNL     1      -0.183  -2.599  -7.266  0.00  0.00    +0.127 C 
ATOM      4  C   UNL     1       1.005  -3.558  -7.168  0.00  0.00    +0.167 C 
ATOM      5  C   UNL     1       1.846  -3.168  -5.946  0.00  0.00    +0.149 C 
ATOM      6  C   UNL     1       1.038  -3.463  -4.683  0.00  0.00    +0.074 C 
ENDROOT
BRANCH   1   8
ATOM      7  N   UNL     1      -0.616  -3.092  -2.384  0.00  0.00    -0.301 N 
ATOM      8  C   UNL     1      -1.133  -2.721  -3.572  0.00  0.00    +0.240 C 
ATOM      9  O   UNL     1      -2.254  -2.253  -3.628  0.00  0.00    -0.271 OA
ATOM     10  H   UNL     1       0.278  -3.465  -2.339  0.00  0.00    +0.150 HD
BRANCH   7  12
ATOM     11  C   UNL     1      -1.233  -1.509  -0.625  0.00  0.00    +0.038 C 
ATOM     12  C   UNL     1      -1.405  -2.932  -1.160  0.00  0.00    +0.156 C 
BRANCH  12  13
ATOM     13  C   UNL     1      -0.932  -3.919  -0.124  0.00  0.00    +0.231 C 
ATOM     14  O   UNL     1      -0.025  -4.681  -0.383  0.00  0.00    -0.274 OA
ATOM     15  N   UNL     1      -1.516  -3.955   1.089  0.00  0.00    -0.328 N 
ATOM     16  H   UNL     1      -2.242  -3.346   1.296  0.00  0.00    +0.145 HD
ATOM     17  H   UNL     1      -1.212  -4.590   1.756  0.00  0.00    +0.145 HD
ENDBRANCH  12  13
ENDBRANCH   7  12
ENDBRANCH   1   8
BRANCH   3  18
ATOM     18  N   UNL     1       0.298  -1.273  -7.660  0.00  0.00    -0.308 N 
ATOM     19  C   UNL     1      -0.527  -0.420  -8.300  0.00  0.00    +0.200 C 
ATOM     20  O   UNL     1      -1.667  -0.750  -8.549  0.00  0.00    -0.278 OA
ATOM     21  H   UNL     1       1.210  -1.009  -7.461  0.00  0.00    +0.149 HD
BRANCH  19  22
ATOM     22  C   UNL     1      -0.032   0.945  -8.706  0.00  0.00    +0.016 C 
BRANCH  22  23
ATOM     23  N   UNL     1      -0.895   1.484  -9.765  0.00  0.00    +0.385 N 
ATOM     24  C   UNL     1      -0.330   2.744 -10.264  0.00  0.00    -0.099 C 
ATOM     25  H   UNL     1      -0.954   0.819 -10.521  0.00  0.00    -0.085 HD
ATOM     26  H   UNL     1      -1.818   1.653  -9.393  0.00  0.00    -0.085 HD
ENDBRANCH  22  23
BRANCH  22  27
ATOM     27  C   UNL     1      -0.065   1.880  -7.495  0.00  0.00    -0.004 C 
BRANCH  27  28
ATOM     28  C   UNL     1       0.945   1.399  -6.452  0.00  0.00    -0.018 C 
ATOM     29  C   UNL     1       2.362   1.537  -7.013  0.00  0.00    +0.007 C 
ATOM     30  C   UNL     1       0.814   2.249  -5.186  0.00  0.00    +0.007 C 
ENDBRANCH  27  28
ENDBRANCH  22  27
ENDBRANCH  19  22
ENDBRANCH   3  18
BRANCH   5  31
ATOM     31  O   UNL     1       3.057  -3.926  -5.935  0.00  0.00    -0.389 OA
ATOM     32  H   UNL     1       3.638  -3.729  -5.188  0.00  0.00    +0.210 HD
ENDBRANCH   5  31
BRANCH   4  33
ATOM     33  O   UNL     1       1.798  -3.462  -8.352  0.00  0.00    -0.387 OA
ATOM     34  H   UNL     1       2.570  -4.045  -8.357  0.00  0.00    +0.210 HD
ENDBRANCH   4  33
TORSDOF 10
