REMARK  Name = ZINC63698902
REMARK  9 active torsions:
REMARK  status: ('A' for Active; 'I' for Inactive)
REMARK    1  A    between atoms: C_1  and  N_2
REMARK    2  A    between atoms: C_3  and  C_28
REMARK    3  A    between atoms: C_7  and  S_9
REMARK    4  A    between atoms: S_9  and  C_10
REMARK    5  A    between atoms: C_10  and  C_11
REMARK    6  A    between atoms: N_13  and  C_14
REMARK    7  A    between atoms: C_14  and  C_15
REMARK    8  A    between atoms: C_20  and  O_21
REMARK    9  A    between atoms: O_21  and  C_22
REMARK                            x       y       z     vdW  Elec       q    Type
REMARK                         _______ _______ _______ _____ _____    ______ ____
ROOT
ATOM      1  C   UNL     1       0.894   1.949   2.712  0.00  0.00    +0.168 C 
ENDROOT
BRANCH   1   2
ATOM      2  C   UNL     1       1.778   3.050   3.238  0.00  0.00    +0.223 C 
ATOM      3  O   UNL     1       2.985   2.949   3.160  0.00  0.00    -0.275 OA
ATOM      4  N   UNL     1       1.229   4.148   3.794  0.00  0.00    -0.310 N 
ATOM      5  H   UNL     1       0.265   4.229   3.856  0.00  0.00    +0.149 HD
BRANCH   4   6
ATOM      6  C   UNL     1       2.089   5.218   4.305  0.00  0.00    +0.143 C 
BRANCH   6   7
ATOM      7  C   UNL     1       1.233   6.322   4.872  0.00  0.00    +0.015 A 
ATOM      8  C   UNL     1       0.984   7.457   4.120  0.00  0.00    +0.058 A 
ATOM      9  C   UNL     1       0.198   8.469   4.643  0.00  0.00    +0.162 A 
ATOM     10  C   UNL     1      -0.339   8.347   5.917  0.00  0.00    +0.165 A 
ATOM     11  C   UNL     1      -0.091   7.213   6.670  0.00  0.00    +0.095 A 
ATOM     12  C   UNL     1       0.693   6.196   6.143  0.00  0.00    +0.128 A 
ATOM     13  O   UNL     1      -1.114   9.351   6.421  0.00  0.00    -0.488 OA
ATOM     14  C   UNL     1      -0.438  10.577   6.710  0.00  0.00    +0.232 C 
ATOM     15  C   UNL     1      -0.329  11.439   5.462  0.00  0.00    +0.082 C 
ATOM     16  C   UNL     1       0.539  10.800   4.390  0.00  0.00    +0.232 C 
ATOM     17  O   UNL     1      -0.055   9.593   3.910  0.00  0.00    -0.488 OA
BRANCH  12  18
ATOM     18  O   UNL     1       0.936   5.076   6.875  0.00  0.00    -0.495 OA
ATOM     19  C   UNL     1       0.348   5.012   8.176  0.00  0.00    +0.277 C 
ENDBRANCH  12  18
ENDBRANCH   6   7
ENDBRANCH   4   6
ENDBRANCH   1   2
BRANCH   1  20
ATOM     20  S   UNL     1       1.924   0.620   2.030  0.00  0.00    -0.108 S 
BRANCH  20  26
ATOM     21  C   UNL     1       2.822  -1.707   0.886  0.00  0.00    +0.110 C 
ATOM     22  N   UNL     1       1.388  -1.889   1.144  0.00  0.00    -0.249 NA
ATOM     23  C   UNL     1       0.680  -2.340  -0.082  0.00  0.00    +0.226 C 
ATOM     24  N   UNL     1       0.185  -1.105  -0.704  0.00  0.00    -0.168 NA
ATOM     25  N   UNL     1       0.208  -0.163   0.094  0.00  0.00    -0.160 NA
ATOM     26  C   UNL     1       0.724  -0.587   1.402  0.00  0.00    +0.258 C 
BRANCH  23  27
ATOM     27  C   UNL     1      -0.486  -3.260   0.284  0.00  0.00    +0.144 C 
ATOM     28  C   UNL     1       0.015  -4.445   1.079  0.00  0.00    +0.010 C 
ATOM     29  C   UNL     1      -0.295  -5.543   0.352  0.00  0.00    -0.003 A 
ATOM     30  C   UNL     1      -0.080  -6.977   0.576  0.00  0.00    +0.029 A 
ATOM     31  C   UNL     1      -0.513  -7.859  -0.355  0.00  0.00    +0.042 A 
ATOM     32  C   UNL     1      -1.160  -7.437  -1.525  0.00  0.00    +0.022 A 
ATOM     33  C   UNL     1      -1.393  -6.136  -1.801  0.00  0.00    +0.027 A 
ATOM     34  C   UNL     1      -0.981  -5.123  -0.891  0.00  0.00    +0.043 A 
ATOM     35  N   UNL     1      -1.092  -3.816  -0.931  0.00  0.00    -0.374 N 
ATOM     36 CL   UNL     1      -0.259  -9.556  -0.094  0.00  0.00    -0.084 Cl
ATOM     37  H   UNL     1      -1.504  -3.303  -1.644  0.00  0.00    +0.160 HD
ENDBRANCH  23  27
ENDBRANCH  20  26
ENDBRANCH   1  20
TORSDOF 7
