REMARK  Name = ZINC36268000
REMARK  3 active torsions:
REMARK  status: ('A' for Active; 'I' for Inactive)
REMARK    1  A    between atoms: C_6  and  N_7
REMARK    2  A    between atoms: N_7  and  C_8
REMARK    3  A    between atoms: C_11  and  N_13
REMARK                            x       y       z     vdW  Elec       q    Type
REMARK                         _______ _______ _______ _____ _____    ______ ____
ROOT
ATOM      1  N   UNL     1      -1.191  -0.719   0.010  0.00  0.00    -0.326 N 
ATOM      2  H   UNL     1      -1.176  -1.689   0.004  0.00  0.00    +0.148 HD
ENDROOT
BRANCH   1   8
ATOM      3  C   UNL     1      -0.017   1.390   0.010  0.00  0.00    +0.048 A 
ATOM      4  C   UNL     1       1.199   2.056   0.002  0.00  0.00    +0.045 A 
ATOM      5  C   UNL     1       2.360   1.294  -0.013  0.00  0.00    +0.152 A 
ATOM      6  N   UNL     1       2.284  -0.023  -0.020  0.00  0.00    -0.136 NA
ATOM      7  N   UNL     1       1.161  -0.645  -0.013  0.00  0.00    -0.133 NA
ATOM      8  C   UNL     1       0.002  -0.004   0.002  0.00  0.00    +0.141 A 
ATOM      9 CL   UNL     1       3.910   2.074  -0.025  0.00  0.00    -0.060 Cl
ENDBRANCH   1   8
BRANCH   1  10
ATOM     10  C   UNL     1      -2.472  -0.007   0.026  0.00  0.00    +0.056 C 
ATOM     11  C   UNL     1      -3.574  -0.515  -0.905  0.00  0.00    +0.006 C 
ATOM     12  C   UNL     1      -3.682  -0.742   0.605  0.00  0.00    -0.053 C 
BRANCH  12  13
ATOM     13  N   UNL     1      -3.471  -2.108   1.103  0.00  0.00    +0.381 N 
ATOM     14  H   UNL     1      -2.787  -2.094   1.844  0.00  0.00    -0.090 HD
ATOM     15  H   UNL     1      -4.342  -2.476   1.455  0.00  0.00    -0.090 HD
ATOM     16  H   UNL     1      -3.139  -2.693   0.350  0.00  0.00    -0.090 HD
ENDBRANCH  12  13
ENDBRANCH   1  10
TORSDOF 3
