REMARK  Name = ZINC01317684
REMARK  8 active torsions:
REMARK  status: ('A' for Active; 'I' for Inactive)
REMARK    1  A    between atoms: C_1  and  C_2
REMARK    2  A    between atoms: C_2  and  O_3
REMARK    3  A    between atoms: O_3  and  C_4
REMARK    4  A    between atoms: C_4  and  C_6
REMARK    5  A    between atoms: C_8  and  C_20
REMARK    6  A    between atoms: C_14  and  C_15
REMARK    7  A    between atoms: C_14  and  O_19
REMARK    8  A    between atoms: C_23  and  O_26
REMARK                            x       y       z     vdW  Elec       q    Type
REMARK                         _______ _______ _______ _____ _____    ______ ____
ROOT
ATOM      1  C   UNL     1      -0.898   1.681  -3.637  0.00  0.00    +0.181 C 
ATOM      2  C   UNL     1      -0.050   1.280  -4.849  0.00  0.00    +0.121 C 
ATOM      3  N   UNL     1      -0.648   1.843  -6.061  0.00  0.00    -0.319 N 
ATOM      4  C   UNL     1      -1.354   2.983  -6.025  0.00  0.00    +0.133 C 
ATOM      5  S   UNL     1      -2.011   3.589  -7.486  0.00  0.00    -0.019 S 
ATOM      6  N   UNL     1      -1.565   3.667  -4.891  0.00  0.00    -0.291 N 
ATOM      7  C   UNL     1      -1.021   3.208  -3.612  0.00  0.00    +0.244 C 
ATOM      8  H   UNL     1      -0.532   1.383  -6.907  0.00  0.00    +0.148 HD
ATOM      9  H   UNL     1      -2.090   4.483  -4.919  0.00  0.00    +0.151 HD
ENDROOT
BRANCH   2  10
ATOM     10  C   UNL     1      -0.009  -0.223  -4.960  0.00  0.00    -0.026 A 
ATOM     11  C   UNL     1      -1.076  -0.903  -5.518  0.00  0.00    +0.009 A 
ATOM     12  C   UNL     1      -1.039  -2.280  -5.625  0.00  0.00    +0.046 A 
ATOM     13  C   UNL     1       0.066  -2.981  -5.163  0.00  0.00    +0.117 A 
ATOM     14  C   UNL     1       1.132  -2.296  -4.598  0.00  0.00    +0.046 A 
ATOM     15  C   UNL     1       1.093  -0.919  -4.499  0.00  0.00    +0.009 A 
BRANCH  13  16
ATOM     16  O   UNL     1       0.102  -4.336  -5.262  0.00  0.00    -0.507 OA
ATOM     17  H   UNL     1      -0.265  -4.796  -4.495  0.00  0.00    +0.292 HD
ENDBRANCH  13  16
ENDBRANCH   2  10
BRANCH   7  18
ATOM     18  C   UNL     1      -1.957   3.627  -2.478  0.00  0.00    +0.436 C 
ATOM     19  F   UNL     1      -1.379   3.294  -1.248  0.00  0.00    -0.166 F 
ATOM     20  F   UNL     1      -3.181   2.962  -2.613  0.00  0.00    -0.166 F 
ATOM     21  F   UNL     1      -2.169   5.009  -2.534  0.00  0.00    -0.166 F 
ENDBRANCH   7  18
BRANCH   1  22
ATOM     22  C   UNL     1      -0.229   1.206  -2.373  0.00  0.00    +0.317 C 
ATOM     23  O   UNL     1       0.912   1.526  -2.136  0.00  0.00    -0.250 OA
BRANCH  22  24
ATOM     24  O   UNL     1      -0.901   0.428  -1.510  0.00  0.00    -0.465 OA
BRANCH  24  26
ATOM     25  C   UNL     1      -1.114  -0.865   0.542  0.00  0.00    +0.048 C 
ATOM     26  C   UNL     1      -0.194   0.008  -0.313  0.00  0.00    +0.229 C 
ENDBRANCH  24  26
ENDBRANCH  22  24
ENDBRANCH   1  22
BRANCH   7  27
ATOM     27  O   UNL     1       0.269   3.788  -3.407  0.00  0.00    -0.364 OA
ATOM     28  H   UNL     1       0.266   4.755  -3.380  0.00  0.00    +0.212 HD
ENDBRANCH   7  27
TORSDOF 7
