REMARK  Name = ZINC02927146
REMARK  9 active torsions:
REMARK  status: ('A' for Active; 'I' for Inactive)
REMARK    1  A    between atoms: C_1  and  C_2
REMARK    2  A    between atoms: C_2  and  C_3
REMARK    3  A    between atoms: C_6  and  N_9
REMARK    4  A    between atoms: C_13  and  C_32
REMARK    5  A    between atoms: C_19  and  S_20
REMARK    6  A    between atoms: S_20  and  C_21
REMARK    7  A    between atoms: C_21  and  C_22
REMARK    8  A    between atoms: N_24  and  C_25
REMARK    9  A    between atoms: C_28  and  C_31
REMARK                            x       y       z     vdW  Elec       q    Type
REMARK                         _______ _______ _______ _____ _____    ______ ____
ROOT
ATOM      1  N   UNL     1       4.947  -7.374  -0.653  0.00  0.00    -0.275 N 
ATOM      2  C   UNL     1       4.758  -8.745  -0.747  0.00  0.00    +0.124 A 
ATOM      3  N   UNL     1       5.771  -9.566  -0.868  0.00  0.00    -0.384 N 
ATOM      4  C   UNL     1       3.374  -9.238  -0.711  0.00  0.00    +0.082 A 
ATOM      5  C   UNL     1       2.783 -10.511  -0.780  0.00  0.00    +0.046 A 
ATOM      6  N   UNL     1       1.489 -10.368  -0.699  0.00  0.00    -0.279 N 
ATOM      7  N   UNL     1       1.176  -9.009  -0.573  0.00  0.00    -0.153 NA
ATOM      8  H   UNL     1       0.835 -11.252  -0.734  0.00  0.00    +0.189 HD
ATOM      9  C   UNL     1       2.339  -8.302  -0.579  0.00  0.00    +0.187 A 
ATOM     10  N   UNL     1       2.632  -6.996  -0.491  0.00  0.00    -0.201 NA
ATOM     11  C   UNL     1       3.864  -6.549  -0.522  0.00  0.00    +0.177 A 
ATOM     12  C   UNL     1       3.519 -11.818  -0.926  0.00  0.00    +0.066 C 
ATOM     13  H   UNL     1       5.596 -10.650  -0.941  0.00  0.00    +0.157 HD
ATOM     14  H   UNL     1       6.798  -9.172  -0.897  0.00  0.00    +0.157 HD
ENDROOT
BRANCH   1  18
ATOM     15  C   UNL     1       8.797  -5.781  -0.750  0.00  0.00    -0.047 A 
ATOM     16  C   UNL     1       8.031  -5.665   0.395  0.00  0.00    +0.005 A 
ATOM     17  C   UNL     1       6.755  -6.192   0.431  0.00  0.00    +0.026 A 
ATOM     18  C   UNL     1       6.241  -6.838  -0.686  0.00  0.00    +0.050 A 
ATOM     19  C   UNL     1       7.014  -6.957  -1.833  0.00  0.00    +0.026 A 
ATOM     20  C   UNL     1       8.288  -6.424  -1.864  0.00  0.00    +0.005 A 
BRANCH  15  22
ATOM     21  C   UNL     1      11.191  -6.262  -0.317  0.00  0.00    +0.009 C 
ATOM     22  C   UNL     1      10.189  -5.205  -0.786  0.00  0.00    +0.032 C 
ENDBRANCH  15  22
ENDBRANCH   1  18
BRANCH  11  23
ATOM     23  S   UNL     1       4.135  -4.812  -0.398  0.00  0.00    -0.078 S 
BRANCH  23  24
ATOM     24  C   UNL     1       2.425  -4.236  -0.259  0.00  0.00    +0.173 C 
BRANCH  24  25
ATOM     25  C   UNL     1       2.410  -2.734  -0.138  0.00  0.00    +0.227 C 
ATOM     26  O   UNL     1       3.452  -2.114  -0.145  0.00  0.00    -0.275 OA
ATOM     27  N   UNL     1       1.237  -2.079  -0.021  0.00  0.00    -0.285 N 
ATOM     28  H   UNL     1       0.298  -2.645   0.072  0.00  0.00    +0.155 HD
BRANCH  27  29
ATOM     29  C   UNL     1       1.214  -0.680  -0.020  0.00  0.00    +0.033 A 
ATOM     30  C   UNL     1       2.137   0.031  -0.775  0.00  0.00    +0.023 A 
ATOM     31  C   UNL     1       2.111   1.412  -0.772  0.00  0.00    +0.005 A 
ATOM     32  C   UNL     1       1.168   2.086  -0.018  0.00  0.00    -0.050 A 
ATOM     33  C   UNL     1       0.248   1.380   0.735  0.00  0.00    +0.005 A 
ATOM     34  C   UNL     1       0.268  -0.001   0.736  0.00  0.00    +0.023 A 
ATOM     35  C   UNL     1       1.143   3.593  -0.017  0.00  0.00    +0.044 C 
ENDBRANCH  27  29
ENDBRANCH  24  25
ENDBRANCH  23  24
ENDBRANCH  11  23
TORSDOF 6
