REMARK  Name = ZINC39325528
REMARK  12 active torsions:
REMARK  status: ('A' for Active; 'I' for Inactive)
REMARK    1  A    between atoms: C_1  and  C_2
REMARK    2  A    between atoms: C_2  and  O_3
REMARK    3  A    between atoms: O_3  and  C_4
REMARK    4  A    between atoms: C_11  and  C_16
REMARK    5  A    between atoms: C_16  and  N_17
REMARK    6  A    between atoms: N_17  and  C_18
REMARK    7  A    between atoms: N_17  and  S_24
REMARK    8  A    between atoms: C_18  and  C_19
REMARK    9  A    between atoms: S_24  and  C_27
REMARK   10  A    between atoms: C_30  and  C_33
REMARK   11  A    between atoms: C_33  and  O_35
REMARK   12  A    between atoms: O_35  and  C_36
REMARK                            x       y       z     vdW  Elec       q    Type
REMARK                         _______ _______ _______ _____ _____    ______ ____
ROOT
ATOM      1  N   UNL     1       3.845  -7.621   4.233  0.00  0.00    -0.171 NA
ENDROOT
BRANCH   1   2
ATOM      2  S   UNL     1       3.897  -7.922   5.860  0.00  0.00    +0.061 S 
ATOM      3  O   UNL     1       4.475  -9.211   6.016  0.00  0.00    -0.153 OA
ATOM      4  O   UNL     1       4.446  -6.762   6.470  0.00  0.00    -0.153 OA
BRANCH   2   5
ATOM      5  C   UNL     1       2.231  -8.046   6.421  0.00  0.00    +0.106 A 
ATOM      6  C   UNL     1       1.564  -6.914   6.854  0.00  0.00    +0.029 A 
ATOM      7  C   UNL     1       0.260  -7.004   7.294  0.00  0.00    +0.017 A 
ATOM      8  C   UNL     1      -0.387  -8.241   7.303  0.00  0.00    +0.059 A 
ATOM      9  C   UNL     1       0.292  -9.380   6.864  0.00  0.00    +0.017 A 
ATOM     10  C   UNL     1       1.595  -9.275   6.421  0.00  0.00    +0.029 A 
BRANCH   8  11
ATOM     11  C   UNL     1      -1.783  -8.345   7.773  0.00  0.00    +0.339 C 
ATOM     12  O   UNL     1      -2.371  -7.353   8.154  0.00  0.00    -0.245 OA
BRANCH  11  13
ATOM     13  O   UNL     1      -2.404  -9.541   7.780  0.00  0.00    -0.464 OA
ATOM     14  C   UNL     1      -3.754  -9.568   8.248  0.00  0.00    +0.280 C 
ENDBRANCH  11  13
ENDBRANCH   8  11
ENDBRANCH   2   5
ENDBRANCH   1   2
BRANCH   1  15
ATOM     15  C   UNL     1       3.806  -6.240   3.744  0.00  0.00    +0.126 C 
BRANCH  15  23
ATOM     16  C   UNL     1       0.983  -1.851   1.129  0.00  0.00    +0.121 A 
ATOM     17  C   UNL     1       0.287  -2.734   0.294  0.00  0.00    +0.047 A 
ATOM     18  C   UNL     1       0.269  -4.075   0.502  0.00  0.00    +0.027 A 
ATOM     19  C   UNL     1       0.964  -4.641   1.588  0.00  0.00    +0.041 A 
ATOM     20  N   UNL     1       0.938  -5.960   1.779  0.00  0.00    -0.284 N 
ATOM     21  C   UNL     1       1.568  -6.558   2.777  0.00  0.00    +0.225 C 
ATOM     22  O   UNL     1       1.508  -7.766   2.901  0.00  0.00    -0.275 OA
ATOM     23  C   UNL     1       2.363  -5.732   3.763  0.00  0.00    +0.114 C 
ATOM     24  C   UNL     1       2.396  -4.232   3.550  0.00  0.00    -0.003 C 
ATOM     25  C   UNL     1       1.706  -3.737   2.483  0.00  0.00    -0.004 A 
ATOM     26  C   UNL     1       1.691  -2.301   2.201  0.00  0.00    +0.055 A 
ATOM     27  H   UNL     1       0.433  -6.508   1.158  0.00  0.00    +0.155 HD
BRANCH  16  28
ATOM     28  O   UNL     1       0.956  -0.519   0.859  0.00  0.00    -0.492 OA
BRANCH  28  30
ATOM     29  C   UNL     1       0.285   1.419  -0.420  0.00  0.00    +0.048 C 
ATOM     30  C   UNL     1       0.198  -0.102  -0.278  0.00  0.00    +0.225 C 
ENDBRANCH  28  30
ENDBRANCH  16  28
ENDBRANCH  15  23
ENDBRANCH   1  15
BRANCH   1  31
ATOM     31  C   UNL     1       3.836  -8.735   3.281  0.00  0.00    +0.151 C 
BRANCH  31  32
ATOM     32  C   UNL     1       5.249  -9.040   2.852  0.00  0.00    +0.005 A 
ATOM     33  C   UNL     1       6.142  -9.898   3.403  0.00  0.00    +0.012 A 
ATOM     34  C   UNL     1       7.396 -10.017   2.834  0.00  0.00    +0.008 A 
ATOM     35  C   UNL     1       7.695  -9.272   1.741  0.00  0.00    +0.045 A 
ATOM     36  S   UNL     1       6.176  -8.370   1.482  0.00  0.00    -0.100 S 
ENDBRANCH  31  32
ENDBRANCH   1  31
TORSDOF 10
