REMARK  Name = ZINC62252513
REMARK  5 active torsions:
REMARK  status: ('A' for Active; 'I' for Inactive)
REMARK    1  A    between atoms: C_1  and  C_2
REMARK    2  A    between atoms: C_2  and  C_4
REMARK    3  A    between atoms: C_2  and  C_14
REMARK    4  A    between atoms: C_4  and  N_5
REMARK    5  A    between atoms: N_15  and  O_16
REMARK                            x       y       z     vdW  Elec       q    Type
REMARK                         _______ _______ _______ _____ _____    ______ ____
ROOT
ATOM      1  C   UNL     1       0.718  -0.497  -1.257  0.00  0.00    +0.095 C 
ENDROOT
BRANCH   1   2
ATOM      2  N   UNL     1       2.129  -0.090  -1.209  0.00  0.00    -0.293 NA
ATOM      3  C   UNL     1       2.790  -0.330  -2.500  0.00  0.00    +0.106 C 
ATOM      4  C   UNL     1       4.123   0.429  -2.546  0.00  0.00    +0.138 C 
ATOM      5  N   UNL     1       4.865   0.128  -1.319  0.00  0.00    -0.334 N 
ATOM      6  C   UNL     1       6.186   0.318  -1.056  0.00  0.00    +0.105 A 
ATOM      7  C   UNL     1       6.395  -0.116   0.204  0.00  0.00    +0.101 A 
ATOM      8  N   UNL     1       5.225  -0.560   0.693  0.00  0.00    -0.349 N 
ATOM      9  C   UNL     1       4.303  -0.417  -0.211  0.00  0.00    +0.101 A 
ATOM     10  C   UNL     1       2.838  -0.771  -0.113  0.00  0.00    +0.156 C 
ATOM     11  H   UNL     1       5.090  -0.929   1.580  0.00  0.00    +0.166 HD
ENDBRANCH   1   2
BRANCH   1  13
ATOM     12  C   UNL     1      -0.019   1.526   0.010  0.00  0.00    +0.017 C 
ATOM     13  C   UNL     1       0.002  -0.004   0.002  0.00  0.00    +0.066 C 
BRANCH  13  14
ATOM     14  C   UNL     1      -1.412  -0.526   0.013  0.00  0.00    +0.136 C 
ATOM     15  N   UNL     1      -2.373   0.204  -0.447  0.00  0.00    -0.076 NA
ATOM     16  N   UNL     1      -1.679  -1.781   0.513  0.00  0.00    -0.344 N 
ATOM     17  H   UNL     1      -0.957  -2.329   0.858  0.00  0.00    +0.144 HD
ATOM     18  H   UNL     1      -2.589  -2.117   0.519  0.00  0.00    +0.144 HD
BRANCH  15  19
ATOM     19  O   UNL     1      -3.702  -0.286  -0.437  0.00  0.00    -0.408 OA
ATOM     20  H   UNL     1      -4.351   0.331  -0.801  0.00  0.00    +0.328 HD
ENDBRANCH  15  19
ENDBRANCH  13  14
ENDBRANCH   1  13
TORSDOF 4
