REMARK  Name = ZINC38547926
REMARK  12 active torsions:
REMARK  status: ('A' for Active; 'I' for Inactive)
REMARK    1  A    between atoms: C_1  and  C_2
REMARK    2  A    between atoms: C_2  and  C_3
REMARK    3  A    between atoms: C_5  and  C_16
REMARK    4  A    between atoms: C_6  and  N_8
REMARK    5  A    between atoms: C_9  and  C_11
REMARK    6  A    between atoms: C_16  and  C_18
REMARK    7  A    between atoms: C_16  and  N_28
REMARK    8  A    between atoms: C_22  and  O_26
REMARK    9  A    between atoms: C_23  and  O_24
REMARK   10  A    between atoms: O_24  and  C_25
REMARK   11  A    between atoms: O_26  and  C_27
REMARK   12  A    between atoms: C_31  and  C_35
REMARK                            x       y       z     vdW  Elec       q    Type
REMARK                         _______ _______ _______ _____ _____    ______ ____
ROOT
ATOM      1  C   UNL     1      -4.468  -1.389  -1.702  0.00  0.00    +0.138 C 
ENDROOT
BRANCH   1   2
ATOM      2  N   UNL     1      -3.283  -1.267  -2.555  0.00  0.00    -0.319 N 
ATOM      3  C   UNL     1      -3.301  -1.778  -3.847  0.00  0.00    +0.097 A 
ATOM      4  C   UNL     1      -4.450  -2.399  -4.327  0.00  0.00    +0.045 A 
ATOM      5  C   UNL     1      -4.454  -2.903  -5.615  0.00  0.00    -0.046 A 
ATOM      6  C   UNL     1      -3.305  -2.769  -6.383  0.00  0.00    +0.021 A 
ATOM      7  C   UNL     1      -2.200  -2.141  -5.843  0.00  0.00    +0.084 A 
ATOM      8  N   UNL     1      -2.227  -1.665  -4.613  0.00  0.00    -0.350 N 
ATOM      9  C   UNL     1      -5.678  -3.583  -6.172  0.00  0.00    +0.044 C 
ATOM     10  H   UNL     1      -2.485  -0.830  -2.217  0.00  0.00    +0.148 HD
ATOM     11  H   UNL     1      -1.438  -1.224  -4.259  0.00  0.00    +0.166 HD
ENDBRANCH   1   2
BRANCH   1  12
ATOM     12  C   UNL     1      -5.426  -0.268  -2.011  0.00  0.00    +0.022 A 
ATOM     13  C   UNL     1      -6.776  -0.533  -2.157  0.00  0.00    +0.009 A 
ATOM     14  C   UNL     1      -7.658   0.493  -2.441  0.00  0.00    +0.004 A 
ATOM     15  C   UNL     1      -7.195   1.788  -2.581  0.00  0.00    +0.049 A 
ATOM     16  C   UNL     1      -5.844   2.060  -2.436  0.00  0.00    +0.162 A 
ATOM     17  C   UNL     1      -4.957   1.028  -2.144  0.00  0.00    +0.167 A 
BRANCH  17  18
ATOM     18  O   UNL     1      -3.631   1.292  -1.996  0.00  0.00    -0.491 OA
ATOM     19  C   UNL     1      -2.863   1.450  -3.190  0.00  0.00    +0.277 C 
ENDBRANCH  17  18
BRANCH  16  20
ATOM     20  O   UNL     1      -5.387   3.334  -2.573  0.00  0.00    -0.491 OA
ATOM     21  C   UNL     1      -6.356   4.343  -2.867  0.00  0.00    +0.277 C 
ENDBRANCH  16  20
ENDBRANCH   1  12
BRANCH   1  24
ATOM     22  C   UNL     1      -2.505  -0.692   1.414  0.00  0.00    -0.008 A 
ATOM     23  C   UNL     1      -2.845  -0.746   0.103  0.00  0.00    +0.019 A 
ATOM     24  C   UNL     1      -4.055  -1.312  -0.255  0.00  0.00    +0.006 A 
ATOM     25  C   UNL     1      -4.868  -1.798   0.725  0.00  0.00    +0.078 A 
ATOM     26  S   UNL     1      -3.912  -1.464   2.196  0.00  0.00    -0.078 S 
BRANCH  25  27
ATOM     27  N   UNL     1      -6.119  -2.406   0.609  0.00  0.00    -0.273 N 
ATOM     28  C   UNL     1      -6.822  -2.719   1.715  0.00  0.00    +0.284 C 
ATOM     29  O   UNL     1      -6.414  -2.381   2.811  0.00  0.00    -0.266 OA
ATOM     30  H   UNL     1      -6.483  -2.602  -0.269  0.00  0.00    +0.156 HD
BRANCH  28  31
ATOM     31  C   UNL     1      -8.078  -3.467   1.599  0.00  0.00    +0.189 A 
ATOM     32  C   UNL     1      -8.887  -3.842   2.633  0.00  0.00    +0.054 A 
ATOM     33  C   UNL     1      -9.971  -4.532   2.068  0.00  0.00    +0.042 A 
ATOM     34  C   UNL     1      -9.778  -4.547   0.730  0.00  0.00    +0.196 A 
ATOM     35  O   UNL     1      -8.639  -3.900   0.451  0.00  0.00    -0.458 OA
ENDBRANCH  28  31
ENDBRANCH  25  27
BRANCH  22  37
ATOM     36  C   UNL     1      -1.475   1.346   2.381  0.00  0.00    +0.009 C 
ATOM     37  C   UNL     1      -1.258  -0.132   2.047  0.00  0.00    +0.039 C 
ENDBRANCH  22  37
ENDBRANCH   1  24
TORSDOF 8
