REMARK  Name = ZINC64246178
REMARK  3 active torsions:
REMARK  status: ('A' for Active; 'I' for Inactive)
REMARK    1  A    between atoms: C_1  and  N_2
REMARK    2  A    between atoms: C_7  and  N_12
REMARK    3  A    between atoms: C_13  and  C_15
REMARK                            x       y       z     vdW  Elec       q    Type
REMARK                         _______ _______ _______ _____ _____    ______ ____
ROOT
ATOM      1  N   UNL     1      -1.334  -4.253   0.937  0.00  0.00    -0.305 N 
ATOM      2  C   UNL     1      -1.726  -5.533   0.780  0.00  0.00    +0.250 C 
ATOM      3  O   UNL     1      -2.517  -5.824  -0.096  0.00  0.00    -0.270 OA
ATOM      4  H   UNL     1      -0.762  -4.008   1.681  0.00  0.00    +0.150 HD
ENDROOT
BRANCH   2   5
ATOM      5  C   UNL     1      -1.196  -6.579   1.671  0.00  0.00    +0.102 A 
ATOM      6  C   UNL     1      -1.494  -7.917   1.455  0.00  0.00    +0.031 A 
ATOM      7  C   UNL     1      -0.961  -8.884   2.334  0.00  0.00    +0.037 A 
ATOM      8  C   UNL     1      -0.150  -8.508   3.391  0.00  0.00    +0.030 A 
ATOM      9  N   UNL     1       0.136  -7.207   3.604  0.00  0.00    -0.325 N 
ATOM     10  C   UNL     1      -0.335  -6.236   2.805  0.00  0.00    +0.261 A 
ATOM     11  O   UNL     1      -0.049  -5.072   3.025  0.00  0.00    -0.267 OA
ATOM     12  C   UNL     1       0.445  -9.529   4.327  0.00  0.00    +0.054 C 
ATOM     13  C   UNL     1      -0.370 -10.818   4.332  0.00  0.00    +0.014 C 
ATOM     14  C   UNL     1      -0.503 -11.338   2.894  0.00  0.00    +0.080 C 
ATOM     15  C   UNL     1      -1.286 -10.304   2.113  0.00  0.00    +0.165 C 
ATOM     16  O   UNL     1      -2.153 -10.634   1.331  0.00  0.00    -0.292 OA
ATOM     17  H   UNL     1       0.700  -6.967   4.356  0.00  0.00    +0.169 HD
ENDBRANCH   2   5
BRANCH   1  24
ATOM     18  C   UNL     1       0.029   1.444  -0.035  0.00  0.00    +0.149 C 
ATOM     19  N   UNL     1       0.038  -0.021  -0.036  0.00  0.00    -0.274 N 
ATOM     20  C   UNL     1      -1.100  -0.807  -0.024  0.00  0.00    +0.024 C 
ATOM     21  C   UNL     1      -0.787  -2.092  -0.028  0.00  0.00    -0.016 C 
ATOM     22  C   UNL     1       0.718  -2.190  -0.045  0.00  0.00    +0.136 C 
ATOM     23  N   UNL     1       1.170  -0.784  -0.055  0.00  0.00    -0.237 NA
ATOM     24  C   UNL     1      -1.773  -3.231  -0.017  0.00  0.00    +0.102 C 
ATOM     25  C   UNL     1      -3.143  -2.685   0.402  0.00  0.00    +0.027 C 
ATOM     26  C   UNL     1      -3.459  -1.436  -0.427  0.00  0.00    +0.008 C 
ATOM     27  C   UNL     1      -2.526  -0.296  -0.008  0.00  0.00    +0.052 C 
ATOM     28  H   UNL     1       1.752  -0.587   0.745  0.00  0.00    +0.145 HD
ENDBRANCH   1  24
TORSDOF 2
