REMARK  Name = ZINC52876102
REMARK  8 active torsions:
REMARK  status: ('A' for Active; 'I' for Inactive)
REMARK    1  A    between atoms: C_1  and  C_2
REMARK    2  A    between atoms: C_2  and  C_21
REMARK    3  A    between atoms: N_5  and  N_9
REMARK    4  A    between atoms: C_10  and  C_12
REMARK    5  A    between atoms: C_12  and  N_13
REMARK    6  A    between atoms: C_17  and  O_20
REMARK    7  A    between atoms: C_24  and  O_27
REMARK    8  A    between atoms: O_27  and  C_28
REMARK                            x       y       z     vdW  Elec       q    Type
REMARK                         _______ _______ _______ _____ _____    ______ ____
ROOT
ATOM      1  C   UNL     1      -0.019   1.526   0.010  0.00  0.00    +0.047 C 
ATOM      2  C   UNL     1       0.002  -0.004   0.002  0.00  0.00    +0.137 C 
ATOM      3  C   UNL     1      -1.403  -0.557   0.139  0.00  0.00    +0.267 C 
ATOM      4  O   UNL     1      -2.332  -0.392  -0.621  0.00  0.00    -0.271 OA
ATOM      5  N   UNL     1      -1.403  -1.272   1.282  0.00  0.00    -0.137 N 
ATOM      6  C   UNL     1      -0.206  -1.247   1.879  0.00  0.00    +0.327 C 
ATOM      7  O   UNL     1       0.040  -1.819   2.924  0.00  0.00    -0.251 OA
ATOM      8  N   UNL     1       0.695  -0.520   1.195  0.00  0.00    -0.280 N 
ATOM      9  H   UNL     1       1.621  -0.365   1.440  0.00  0.00    +0.152 HD
ENDROOT
BRANCH   2  10
ATOM     10  C   UNL     1       0.657  -0.517  -1.255  0.00  0.00    -0.015 A 
ATOM     11  C   UNL     1      -0.109  -0.772  -2.377  0.00  0.00    +0.010 A 
ATOM     12  C   UNL     1       0.489  -1.242  -3.530  0.00  0.00    +0.046 A 
ATOM     13  C   UNL     1       1.859  -1.459  -3.561  0.00  0.00    +0.120 A 
ATOM     14  C   UNL     1       2.625  -1.202  -2.433  0.00  0.00    +0.046 A 
ATOM     15  C   UNL     1       2.023  -0.727  -1.285  0.00  0.00    +0.010 A 
BRANCH  13  16
ATOM     16  O   UNL     1       2.450  -1.922  -4.694  0.00  0.00    -0.495 OA
ATOM     17  C   UNL     1       3.864  -2.122  -4.654  0.00  0.00    +0.277 C 
ENDBRANCH  13  16
ENDBRANCH   2  10
BRANCH   5  18
ATOM     18  N   UNL     1      -2.518  -1.955   1.783  0.00  0.00    -0.225 N 
ATOM     19  C   UNL     1      -2.586  -3.298   1.684  0.00  0.00    +0.213 C 
ATOM     20  O   UNL     1      -1.682  -3.914   1.162  0.00  0.00    -0.276 OA
ATOM     21  H   UNL     1      -3.242  -1.462   2.200  0.00  0.00    +0.173 HD
BRANCH  19  22
ATOM     22  C   UNL     1      -3.787  -4.033   2.223  0.00  0.00    +0.020 C 
BRANCH  22  23
ATOM     23  N   UNL     1      -3.620  -5.475   1.996  0.00  0.00    +0.387 N 
ATOM     24  C   UNL     1      -3.606  -5.742   0.552  0.00  0.00    -0.078 C 
ATOM     25  C   UNL     1      -3.352  -7.231   0.308  0.00  0.00    -0.016 C 
ATOM     26  C   UNL     1      -4.466  -8.049   0.970  0.00  0.00    +0.027 C 
ATOM     27  C   UNL     1      -4.520  -7.706   2.461  0.00  0.00    +0.098 C 
ATOM     28  C   UNL     1      -4.731  -6.199   2.625  0.00  0.00    -0.047 C 
ATOM     29  H   UNL     1      -2.748  -5.780   2.401  0.00  0.00    -0.081 HD
BRANCH  27  30
ATOM     30  O   UNL     1      -5.603  -8.409   3.073  0.00  0.00    -0.394 OA
ATOM     31  H   UNL     1      -5.536  -9.371   3.004  0.00  0.00    +0.210 HD
ENDBRANCH  27  30
ENDBRANCH  22  23
ENDBRANCH  19  22
ENDBRANCH   5  18
TORSDOF 6
