REMARK  Name = ZINC06462121
REMARK  14 active torsions:
REMARK  status: ('A' for Active; 'I' for Inactive)
REMARK    1  A    between atoms: C_1  and  C_2
REMARK    2  A    between atoms: C_2  and  C_3
REMARK    3  A    between atoms: C_3  and  C_4
REMARK    4  A    between atoms: C_3  and  C_5
REMARK    5  A    between atoms: C_3  and  N_6
REMARK    6  A    between atoms: C_7  and  C_9
REMARK    7  A    between atoms: C_9  and  C_11
REMARK    8  A    between atoms: C_9  and  N_17
REMARK    9  A    between atoms: C_14  and  C_16
REMARK   10  A    between atoms: N_17  and  C_18
REMARK   11  A    between atoms: C_18  and  C_19
REMARK   12  A    between atoms: C_24  and  C_26
REMARK   13  A    between atoms: C_27  and  N_34
REMARK   14  A    between atoms: C_28  and  C_31
REMARK                            x       y       z     vdW  Elec       q    Type
REMARK                         _______ _______ _______ _____ _____    ______ ____
ROOT
ATOM      1  N   UNL     1      -4.598   3.574   1.592  0.00  0.00    -0.272 N 
ATOM      2  C   UNL     1      -4.887   4.890   1.573  0.00  0.00    +0.258 C 
ATOM      3  O   UNL     1      -4.662   5.577   2.552  0.00  0.00    -0.269 OA
ENDROOT
BRANCH   2   4
ATOM      4  C   UNL     1      -5.472   5.494   0.374  0.00  0.00    +0.115 A 
ATOM      5  C   UNL     1      -5.828   6.822   0.135  0.00  0.00    +0.076 A 
ATOM      6  C   UNL     1      -6.357   7.013  -1.141  0.00  0.00    +0.155 A 
ATOM      7  N   UNL     1      -6.474   5.982  -1.950  0.00  0.00    -0.203 NA
ATOM      8  S   UNL     1      -5.927   4.728  -1.168  0.00  0.00    +0.019 S 
BRANCH   6   9
ATOM      9  C   UNL     1      -6.786   8.354  -1.577  0.00  0.00    +0.262 C 
ATOM     10  O   UNL     1      -6.676   9.303  -0.825  0.00  0.00    -0.269 OA
ATOM     11  N   UNL     1      -7.302   8.529  -2.811  0.00  0.00    -0.324 N 
ATOM     12  H   UNL     1      -7.390   7.772  -3.411  0.00  0.00    +0.145 HD
ATOM     13  H   UNL     1      -7.584   9.412  -3.097  0.00  0.00    +0.145 HD
ENDBRANCH   6   9
BRANCH   5  14
ATOM     14  N   UNL     1      -5.670   7.842   1.064  0.00  0.00    -0.355 N 
ATOM     15  H   UNL     1      -5.293   7.648   1.937  0.00  0.00    +0.142 HD
ATOM     16  H   UNL     1      -5.936   8.747   0.841  0.00  0.00    +0.142 HD
ENDBRANCH   5  14
ENDBRANCH   2   4
BRANCH   1  17
ATOM     17  C   UNL     1      -4.099   2.952   2.821  0.00  0.00    +0.229 C 
BRANCH  17  18
ATOM     18  C   UNL     1      -2.819   2.213   2.526  0.00  0.00    +0.135 A 
ATOM     19  C   UNL     1      -1.732   2.175   3.317  0.00  0.00    +0.047 A 
ATOM     20  C   UNL     1      -0.772   1.374   2.657  0.00  0.00    +0.045 A 
ATOM     21  C   UNL     1      -1.330   0.970   1.502  0.00  0.00    +0.102 A 
ATOM     22  O   UNL     1      -2.568   1.486   1.425  0.00  0.00    -0.462 OA
ATOM     23  C   UNL     1      -0.676   0.092   0.467  0.00  0.00    +0.086 C 
ENDBRANCH  17  18
BRANCH  17  25
ATOM     24  N   UNL     1      -4.798   1.116   4.325  0.00  0.00    -0.308 N 
ATOM     25  C   UNL     1      -5.127   1.984   3.348  0.00  0.00    +0.242 C 
ATOM     26  O   UNL     1      -6.252   1.987   2.893  0.00  0.00    -0.273 OA
ATOM     27  H   UNL     1      -3.899   1.114   4.689  0.00  0.00    +0.149 HD
BRANCH  24  28
ATOM     28  C   UNL     1      -5.798   0.176   4.837  0.00  0.00    +0.029 C 
ATOM     29  C   UNL     1      -6.980   0.955   5.418  0.00  0.00    +0.031 C 
ATOM     30  C   UNL     1      -6.287  -0.719   3.697  0.00  0.00    +0.031 C 
BRANCH  28  32
ATOM     31  C   UNL     1      -6.214  -1.672   6.467  0.00  0.00    +0.006 C 
ATOM     32  C   UNL     1      -5.170  -0.690   5.932  0.00  0.00    +0.022 C 
ENDBRANCH  28  32
ENDBRANCH  24  28
ENDBRANCH  17  25
ENDBRANCH   1  17
BRANCH   1  33
ATOM     33  C   UNL     1      -4.784   2.765   0.385  0.00  0.00    +0.183 C 
BRANCH  33  34
ATOM     34  C   UNL     1      -6.126   2.083   0.438  0.00  0.00    +0.122 A 
ATOM     35  C   UNL     1      -7.307   2.644   0.119  0.00  0.00    +0.046 A 
ATOM     36  C   UNL     1      -8.297   1.654   0.312  0.00  0.00    +0.041 A 
ATOM     37  C   UNL     1      -7.662   0.546   0.737  0.00  0.00    +0.195 A 
ATOM     38  O   UNL     1      -6.347   0.811   0.806  0.00  0.00    -0.466 OA
ENDBRANCH  33  34
ENDBRANCH   1  33
TORSDOF 10
