REMARK  Name = ZINC52721652
REMARK  7 active torsions:
REMARK  status: ('A' for Active; 'I' for Inactive)
REMARK    1  A    between atoms: C_1  and  N_2
REMARK    2  A    between atoms: N_2  and  C_3
REMARK    3  A    between atoms: N_2  and  C_12
REMARK    4  A    between atoms: C_3  and  C_4
REMARK    5  A    between atoms: C_9  and  N_10
REMARK    6  A    between atoms: N_10  and  N_11
REMARK    7  A    between atoms: C_12  and  C_13
REMARK                            x       y       z     vdW  Elec       q    Type
REMARK                         _______ _______ _______ _____ _____    ______ ____
ROOT
ATOM      1  C   UNL     1       2.228  -0.045   0.978  0.00  0.00    +0.006 A 
ATOM      2  C   UNL     1       2.741   0.889   1.861  0.00  0.00    +0.009 A 
ATOM      3  C   UNL     1       4.054   1.306   1.696  0.00  0.00    +0.018 A 
ATOM      4  C   UNL     1       4.806   0.781   0.663  0.00  0.00    +0.084 A 
ATOM      5  N   UNL     1       4.290  -0.108  -0.165  0.00  0.00    -0.349 N 
ATOM      6  C   UNL     1       3.043  -0.535  -0.037  0.00  0.00    +0.114 A 
ATOM      7  H   UNL     1       4.840  -0.460  -0.883  0.00  0.00    +0.167 HD
ENDROOT
BRANCH   6   8
ATOM      8  N   UNL     1       2.543  -1.478  -0.927  0.00  0.00    -0.269 N 
ATOM      9  H   UNL     1       1.654  -1.843  -0.798  0.00  0.00    +0.167 HD
BRANCH   8  10
ATOM     10  N   UNL     1       3.304  -1.889  -1.985  0.00  0.00    -0.255 NA
ATOM     11  H   UNL     1       4.192  -2.250  -1.673  0.00  0.00    +0.140 HD
ATOM     12  H   UNL     1       2.811  -2.571  -2.541  0.00  0.00    +0.140 HD
ENDBRANCH   8  10
ENDBRANCH   6   8
BRANCH   1  13
ATOM     13  C   UNL     1       0.807  -0.528   1.117  0.00  0.00    +0.123 C 
BRANCH  13  15
ATOM     14  C   UNL     1      -0.320   1.489   0.394  0.00  0.00    +0.105 C 
ATOM     15  N   UNL     1      -0.023   0.086   0.073  0.00  0.00    -0.297 NA
BRANCH  15  16
ATOM     16  C   UNL     1      -1.260  -0.679  -0.134  0.00  0.00    +0.120 C 
BRANCH  16  17
ATOM     17  C   UNL     1      -1.965  -0.171  -1.365  0.00  0.00    -0.025 A 
ATOM     18  C   UNL     1      -2.887   0.855  -1.273  0.00  0.00    +0.028 A 
ATOM     19  C   UNL     1      -3.504   1.288  -2.400  0.00  0.00    +0.055 A 
ATOM     20  S   UNL     1      -2.779   0.234  -3.646  0.00  0.00    -0.090 S 
ATOM     21  C   UNL     1      -1.700  -0.709  -2.581  0.00  0.00    +0.051 A 
ATOM     22 BR   UNL     1      -4.796   2.654  -2.601  0.00  0.00    -0.043 Br
ENDBRANCH  16  17
ENDBRANCH  15  16
ENDBRANCH  13  15
ENDBRANCH   1  13
TORSDOF 6
