REMARK  Name = ZINC32117009
REMARK  10 active torsions:
REMARK  status: ('A' for Active; 'I' for Inactive)
REMARK    1  A    between atoms: C_1  and  O_2
REMARK    2  A    between atoms: O_2  and  C_3
REMARK    3  A    between atoms: C_6  and  C_9
REMARK    4  A    between atoms: C_11  and  C_32
REMARK    5  A    between atoms: C_20  and  C_22
REMARK    6  A    between atoms: N_24  and  C_25
REMARK    7  A    between atoms: C_25  and  C_26
REMARK    8  A    between atoms: C_32  and  C_34
REMARK    9  A    between atoms: C_37  and  O_40
REMARK   10  A    between atoms: O_40  and  C_41
REMARK                            x       y       z     vdW  Elec       q    Type
REMARK                         _______ _______ _______ _____ _____    ______ ____
ROOT
ATOM      1  C   UNL     1      -1.153   3.630   0.596  0.00  0.00    +0.059 C 
ATOM      2  C   UNL     1      -1.333   2.200   0.020  0.00  0.00    +0.092 C 
ATOM      3  C   UNL     1      -1.831   2.436  -1.415  0.00  0.00    +0.090 C 
ATOM      4  C   UNL     1      -0.715   2.241  -2.414  0.00  0.00    -0.006 C 
ATOM      5  C   UNL     1      -0.671   3.023  -3.494  0.00  0.00    -0.001 C 
ATOM      6  C   UNL     1      -1.677   4.064  -3.736  0.00  0.00    +0.013 C 
ATOM      7  C   UNL     1      -2.456   4.488  -2.713  0.00  0.00    +0.053 C 
ATOM      8  N   UNL     1      -2.234   3.857  -1.502  0.00  0.00    -0.384 NA
ATOM      9  C   UNL     1      -2.268   4.415  -0.149  0.00  0.00    +0.151 C 
ATOM     10  H   UNL     1      -2.687   4.571  -2.206  0.00  0.00    +0.127 HD
ENDROOT
BRANCH   1  14
ATOM     11  C   UNL     1      -1.808   3.673   4.818  0.00  0.00    +0.120 A 
ATOM     12  C   UNL     1      -0.582   4.065   4.301  0.00  0.00    +0.046 A 
ATOM     13  C   UNL     1      -0.372   4.050   2.936  0.00  0.00    +0.007 A 
ATOM     14  C   UNL     1      -1.384   3.645   2.085  0.00  0.00    -0.041 A 
ATOM     15  C   UNL     1      -2.609   3.260   2.597  0.00  0.00    +0.007 A 
ATOM     16  C   UNL     1      -2.822   3.268   3.962  0.00  0.00    +0.046 A 
BRANCH  11  18
ATOM     17  C   UNL     1      -3.304   3.271   6.622  0.00  0.00    +0.277 C 
ATOM     18  O   UNL     1      -2.017   3.687   6.161  0.00  0.00    -0.495 OA
ENDBRANCH  11  18
ENDBRANCH   1  14
BRANCH   9  19
ATOM     19  C   UNL     1      -1.952   5.888  -0.175  0.00  0.00    +0.233 C 
ATOM     20  O   UNL     1      -1.471   6.388  -1.169  0.00  0.00    -0.274 OA
ATOM     21  N   UNL     1      -2.205   6.651   0.908  0.00  0.00    -0.310 N 
ATOM     22  H   UNL     1      -2.641   6.197   1.810  0.00  0.00    +0.149 HD
BRANCH  21  23
ATOM     23  C   UNL     1      -1.898   8.083   0.883  0.00  0.00    +0.139 C 
BRANCH  23  24
ATOM     24  C   UNL     1      -2.272   8.700   2.206  0.00  0.00    -0.030 A 
ATOM     25  C   UNL     1      -3.541   9.216   2.394  0.00  0.00    +0.005 A 
ATOM     26  C   UNL     1      -3.885   9.777   3.610  0.00  0.00    +0.000 A 
ATOM     27  C   UNL     1      -2.958   9.832   4.633  0.00  0.00    +0.000 A 
ATOM     28  C   UNL     1      -1.688   9.320   4.444  0.00  0.00    +0.000 A 
ATOM     29  C   UNL     1      -1.345   8.755   3.230  0.00  0.00    +0.005 A 
ENDBRANCH  23  24
ENDBRANCH  21  23
ENDBRANCH   9  19
BRANCH   2  30
ATOM     30  C   UNL     1      -0.018   1.464   0.010  0.00  0.00    +0.169 C 
ATOM     31  O   UNL     1       1.024   2.085   0.004  0.00  0.00    -0.292 OA
BRANCH  30  32
ATOM     32  C   UNL     1       0.002  -0.004   0.002  0.00  0.00    +0.018 A 
ATOM     33  C   UNL     1      -1.200  -0.723   0.015  0.00  0.00    +0.015 A 
ATOM     34  C   UNL     1      -1.175  -2.094   0.002  0.00  0.00    +0.046 A 
ATOM     35  C   UNL     1       0.040  -2.771  -0.014  0.00  0.00    +0.120 A 
ATOM     36  C   UNL     1       1.236  -2.061  -0.021  0.00  0.00    +0.046 A 
ATOM     37  C   UNL     1       1.223  -0.690  -0.013  0.00  0.00    +0.015 A 
BRANCH  35  38
ATOM     38  O   UNL     1       0.058  -4.127  -0.021  0.00  0.00    -0.495 OA
ATOM     39  C   UNL     1      -1.206  -4.793  -0.013  0.00  0.00    +0.277 C 
ENDBRANCH  35  38
ENDBRANCH  30  32
ENDBRANCH   2  30
TORSDOF 8
