REMARK  Name = ZINC31467718
REMARK  11 active torsions:
REMARK  status: ('A' for Active; 'I' for Inactive)
REMARK    1  A    between atoms: C_1  and  C_2
REMARK    2  A    between atoms: C_2  and  N_3
REMARK    3  A    between atoms: C_7  and  C_9
REMARK    4  A    between atoms: C_9  and  N_10
REMARK    5  A    between atoms: N_10  and  C_11
REMARK    6  A    between atoms: N_10  and  C_20
REMARK    7  A    between atoms: C_11  and  C_12
REMARK    8  A    between atoms: N_17  and  C_18
REMARK    9  A    between atoms: C_18  and  C_19
REMARK   10  A    between atoms: C_20  and  C_22
REMARK   11  A    between atoms: C_20  and  C_23
REMARK                            x       y       z     vdW  Elec       q    Type
REMARK                         _______ _______ _______ _____ _____    ______ ____
ROOT
ATOM      1  N   UNL     1      -0.955  -0.560  -0.364  0.00  0.00    +0.395 N 
ATOM      2  H   UNL     1      -0.482   0.102  -1.103  0.00  0.00    -0.080 HD
ENDROOT
BRANCH   1   3
ATOM      3  C   UNL     1      -0.011  -0.743   0.747  0.00  0.00    -0.040 C 
ATOM      4  C   UNL     1      -0.054   0.483   1.661  0.00  0.00    -0.008 C 
BRANCH   3   5
ATOM      5  C   UNL     1       1.382  -0.913   0.199  0.00  0.00    -0.061 A 
ATOM      6  C   UNL     1       1.953   0.091  -0.561  0.00  0.00    +0.002 A 
ATOM      7  C   UNL     1       3.233  -0.063  -1.060  0.00  0.00    +0.000 A 
ATOM      8  C   UNL     1       3.939  -1.224  -0.806  0.00  0.00    +0.000 A 
ATOM      9  C   UNL     1       3.366  -2.230  -0.050  0.00  0.00    +0.000 A 
ATOM     10  C   UNL     1       2.088  -2.074   0.452  0.00  0.00    +0.002 A 
ENDBRANCH   3   5
ENDBRANCH   1   3
BRANCH   1  11
ATOM     11  C   UNL     1      -1.246  -1.839  -1.024  0.00  0.00    +0.020 C 
BRANCH  11  16
ATOM     12  N   UNL     1       0.800  -4.752  -4.256  0.00  0.00    -0.299 N 
ATOM     13  C   UNL     1       0.780  -3.565  -3.619  0.00  0.00    +0.306 C 
ATOM     14  O   UNL     1       1.617  -2.722  -3.879  0.00  0.00    -0.252 OA
ATOM     15  N   UNL     1      -0.167  -3.311  -2.695  0.00  0.00    -0.242 N 
ATOM     16  C   UNL     1      -0.186  -2.123  -2.058  0.00  0.00    +0.204 C 
ATOM     17  O   UNL     1       0.648  -1.283  -2.317  0.00  0.00    -0.277 OA
ATOM     18  H   UNL     1       0.043  -5.515  -4.021  0.00  0.00    +0.150 HD
ATOM     19  H   UNL     1      -0.924  -4.073  -2.459  0.00  0.00    +0.159 HD
BRANCH  12  21
ATOM     20  C   UNL     1       1.627  -6.435  -5.826  0.00  0.00    +0.024 C 
ATOM     21  C   UNL     1       1.830  -5.028  -5.261  0.00  0.00    +0.102 C 
ENDBRANCH  12  21
ENDBRANCH  11  16
ENDBRANCH   1  11
BRANCH   1  22
ATOM     22  C   UNL     1      -2.191   0.087   0.097  0.00  0.00    +0.020 C 
BRANCH  22  23
ATOM     23  C   UNL     1      -2.009   1.583   0.085  0.00  0.00    +0.204 C 
ATOM     24  O   UNL     1      -1.007   2.068  -0.397  0.00  0.00    -0.277 OA
ATOM     25  N   UNL     1      -2.959   2.382   0.609  0.00  0.00    -0.242 N 
ATOM     26  C   UNL     1      -2.824   3.721   0.546  0.00  0.00    +0.306 C 
ATOM     27  O   UNL     1      -1.878   4.210  -0.040  0.00  0.00    -0.252 OA
ATOM     28  N   UNL     1      -3.738   4.519   1.133  0.00  0.00    -0.299 N 
ATOM     29  H   UNL     1      -3.846   1.941   1.087  0.00  0.00    +0.159 HD
ATOM     30  H   UNL     1      -4.594   4.077   1.663  0.00  0.00    +0.150 HD
BRANCH  28  31
ATOM     31  C   UNL     1      -3.591   5.975   1.064  0.00  0.00    +0.102 C 
ATOM     32  C   UNL     1      -4.753   6.641   1.805  0.00  0.00    +0.024 C 
ENDBRANCH  28  31
ENDBRANCH  22  23
ENDBRANCH   1  22
TORSDOF 8
