REMARK  Name = ZINC10814436
REMARK  14 active torsions:
REMARK  status: ('A' for Active; 'I' for Inactive)
REMARK    1  A    between atoms: C_1  and  C_2
REMARK    2  A    between atoms: C_2  and  N_3
REMARK    3  A    between atoms: C_6  and  C_28
REMARK    4  A    between atoms: C_11  and  C_14
REMARK    5  A    between atoms: C_14  and  C_15
REMARK    6  A    between atoms: C_15  and  C_16
REMARK    7  A    between atoms: N_18  and  C_19
REMARK    8  A    between atoms: C_21  and  C_26
REMARK    9  A    between atoms: C_21  and  C_27
REMARK   10  A    between atoms: C_22  and  C_24
REMARK   11  A    between atoms: C_22  and  C_25
REMARK   12  A    between atoms: C_28  and  O_30
REMARK   13  A    between atoms: O_30  and  C_31
REMARK   14  A    between atoms: C_31  and  C_32
REMARK                            x       y       z     vdW  Elec       q    Type
REMARK                         _______ _______ _______ _____ _____    ______ ____
ROOT
ATOM      1  N   UNL     1      -0.546  11.261  -5.074  0.00  0.00    -0.305 N 
ATOM      2  C   UNL     1      -0.266  11.936  -3.901  0.00  0.00    +0.071 A 
ATOM      3  C   UNL     1      -0.263  13.326  -3.879  0.00  0.00    +0.043 A 
ATOM      4  C   UNL     1       0.020  13.997  -2.693  0.00  0.00    +0.061 A 
ATOM      5  C   UNL     1       0.302  13.274  -1.526  0.00  0.00    +0.017 A 
ATOM      6  C   UNL     1       0.302  11.913  -1.538  0.00  0.00    +0.030 A 
ATOM      7  C   UNL     1       0.017  11.217  -2.725  0.00  0.00    +0.088 A 
ATOM      8  N   UNL     1       0.013   9.870  -2.729  0.00  0.00    -0.245 NA
ATOM      9  C   UNL     1      -0.242   9.201  -3.816  0.00  0.00    +0.107 A 
ATOM     10  C   UNL     1      -0.542   9.910  -5.067  0.00  0.00    +0.273 A 
ATOM     11  O   UNL     1      -0.786   9.288  -6.085  0.00  0.00    -0.266 OA
ENDROOT
BRANCH   1  13
ATOM     12  C   UNL     1      -2.347  12.253  -6.397  0.00  0.00    +0.027 C 
ATOM     13  C   UNL     1      -0.842  11.998  -6.304  0.00  0.00    +0.122 C 
ENDBRANCH   1  13
BRANCH   4  14
ATOM     14  C   UNL     1       0.025  15.474  -2.665  0.00  0.00    +0.339 C 
ATOM     15  O   UNL     1      -0.219  16.102  -3.676  0.00  0.00    -0.245 OA
BRANCH  14  16
ATOM     16  O   UNL     1       0.299  16.125  -1.518  0.00  0.00    -0.461 OA
BRANCH  16  17
ATOM     17  C   UNL     1       0.285  17.576  -1.564  0.00  0.00    +0.229 C 
ATOM     18  C   UNL     1       0.616  18.134  -0.178  0.00  0.00    +0.048 C 
ENDBRANCH  16  17
ENDBRANCH  14  16
ENDBRANCH   4  14
BRANCH   9  19
ATOM     19  C   UNL     1      -0.234   7.694  -3.790  0.00  0.00    +0.070 C 
BRANCH  19  20
ATOM     20  C   UNL     1       0.105   7.210  -2.379  0.00  0.00    +0.102 C 
BRANCH  20  21
ATOM     21  C   UNL     1       0.113   5.703  -2.353  0.00  0.00    +0.214 C 
ATOM     22  O   UNL     1      -0.129   5.078  -3.364  0.00  0.00    -0.276 OA
ATOM     23  N   UNL     1       0.389   5.051  -1.207  0.00  0.00    -0.313 N 
ATOM     24  H   UNL     1       0.582   5.550  -0.398  0.00  0.00    +0.149 HD
BRANCH  23  25
ATOM     25  C   UNL     1       0.396   3.583  -1.181  0.00  0.00    +0.070 C 
ATOM     26  C   UNL     1       1.298   3.104  -0.042  0.00  0.00    +0.009 C 
ATOM     27  C   UNL     1       1.320   1.577  -0.002  0.00  0.00    -0.072 C 
ATOM     28  C   UNL     1      -1.042   1.551  -0.852  0.00  0.00    -0.072 C 
ATOM     29  C   UNL     1      -1.022   3.076  -0.918  0.00  0.00    +0.009 C 
ATOM     30  C   UNL     1      -0.944   0.975  -2.269  0.00  0.00    -0.010 C 
ATOM     31  C   UNL     1      -2.415   1.129  -0.282  0.00  0.00    -0.010 C 
ATOM     32  C   UNL     1       2.035   1.156   1.301  0.00  0.00    -0.010 C 
ATOM     33  C   UNL     1       2.151   1.041  -1.172  0.00  0.00    -0.010 C 
ATOM     34  N   UNL     1      -0.027   0.947   0.053  0.00  0.00    +0.386 N 
ATOM     35  H   UNL     1      -0.375   1.022   1.016  0.00  0.00    -0.084 HD
ATOM     36  H   UNL     1       0.074  -0.044  -0.199  0.00  0.00    -0.084 HD
ENDBRANCH  23  25
ENDBRANCH  20  21
ENDBRANCH  19  20
ENDBRANCH   9  19
TORSDOF 8
