REMARK  Name = ZINC39534445
REMARK  10 active torsions:
REMARK  status: ('A' for Active; 'I' for Inactive)
REMARK    1  A    between atoms: C_1  and  C_2
REMARK    2  A    between atoms: C_2  and  C_3
REMARK    3  A    between atoms: C_2  and  S_4
REMARK    4  A    between atoms: S_4  and  C_7
REMARK    5  A    between atoms: C_10  and  C_13
REMARK    6  A    between atoms: C_13  and  C_15
REMARK    7  A    between atoms: C_13  and  N_18
REMARK    8  A    between atoms: C_15  and  N_16
REMARK    9  A    between atoms: C_22  and  C_25
REMARK   10  A    between atoms: C_30  and  O_31
REMARK                            x       y       z     vdW  Elec       q    Type
REMARK                         _______ _______ _______ _____ _____    ______ ____
ROOT
ATOM      1  C   UNL     1      -4.219   1.653  -4.981  0.00  0.00    +0.103 C 
ENDROOT
BRANCH   1   2
ATOM      2  N   UNL     1      -4.847   0.568  -5.746  0.00  0.00    -0.297 NA
ATOM      3  C   UNL     1      -3.852  -0.152  -6.553  0.00  0.00    +0.066 C 
ATOM      4  C   UNL     1      -4.535  -1.309  -7.286  0.00  0.00    -0.066 C 
ATOM      5  N   UNL     1      -5.601  -0.782  -8.148  0.00  0.00    +0.385 N 
ATOM      6  C   UNL     1      -6.600  -0.087  -7.324  0.00  0.00    -0.023 C 
ATOM      7  C   UNL     1      -5.935   1.080  -6.592  0.00  0.00    +0.074 C 
ATOM      8  H   UNL     1      -5.206  -0.135  -8.814  0.00  0.00    -0.085 HD
ATOM      9  H   UNL     1      -6.043  -1.544  -8.640  0.00  0.00    -0.085 HD
BRANCH   6  10
ATOM     10  C   UNL     1      -7.702   0.437  -8.208  0.00  0.00    -0.019 A 
ATOM     11  C   UNL     1      -7.485   0.598  -9.563  0.00  0.00    +0.005 A 
ATOM     12  C   UNL     1      -8.496   1.080 -10.374  0.00  0.00    +0.000 A 
ATOM     13  C   UNL     1      -9.727   1.401  -9.831  0.00  0.00    +0.004 A 
ATOM     14  C   UNL     1      -9.949   1.242  -8.477  0.00  0.00    +0.045 A 
ATOM     15  C   UNL     1      -8.938   0.754  -7.662  0.00  0.00    +0.118 A 
BRANCH  15  16
ATOM     16  O   UNL     1      -9.156   0.591  -6.331  0.00  0.00    -0.507 OA
ATOM     17  H   UNL     1      -8.943   1.370  -5.799  0.00  0.00    +0.292 HD
ENDBRANCH  15  16
ENDBRANCH   6  10
ENDBRANCH   1   2
BRANCH   1  21
ATOM     18  C   UNL     1      -2.633   0.093  -1.334  0.00  0.00    +0.088 A 
ATOM     19  C   UNL     1      -2.874   1.448  -1.459  0.00  0.00    +0.027 A 
ATOM     20  C   UNL     1      -3.387   1.953  -2.639  0.00  0.00    +0.007 A 
ATOM     21  C   UNL     1      -3.659   1.103  -3.695  0.00  0.00    -0.029 A 
ATOM     22  C   UNL     1      -3.418  -0.253  -3.570  0.00  0.00    +0.007 A 
ATOM     23  C   UNL     1      -2.901  -0.757  -2.391  0.00  0.00    +0.027 A 
BRANCH  18  24
ATOM     24  S   UNL     1      -1.980  -0.551   0.170  0.00  0.00    -0.001 S 
ATOM     25  O   UNL     1      -2.416  -1.903   0.206  0.00  0.00    -0.169 OA
ATOM     26  O   UNL     1      -2.393   0.371   1.169  0.00  0.00    -0.169 OA
BRANCH  24  28
ATOM     27  C   UNL     1       0.253   0.969  -0.267  0.00  0.00    +0.032 C 
ATOM     28  C   UNL     1      -0.179  -0.481  -0.037  0.00  0.00    +0.130 C 
ATOM     29  C   UNL     1       0.501  -1.022   1.223  0.00  0.00    +0.032 C 
ENDBRANCH  24  28
ENDBRANCH  18  24
ENDBRANCH   1  21
BRANCH   1  30
ATOM     30  C   UNL     1      -3.089   2.271  -5.806  0.00  0.00    +0.140 C 
BRANCH  30  31
ATOM     31  N   UNL     1      -3.636   2.812  -7.058  0.00  0.00    -0.157 NA
ATOM     32  F   UNL     1      -2.732   3.482  -7.710  0.00  0.00    -0.136 F 
ATOM     33  H   UNL     1      -4.025   2.078  -7.630  0.00  0.00    +0.159 HD
ENDBRANCH  30  31
ENDBRANCH   1  30
TORSDOF 8
