REMARK  Name = ZINC63279469
REMARK  6 active torsions:
REMARK  status: ('A' for Active; 'I' for Inactive)
REMARK    1  A    between atoms: C_1  and  C_2
REMARK    2  A    between atoms: C_5  and  C_8
REMARK    3  A    between atoms: C_19  and  C_21
REMARK    4  A    between atoms: N_22  and  C_23
REMARK    5  A    between atoms: C_23  and  C_24
REMARK    6  A    between atoms: C_24  and  C_25
REMARK                            x       y       z     vdW  Elec       q    Type
REMARK                         _______ _______ _______ _____ _____    ______ ____
ROOT
ATOM      1  C   UNL     1       0.059  -4.275  -0.021  0.00  0.00    +0.198 C 
ATOM      2  N   UNL     1       0.781  -4.765  -1.209  0.00  0.00    -0.295 N 
ATOM      3  C   UNL     1       2.154  -4.814  -1.184  0.00  0.00    +0.180 C 
ATOM      4  N   UNL     1       2.843  -4.718  -0.091  0.00  0.00    -0.215 NA
ATOM      5  C   UNL     1       2.231  -4.510   1.216  0.00  0.00    +0.290 C 
ATOM      6  N   UNL     1       0.795  -4.778   1.154  0.00  0.00    -0.238 N 
ATOM      7  C   UNL     1       0.150  -5.459   2.111  0.00  0.00    +0.245 C 
ATOM      8  O   UNL     1      -1.065  -5.529   2.088  0.00  0.00    -0.270 OA
ATOM      9  C   UNL     1       0.869  -6.097   3.148  0.00  0.00    +0.085 C 
ATOM     10  C   UNL     1       2.213  -6.011   3.181  0.00  0.00    +0.008 C 
ATOM     11  N   UNL     1       2.882  -5.303   2.242  0.00  0.00    -0.311 N 
ATOM     12  C   UNL     1       2.976  -6.728   4.265  0.00  0.00    +0.060 C 
ATOM     13  N   UNL     1       2.827  -4.972  -2.372  0.00  0.00    -0.317 N 
ATOM     14  H   UNL     1       3.852  -5.319   2.270  0.00  0.00    +0.149 HD
ATOM     15  H   UNL     1       2.332  -5.046  -3.203  0.00  0.00    +0.149 HD
ATOM     16  H   UNL     1       0.294  -5.049  -1.998  0.00  0.00    +0.151 HD
ENDROOT
BRANCH   1  21
ATOM     17  C   UNL     1      -0.018   1.503   0.010  0.00  0.00    +0.044 C 
ATOM     18  C   UNL     1       0.002  -0.004   0.002  0.00  0.00    -0.050 A 
ATOM     19  C   UNL     1       0.006  -0.689  -1.199  0.00  0.00    +0.004 A 
ATOM     20  C   UNL     1       0.025  -2.071  -1.206  0.00  0.00    +0.007 A 
ATOM     21  C   UNL     1       0.040  -2.768  -0.013  0.00  0.00    -0.009 A 
ATOM     22  C   UNL     1       0.037  -2.084   1.188  0.00  0.00    +0.007 A 
ATOM     23  C   UNL     1       0.023  -0.702   1.195  0.00  0.00    +0.004 A 
ENDBRANCH   1  21
BRANCH  13  24
ATOM     24  C   UNL     1       4.291  -5.029  -2.383  0.00  0.00    +0.108 C 
BRANCH  24  25
ATOM     25  C   UNL     1       4.783  -5.208  -3.821  0.00  0.00    +0.052 C 
BRANCH  25  26
ATOM     26  C   UNL     1       6.289  -5.267  -3.832  0.00  0.00    -0.040 C 
ATOM     27  C   UNL     1       7.060  -6.378  -3.817  0.00  0.00    -0.001 A 
ATOM     28  C   UNL     1       6.739  -7.810  -3.787  0.00  0.00    +0.010 A 
ATOM     29  C   UNL     1       7.750  -8.709  -3.778  0.00  0.00    +0.001 A 
ATOM     30  C   UNL     1       9.093  -8.307  -3.797  0.00  0.00    +0.002 A 
ATOM     31  C   UNL     1       9.466  -7.010  -3.825  0.00  0.00    +0.026 A 
ATOM     32  C   UNL     1       8.486  -5.980  -3.837  0.00  0.00    +0.043 A 
ATOM     33  N   UNL     1       8.592  -4.674  -3.863  0.00  0.00    -0.380 N 
ATOM     34  C   UNL     1       7.244  -4.095  -3.868  0.00  0.00    +0.144 C 
ATOM     35  H   UNL     1       9.423  -4.174  -3.879  0.00  0.00    +0.160 HD
ENDBRANCH  25  26
ENDBRANCH  24  25
ENDBRANCH  13  24
TORSDOF 4
