REMARK  Name = ZINC47550205
REMARK  5 active torsions:
REMARK  status: ('A' for Active; 'I' for Inactive)
REMARK    1  A    between atoms: C_4  and  N_6
REMARK    2  A    between atoms: N_6  and  C_7
REMARK    3  A    between atoms: N_6  and  C_14
REMARK    4  A    between atoms: C_7  and  C_8
REMARK    5  A    between atoms: C_14  and  C_15
REMARK                            x       y       z     vdW  Elec       q    Type
REMARK                         _______ _______ _______ _____ _____    ______ ____
ROOT
ATOM      1  N   UNL     1       1.153  -1.146  -1.727  0.00  0.00    +0.393 N 
ATOM      2  H   UNL     1       0.476  -0.420  -1.902  0.00  0.00    -0.080 HD
ENDROOT
BRANCH   1   6
ATOM      3  C   UNL     1       2.408  -2.535   1.231  0.00  0.00    -0.002 C 
ATOM      4  C   UNL     1       1.670  -1.340   1.885  0.00  0.00    -0.002 C 
ATOM      5  C   UNL     1       0.909  -0.713   0.690  0.00  0.00    -0.015 C 
ATOM      6  C   UNL     1       1.890  -0.843  -0.493  0.00  0.00    -0.067 C 
ATOM      7  C   UNL     1       2.843  -2.001  -0.150  0.00  0.00    -0.015 C 
ENDBRANCH   1   6
BRANCH   1   8
ATOM      8  C   UNL     1       2.094  -1.220  -2.853  0.00  0.00    +0.020 C 
BRANCH   8   9
ATOM      9  C   UNL     1       2.664   0.149  -3.122  0.00  0.00    +0.204 C 
ATOM     10  O   UNL     1       2.236   1.112  -2.523  0.00  0.00    -0.277 OA
ATOM     11  N   UNL     1       3.650   0.302  -4.027  0.00  0.00    -0.242 N 
ATOM     12  C   UNL     1       4.161   1.526  -4.268  0.00  0.00    +0.303 C 
ATOM     13  O   UNL     1       3.732   2.492  -3.667  0.00  0.00    -0.253 OA
ATOM     14  N   UNL     1       5.147   1.679  -5.173  0.00  0.00    -0.313 N 
ATOM     15  H   UNL     1       3.993  -0.469  -4.507  0.00  0.00    +0.159 HD
ATOM     16  H   UNL     1       5.490   0.908  -5.652  0.00  0.00    +0.146 HD
ATOM     17  H   UNL     1       5.514   2.560  -5.346  0.00  0.00    +0.146 HD
ENDBRANCH   8   9
ENDBRANCH   1   8
BRANCH   1  18
ATOM     18  C   UNL     1       0.463  -2.435  -1.581  0.00  0.00    +0.020 C 
BRANCH  18  19
ATOM     19  C   UNL     1      -0.927  -2.202  -1.048  0.00  0.00    +0.204 C 
ATOM     20  O   UNL     1      -1.352  -1.072  -0.934  0.00  0.00    -0.277 OA
ATOM     21  N   UNL     1      -1.699  -3.250  -0.697  0.00  0.00    -0.242 N 
ATOM     22  C   UNL     1      -2.942  -3.042  -0.220  0.00  0.00    +0.303 C 
ATOM     23  O   UNL     1      -3.368  -1.909  -0.107  0.00  0.00    -0.253 OA
ATOM     24  N   UNL     1      -3.714  -4.090   0.130  0.00  0.00    -0.313 N 
ATOM     25  H   UNL     1      -1.359  -4.154  -0.788  0.00  0.00    +0.159 HD
ATOM     26  H   UNL     1      -3.374  -4.994   0.040  0.00  0.00    +0.146 HD
ATOM     27  H   UNL     1      -4.609  -3.940   0.473  0.00  0.00    +0.146 HD
ENDBRANCH  18  19
ENDBRANCH   1  18
TORSDOF 5
