REMARK  Name = ZINC16952445
REMARK  9 active torsions:
REMARK  status: ('A' for Active; 'I' for Inactive)
REMARK    1  A    between atoms: C_1  and  S_2
REMARK    2  A    between atoms: S_2  and  C_3
REMARK    3  A    between atoms: C_9  and  N_11
REMARK    4  A    between atoms: N_11  and  C_12
REMARK    5  A    between atoms: C_14  and  O_27
REMARK    6  A    between atoms: C_16  and  O_26
REMARK    7  A    between atoms: C_18  and  O_25
REMARK    8  A    between atoms: C_20  and  C_23
REMARK    9  A    between atoms: C_23  and  O_24
REMARK                            x       y       z     vdW  Elec       q    Type
REMARK                         _______ _______ _______ _____ _____    ______ ____
ROOT
ATOM      1  C   UNL     1       2.146   2.713  -3.811  0.00  0.00    +0.236 C 
ATOM      2  C   UNL     1       3.337   3.574  -4.242  0.00  0.00    +0.192 C 
ATOM      3  C   UNL     1       3.059   5.035  -3.876  0.00  0.00    +0.178 C 
ATOM      4  C   UNL     1       1.752   5.477  -4.539  0.00  0.00    +0.177 C 
ATOM      5  C   UNL     1       0.623   4.543  -4.096  0.00  0.00    +0.177 C 
ATOM      6  O   UNL     1       0.957   3.197  -4.439  0.00  0.00    -0.348 OA
ENDROOT
BRANCH   1   7
ATOM      7  N   UNL     1       2.379   1.323  -4.210  0.00  0.00    -0.301 N 
ATOM      8  H   UNL     1       2.847   1.127  -5.036  0.00  0.00    +0.150 HD
BRANCH   7  15
ATOM      9  C   UNL     1       0.848  -0.411  -1.489  0.00  0.00    +0.171 A 
ATOM     10  N   UNL     1       1.038  -1.720  -1.812  0.00  0.00    -0.301 N 
ATOM     11  H   UNL     1       0.709  -2.417  -1.224  0.00  0.00    +0.171 HD
ATOM     12  C   UNL     1       1.684  -2.050  -2.951  0.00  0.00    +0.272 A 
ATOM     13  O   UNL     1       1.857  -3.222  -3.249  0.00  0.00    -0.266 OA
ATOM     14  C   UNL     1       2.150  -1.028  -3.784  0.00  0.00    +0.145 A 
ATOM     15  C   UNL     1       1.931   0.291  -3.408  0.00  0.00    +0.147 A 
ATOM     16  N   UNL     1       1.280   0.558  -2.271  0.00  0.00    -0.207 NA
ATOM     17 CL   UNL     1       2.986  -1.400  -5.259  0.00  0.00    -0.074 Cl
BRANCH   9  19
ATOM     18  C   UNL     1      -0.022   1.810   0.012  0.00  0.00    +0.093 C 
ATOM     19  S   UNL     1       0.002  -0.004   0.002  0.00  0.00    -0.091 S 
ENDBRANCH   9  19
ENDBRANCH   7  15
ENDBRANCH   1   7
BRANCH   4  20
ATOM     20  O   UNL     1       1.446   6.817  -4.147  0.00  0.00    -0.386 OA
ATOM     21  H   UNL     1       2.123   7.463  -4.393  0.00  0.00    +0.210 HD
ENDBRANCH   4  20
BRANCH   3  22
ATOM     22  O   UNL     1       4.134   5.856  -4.339  0.00  0.00    -0.386 OA
ATOM     23  H   UNL     1       4.994   5.627  -3.963  0.00  0.00    +0.210 HD
ENDBRANCH   3  22
BRANCH   2  24
ATOM     24  O   UNL     1       4.517   3.128  -3.572  0.00  0.00    -0.385 OA
ATOM     25  H   UNL     1       4.749   2.207  -3.756  0.00  0.00    +0.210 HD
ENDBRANCH   2  24
BRANCH   5  26
ATOM     26  C   UNL     1      -0.676   4.942  -4.801  0.00  0.00    +0.190 C 
BRANCH  26  27
ATOM     27  O   UNL     1      -1.753   4.146  -4.301  0.00  0.00    -0.392 OA
ATOM     28  H   UNL     1      -2.609   4.345  -4.705  0.00  0.00    +0.210 HD
ENDBRANCH  26  27
ENDBRANCH   5  26
TORSDOF 8
