REMARK  Name = ZINC03011876
REMARK  4 active torsions:
REMARK  status: ('A' for Active; 'I' for Inactive)
REMARK    1  A    between atoms: C_6  and  C_7
REMARK    2  A    between atoms: C_10  and  C_29
REMARK    3  A    between atoms: C_15  and  C_17
REMARK    4  A    between atoms: N_19  and  C_20
REMARK                            x       y       z     vdW  Elec       q    Type
REMARK                         _______ _______ _______ _____ _____    ______ ____
ROOT
ATOM      1  C   UNL     1      -1.247  -0.752  -0.003  0.00  0.00    +0.104 C 
ATOM      2  C   UNL     1      -1.547  -1.241   1.419  0.00  0.00    +0.063 C 
ATOM      3  C   UNL     1      -0.382  -2.095   1.933  0.00  0.00    +0.215 C 
ATOM      4  N   UNL     1      -0.053  -3.105   0.924  0.00  0.00    -0.238 N 
ATOM      5  C   UNL     1      -0.417  -3.012  -0.390  0.00  0.00    +0.119 A 
ATOM      6  C   UNL     1       0.041  -4.104  -1.031  0.00  0.00    +0.078 A 
ATOM      7  C   UNL     1       0.717  -4.905  -0.083  0.00  0.00    +0.149 A 
ATOM      8  N   UNL     1       0.655  -4.295   1.089  0.00  0.00    -0.164 NA
ATOM      9  N   UNL     1      -1.143  -1.924  -0.894  0.00  0.00    -0.322 N 
ATOM     10  H   UNL     1      -1.553  -1.939  -1.773  0.00  0.00    +0.148 HD
ENDROOT
BRANCH   1  16
ATOM     11  C   UNL     1       0.045   1.392  -0.008  0.00  0.00    +0.007 A 
ATOM     12  C   UNL     1       1.237   2.090  -0.017  0.00  0.00    +0.020 A 
ATOM     13  C   UNL     1       2.440   1.406  -0.030  0.00  0.00    +0.041 A 
ATOM     14  C   UNL     1       2.447   0.022  -0.035  0.00  0.00    +0.020 A 
ATOM     15  C   UNL     1       1.254  -0.675  -0.026  0.00  0.00    +0.007 A 
ATOM     16  C   UNL     1       0.053   0.009  -0.013  0.00  0.00    -0.027 A 
ATOM     17 CL   UNL     1       3.938   2.283  -0.041  0.00  0.00    -0.084 Cl
ENDBRANCH   1  16
BRANCH   7  18
ATOM     18  C   UNL     1       1.378  -6.198  -0.353  0.00  0.00    +0.268 C 
ATOM     19  O   UNL     1       1.369  -6.662  -1.476  0.00  0.00    -0.268 OA
ATOM     20  N   UNL     1       1.990  -6.864   0.647  0.00  0.00    -0.279 N 
ATOM     21  H   UNL     1       2.054  -6.464   1.528  0.00  0.00    +0.155 HD
BRANCH  20  22
ATOM     22  C   UNL     1       2.534  -8.131   0.413  0.00  0.00    +0.054 A 
ATOM     23  C   UNL     1       3.103  -8.428  -0.819  0.00  0.00    +0.044 A 
ATOM     24  C   UNL     1       3.640  -9.681  -1.046  0.00  0.00    +0.043 A 
ATOM     25  C   UNL     1       3.610 -10.640  -0.049  0.00  0.00    +0.021 A 
ATOM     26  C   UNL     1       3.043 -10.348   1.178  0.00  0.00    +0.023 A 
ATOM     27  C   UNL     1       2.510  -9.095   1.414  0.00  0.00    +0.062 A 
ATOM     28 CL   UNL     1       1.805  -8.727   2.957  0.00  0.00    -0.082 Cl
ATOM     29 CL   UNL     1       4.352 -10.052  -2.586  0.00  0.00    -0.083 Cl
ENDBRANCH  20  22
ENDBRANCH   7  18
BRANCH   3  30
ATOM     30  C   UNL     1      -0.788  -2.783   3.237  0.00  0.00    +0.412 C 
ATOM     31  F   UNL     1      -1.899  -3.602   3.006  0.00  0.00    -0.168 F 
ATOM     32  F   UNL     1       0.276  -3.562   3.705  0.00  0.00    -0.168 F 
ATOM     33  F   UNL     1      -1.113  -1.816   4.194  0.00  0.00    -0.168 F 
ENDBRANCH   3  30
TORSDOF 4
