REMARK  Name = ZINC51579055
REMARK  8 active torsions:
REMARK  status: ('A' for Active; 'I' for Inactive)
REMARK    1  A    between atoms: C_1  and  C_2
REMARK    2  A    between atoms: C_5  and  C_19
REMARK    3  A    between atoms: C_6  and  N_8
REMARK    4  A    between atoms: N_8  and  C_9
REMARK    5  A    between atoms: N_8  and  C_16
REMARK    6  A    between atoms: C_9  and  C_10
REMARK    7  A    between atoms: C_16  and  C_17
REMARK    8  A    between atoms: C_16  and  C_18
REMARK                            x       y       z     vdW  Elec       q    Type
REMARK                         _______ _______ _______ _____ _____    ______ ____
ROOT
ATOM      1  C   UNL     1       0.466  -3.060  -2.236  0.00  0.00    +0.044 C 
ATOM      2  C   UNL     1       0.299  -2.197  -1.013  0.00  0.00    -0.049 A 
ATOM      3  C   UNL     1       0.286  -0.817  -1.141  0.00  0.00    +0.004 A 
ATOM      4  C   UNL     1       0.133  -0.016  -0.029  0.00  0.00    +0.013 A 
ATOM      5  C   UNL     1      -0.010  -0.596   1.233  0.00  0.00    +0.033 A 
ATOM      6  C   UNL     1       0.004  -1.993   1.359  0.00  0.00    +0.041 A 
ATOM      7  C   UNL     1       0.153  -2.785   0.227  0.00  0.00    +0.027 A 
ENDROOT
BRANCH   5   8
ATOM      8  C   UNL     1      -0.173   0.255   2.427  0.00  0.00    +0.096 C 
ATOM      9  N   UNL     1       0.750   1.169   2.725  0.00  0.00    -0.387 N 
ATOM     10  N   UNL     1      -1.244   0.111   3.208  0.00  0.00    -0.345 N 
ATOM     11  H   UNL     1       1.492   1.325   2.120  0.00  0.00    +0.157 HD
ATOM     12  H   UNL     1      -1.886  -0.594   3.025  0.00  0.00    +0.144 HD
ATOM     13  H   UNL     1      -1.382   0.710   3.958  0.00  0.00    +0.144 HD
ATOM     14  H   UNL     1       0.680   1.679   3.548  0.00  0.00    +0.157 HD
ENDBRANCH   5   8
BRANCH   6  15
ATOM     15  N   UNL     1      -0.137  -2.583   2.609  0.00  0.00    -0.322 N 
BRANCH  15  16
ATOM     16  C   UNL     1       1.048  -2.870   3.421  0.00  0.00    +0.068 C 
ATOM     17  C   UNL     1       1.905  -3.924   2.717  0.00  0.00    +0.027 C 
ATOM     18  C   UNL     1       1.863  -1.589   3.605  0.00  0.00    +0.027 C 
ENDBRANCH  15  16
BRANCH  15  19
ATOM     19  C   UNL     1      -1.471  -2.917   3.115  0.00  0.00    +0.140 C 
BRANCH  19  20
ATOM     20  C   UNL     1      -1.771  -4.364   2.821  0.00  0.00    -0.030 A 
ATOM     21  C   UNL     1      -2.296  -4.726   1.594  0.00  0.00    +0.005 A 
ATOM     22  C   UNL     1      -2.572  -6.053   1.325  0.00  0.00    +0.000 A 
ATOM     23  C   UNL     1      -2.323  -7.019   2.281  0.00  0.00    +0.000 A 
ATOM     24  C   UNL     1      -1.797  -6.658   3.508  0.00  0.00    +0.000 A 
ATOM     25  C   UNL     1      -1.518  -5.331   3.776  0.00  0.00    +0.005 A 
ENDBRANCH  19  20
ENDBRANCH  15  19
ENDBRANCH   6  15
TORSDOF 5
