REMARK  Name = ZINC08868970
REMARK  9 active torsions:
REMARK  status: ('A' for Active; 'I' for Inactive)
REMARK    1  A    between atoms: C_1  and  C_2
REMARK    2  A    between atoms: C_2  and  N_61
REMARK    3  A    between atoms: C_8  and  N_13
REMARK    4  A    between atoms: C_9  and  C_10
REMARK    5  A    between atoms: C_14  and  C_16
REMARK    6  A    between atoms: N_21  and  S_22
REMARK    7  A    between atoms: S_22  and  C_25
REMARK    8  A    between atoms: C_28  and  O_31
REMARK    9  A    between atoms: O_31  and  C_32
REMARK                            x       y       z     vdW  Elec       q    Type
REMARK                         _______ _______ _______ _____ _____    ______ ____
ROOT
ATOM      1  N   UNL     1      -5.734  -6.600   2.401  0.00  0.00    -0.278 N 
ATOM      2  C   UNL     1      -5.913  -5.397   1.821  0.00  0.00    +0.236 C 
ATOM      3  O   UNL     1      -6.576  -5.303   0.809  0.00  0.00    -0.274 OA
ATOM      4  H   UNL     1      -5.204  -6.675   3.209  0.00  0.00    +0.155 HD
ENDROOT
BRANCH   1  10
ATOM      5  C   UNL     1      -8.131 -12.177   1.087  0.00  0.00    -0.074 C 
ATOM      6  C   UNL     1      -6.969 -11.537   1.853  0.00  0.00    +0.018 C 
ATOM      7  C   UNL     1      -6.935 -10.053   1.511  0.00  0.00    -0.027 A 
ATOM      8  C   UNL     1      -7.587  -9.592   0.419  0.00  0.00    -0.021 A 
ATOM      9  S   UNL     1      -7.292  -7.848   0.419  0.00  0.00    -0.079 S 
ATOM     10  C   UNL     1      -6.308  -7.731   1.841  0.00  0.00    +0.084 A 
ATOM     11  C   UNL     1      -6.238  -9.045   2.287  0.00  0.00    +0.068 A 
ATOM     12  C   UNL     1      -8.380 -10.410  -0.553  0.00  0.00    -0.035 C 
ATOM     13  N   UNL     1      -8.021 -11.834  -0.346  0.00  0.00    +0.383 N 
ATOM     14  H   UNL     1      -7.051 -11.982  -0.651  0.00  0.00    -0.081 HD
BRANCH  11  15
ATOM     15  C   UNL     1      -5.487  -9.399   3.496  0.00  0.00    +0.244 C 
ATOM     16  O   UNL     1      -6.041  -9.395   4.579  0.00  0.00    -0.270 OA
ATOM     17  N   UNL     1      -4.183  -9.729   3.407  0.00  0.00    -0.325 N 
ATOM     18  H   UNL     1      -3.742  -9.733   2.543  0.00  0.00    +0.145 HD
ATOM     19  H   UNL     1      -3.687  -9.964   4.207  0.00  0.00    +0.145 HD
ENDBRANCH  11  15
BRANCH  13  21
ATOM     20  C   UNL     1      -8.616 -12.484  -2.630  0.00  0.00    -0.017 C 
ATOM     21  C   UNL     1      -8.913 -12.701  -1.145  0.00  0.00    -0.082 C 
ENDBRANCH  13  21
ENDBRANCH   1  10
BRANCH   2  22
ATOM     22  C   UNL     1      -5.290  -4.167   2.429  0.00  0.00    +0.166 C 
ATOM     23  C   UNL     1      -5.859  -3.932   3.844  0.00  0.00    +0.031 C 
ATOM     24  C   UNL     1      -6.000  -2.388   3.912  0.00  0.00    +0.019 C 
ATOM     25  C   UNL     1      -6.401  -2.048   2.455  0.00  0.00    +0.110 C 
ATOM     26  N   UNL     1      -5.625  -2.985   1.622  0.00  0.00    -0.165 NA
BRANCH  26  27
ATOM     27  S   UNL     1      -5.207  -2.748   0.037  0.00  0.00    +0.062 S 
ATOM     28  O   UNL     1      -6.152  -1.833  -0.500  0.00  0.00    -0.153 OA
ATOM     29  O   UNL     1      -4.991  -4.036  -0.523  0.00  0.00    -0.153 OA
BRANCH  27  30
ATOM     30  C   UNL     1      -3.648  -1.927   0.026  0.00  0.00    +0.106 A 
ATOM     31  C   UNL     1      -2.479  -2.665   0.011  0.00  0.00    +0.032 A 
ATOM     32  C   UNL     1      -1.255  -2.024   0.003  0.00  0.00    +0.047 A 
ATOM     33  C   UNL     1      -1.200  -0.637   0.010  0.00  0.00    +0.120 A 
ATOM     34  C   UNL     1      -2.374   0.101   0.031  0.00  0.00    +0.047 A 
ATOM     35  C   UNL     1      -3.595  -0.545   0.033  0.00  0.00    +0.032 A 
BRANCH  33  36
ATOM     36  O   UNL     1       0.002  -0.004   0.002  0.00  0.00    -0.495 OA
ATOM     37  C   UNL     1      -0.017   1.425   0.010  0.00  0.00    +0.277 C 
ENDBRANCH  33  36
ENDBRANCH  27  30
ENDBRANCH  26  27
ENDBRANCH   2  22
TORSDOF 7
