REMARK  Name = ZINC66187591
REMARK  5 active torsions:
REMARK  status: ('A' for Active; 'I' for Inactive)
REMARK    1  A    between atoms: C_1  and  C_2
REMARK    2  A    between atoms: C_2  and  N_3
REMARK    3  A    between atoms: C_7  and  N_10
REMARK    4  A    between atoms: C_16  and  N_19
REMARK    5  A    between atoms: C_20  and  C_22
REMARK                            x       y       z     vdW  Elec       q    Type
REMARK                         _______ _______ _______ _____ _____    ______ ____
ROOT
ATOM      1  N   UNL     1       3.651  -3.775  -3.632  0.00  0.00    -0.298 N 
ATOM      2  C   UNL     1       2.744  -4.503  -2.952  0.00  0.00    +0.302 C 
ATOM      3  O   UNL     1       1.877  -3.946  -2.307  0.00  0.00    -0.253 OA
ATOM      4  N   UNL     1       2.797  -5.850  -2.988  0.00  0.00    -0.286 N 
ATOM      5  C   UNL     1       1.749  -6.657  -2.349  0.00  0.00    +0.111 C 
ATOM      6  C   UNL     1       1.192  -7.645  -3.379  0.00  0.00    +0.041 C 
ATOM      7  C   UNL     1       2.343  -8.463  -3.970  0.00  0.00    +0.076 C 
ATOM      8  C   UNL     1       3.323  -7.527  -4.681  0.00  0.00    +0.041 C 
ATOM      9  C   UNL     1       3.901  -6.537  -3.671  0.00  0.00    +0.111 C 
ATOM     10  H   UNL     1       4.386  -4.216  -4.086  0.00  0.00    +0.150 HD
ENDROOT
BRANCH   1  15
ATOM     11  N   UNL     1       4.109  -0.326  -4.992  0.00  0.00    +0.381 N 
ATOM     12  C   UNL     1       4.797   0.273  -3.842  0.00  0.00    -0.079 C 
ATOM     13  C   UNL     1       4.117  -0.176  -2.547  0.00  0.00    -0.017 C 
ATOM     14  C   UNL     1       4.183  -1.702  -2.444  0.00  0.00    +0.018 C 
ATOM     15  C   UNL     1       3.528  -2.316  -3.685  0.00  0.00    +0.058 C 
ATOM     16  C   UNL     1       4.229  -1.788  -4.939  0.00  0.00    -0.056 C 
ATOM     17  H   UNL     1       3.133  -0.069  -4.970  0.00  0.00    -0.082 HD
BRANCH  11  19
ATOM     18  C   UNL     1       4.481   1.675  -6.353  0.00  0.00    -0.017 C 
ATOM     19  C   UNL     1       4.715   0.168  -6.236  0.00  0.00    -0.082 C 
ENDBRANCH  11  19
ENDBRANCH   1  15
BRANCH   7  20
ATOM     20  N   UNL     1       1.810  -9.431  -4.931  0.00  0.00    -0.312 N 
ATOM     21  C   UNL     1       2.494 -10.561  -5.200  0.00  0.00    +0.216 C 
ATOM     22  O   UNL     1       3.552 -10.775  -4.647  0.00  0.00    -0.276 OA
ATOM     23  H   UNL     1       0.964  -9.260  -5.374  0.00  0.00    +0.149 HD
BRANCH  21  24
ATOM     24  C   UNL     1       1.946 -11.557  -6.189  0.00  0.00    +0.075 C 
ATOM     25  C   UNL     1       0.901 -12.511  -5.587  0.00  0.00    +0.013 C 
ATOM     26  C   UNL     1       1.555 -13.627  -6.420  0.00  0.00    +0.001 C 
ATOM     27  C   UNL     1       2.844 -12.790  -6.384  0.00  0.00    +0.013 C 
ENDBRANCH  21  24
ENDBRANCH   7  20
TORSDOF 4
