REMARK  Name = ZINC39355735
REMARK  12 active torsions:
REMARK  status: ('A' for Active; 'I' for Inactive)
REMARK    1  A    between atoms: C_1  and  C_2
REMARK    2  A    between atoms: C_2  and  O_3
REMARK    3  A    between atoms: O_3  and  C_4
REMARK    4  A    between atoms: C_6  and  C_14
REMARK    5  A    between atoms: C_8  and  N_11
REMARK    6  A    between atoms: C_9  and  O_10
REMARK    7  A    between atoms: C_14  and  C_16
REMARK    8  A    between atoms: C_14  and  C_24
REMARK    9  A    between atoms: C_18  and  C_23
REMARK   10  A    between atoms: C_21  and  O_22
REMARK   11  A    between atoms: C_25  and  O_31
REMARK   12  A    between atoms: C_28  and  C_30
REMARK                            x       y       z     vdW  Elec       q    Type
REMARK                         _______ _______ _______ _____ _____    ______ ____
ROOT
ATOM      1  C   UNL     1      -0.454  -5.094   0.747  0.00  0.00    +0.089 C 
ENDROOT
BRANCH   1   2
ATOM      2  C   UNL     1       0.548  -6.020   1.388  0.00  0.00    +0.047 A 
ATOM      3  C   UNL     1       0.278  -6.968   2.314  0.00  0.00    +0.041 A 
ATOM      4  N   UNL     1       1.439  -7.578   2.632  0.00  0.00    -0.278 N 
ATOM      5  N   UNL     1       2.460  -6.987   1.877  0.00  0.00    -0.136 NA
ATOM      6  C   UNL     1       1.926  -6.055   1.125  0.00  0.00    +0.236 A 
ATOM      7  C   UNL     1      -1.079  -7.285   2.889  0.00  0.00    +0.065 C 
ATOM      8  H   UNL     1       1.547  -8.299   3.271  0.00  0.00    +0.189 HD
BRANCH   6  10
ATOM      9  H   UNL     1       2.873  -4.412   0.617  0.00  0.00    +0.294 HD
ATOM     10  O   UNL     1       2.592  -5.259   0.246  0.00  0.00    -0.491 OA
ENDBRANCH   6  10
ENDBRANCH   1   2
BRANCH   1  13
ATOM     11  C   UNL     1       0.997  -2.114  -1.066  0.00  0.00    +0.164 A 
ATOM     12  C   UNL     1       0.364  -2.889  -0.108  0.00  0.00    +0.054 A 
ATOM     13  C   UNL     1       0.235  -4.253  -0.296  0.00  0.00    -0.030 A 
ATOM     14  C   UNL     1       0.737  -4.846  -1.440  0.00  0.00    +0.041 A 
ATOM     15  C   UNL     1       1.370  -4.078  -2.400  0.00  0.00    +0.171 A 
ATOM     16  C   UNL     1       1.498  -2.710  -2.219  0.00  0.00    +0.189 A 
BRANCH  15  17
ATOM     17  N   UNL     1       1.907  -4.717  -3.622  0.00  0.00    +0.060 N 
ATOM     18  O   UNL     1       1.792  -5.910  -3.782  0.00  0.00    -0.126 OA
ATOM     19  O   UNL     1       2.460  -4.045  -4.462  0.00  0.00    -0.126 OA
ENDBRANCH  15  17
BRANCH  16  20
ATOM     20  O   UNL     1       2.115  -1.953  -3.165  0.00  0.00    -0.502 OA
ATOM     21  H   UNL     1       3.069  -1.863  -3.036  0.00  0.00    +0.292 HD
ENDBRANCH  16  20
BRANCH  11  22
ATOM     22  O   UNL     1       1.125  -0.773  -0.882  0.00  0.00    -0.488 OA
BRANCH  22  24
ATOM     23  C   UNL     1       0.823   1.282   0.354  0.00  0.00    +0.048 C 
ATOM     24  C   UNL     1       0.587  -0.230   0.326  0.00  0.00    +0.226 C 
ENDBRANCH  22  24
ENDBRANCH  11  22
ENDBRANCH   1  13
BRANCH   1  25
ATOM     25  C   UNL     1      -1.544  -5.907   0.097  0.00  0.00    +0.031 C 
ATOM     26  C   UNL     1      -2.849  -5.928   0.399  0.00  0.00    +0.234 C 
ATOM     27  N   UNL     1      -3.513  -6.787  -0.412  0.00  0.00    -0.116 NA
ATOM     28  N   UNL     1      -2.802  -7.360  -1.241  0.00  0.00    -0.176 NA
ATOM     29  C   UNL     1      -1.420  -6.886  -1.057  0.00  0.00    +0.157 C 
ATOM     30  C   UNL     1      -0.498  -8.048  -0.683  0.00  0.00    +0.039 C 
BRANCH  26  31
ATOM     31  O   UNL     1      -3.427  -5.191   1.383  0.00  0.00    -0.491 OA
ATOM     32  H   UNL     1      -4.381  -5.327   1.468  0.00  0.00    +0.294 HD
ENDBRANCH  26  31
ENDBRANCH   1  25
TORSDOF 9
