REMARK  Name = ZINC57288307
REMARK  10 active torsions:
REMARK  status: ('A' for Active; 'I' for Inactive)
REMARK    1  A    between atoms: C_1  and  S_2
REMARK    2  A    between atoms: S_2  and  C_3
REMARK    3  A    between atoms: C_3  and  C_4
REMARK    4  A    between atoms: C_4  and  C_5
REMARK    5  A    between atoms: C_5  and  C_7
REMARK    6  A    between atoms: C_5  and  N_23
REMARK    7  A    between atoms: N_9  and  C_10
REMARK    8  A    between atoms: C_10  and  C_11
REMARK    9  A    between atoms: C_11  and  C_13
REMARK   10  A    between atoms: C_11  and  N_18
REMARK                            x       y       z     vdW  Elec       q    Type
REMARK                         _______ _______ _______ _____ _____    ______ ____
ROOT
ATOM      1  C   UNL     1      -3.683  -3.856  -0.138  0.00  0.00    +0.233 C 
ATOM      2  O   UNL     1      -4.110  -4.500   0.797  0.00  0.00    -0.274 OA
ATOM      3  N   UNL     1      -3.439  -4.461  -1.317  0.00  0.00    -0.315 N 
ATOM      4  H   UNL     1      -3.097  -3.946  -2.065  0.00  0.00    +0.149 HD
ENDROOT
BRANCH   1   5
ATOM      5  C   UNL     1      -3.426  -2.379   0.019  0.00  0.00    +0.161 C 
BRANCH   5   6
ATOM      6  N   UNL     1      -4.185  -1.871   1.164  0.00  0.00    -0.288 N 
ATOM      7  C   UNL     1      -3.963  -2.372   2.396  0.00  0.00    +0.298 C 
ATOM      8  O   UNL     1      -3.134  -3.247   2.556  0.00  0.00    -0.253 OA
ATOM      9  N   UNL     1      -4.661  -1.904   3.450  0.00  0.00    -0.313 N 
ATOM     10  H   UNL     1      -4.846  -1.173   1.037  0.00  0.00    +0.151 HD
ATOM     11  H   UNL     1      -5.323  -1.206   3.322  0.00  0.00    +0.146 HD
ATOM     12  H   UNL     1      -4.502  -2.265   4.336  0.00  0.00    +0.146 HD
ENDBRANCH   5   6
BRANCH   5  13
ATOM     13  C   UNL     1      -1.932  -2.143   0.251  0.00  0.00    +0.042 C 
BRANCH  13  14
ATOM     14  C   UNL     1      -1.653  -0.640   0.286  0.00  0.00    +0.071 C 
BRANCH  14  16
ATOM     15  C   UNL     1       0.280   1.447   0.576  0.00  0.00    +0.084 C 
ATOM     16  S   UNL     1       0.118  -0.360   0.561  0.00  0.00    -0.164 S 
ENDBRANCH  14  16
ENDBRANCH  13  14
ENDBRANCH   5  13
ENDBRANCH   1   5
BRANCH   3  17
ATOM     17  C   UNL     1      -3.689  -5.896  -1.470  0.00  0.00    +0.094 C 
BRANCH  17  18
ATOM     18  C   UNL     1      -3.458  -6.302  -2.927  0.00  0.00    -0.013 C 
BRANCH  18  19
ATOM     19  N   UNL     1      -3.581  -7.761  -3.054  0.00  0.00    +0.386 N 
ATOM     20  C   UNL     1      -3.340  -8.174  -4.460  0.00  0.00    -0.078 C 
ATOM     21  C   UNL     1      -2.946  -9.667  -4.328  0.00  0.00    -0.020 C 
ATOM     22  C   UNL     1      -2.107  -9.689  -3.030  0.00  0.00    -0.020 C 
ATOM     23  C   UNL     1      -2.536  -8.432  -2.251  0.00  0.00    -0.078 C 
ATOM     24  H   UNL     1      -4.497  -8.061  -2.754  0.00  0.00    -0.081 HD
ENDBRANCH  18  19
BRANCH  18  25
ATOM     25  C   UNL     1      -4.486  -5.633  -3.803  0.00  0.00    -0.022 A 
ATOM     26  C   UNL     1      -4.359  -4.527  -4.576  0.00  0.00    +0.009 A 
ATOM     27  C   UNL     1      -5.449  -4.090  -5.304  0.00  0.00    +0.008 A 
ATOM     28  C   UNL     1      -6.613  -4.779  -5.224  0.00  0.00    +0.045 A 
ATOM     29  S   UNL     1      -6.185  -6.096  -4.098  0.00  0.00    -0.103 S 
ENDBRANCH  18  25
ENDBRANCH  17  18
ENDBRANCH   3  17
TORSDOF 9
