REMARK  Name = ZINC44714364
REMARK  7 active torsions:
REMARK  status: ('A' for Active; 'I' for Inactive)
REMARK    1  A    between atoms: C_1  and  C_2
REMARK    2  A    between atoms: C_3  and  C_9
REMARK    3  A    between atoms: C_4  and  C_8
REMARK    4  A    between atoms: C_9  and  C_11
REMARK    5  A    between atoms: C_9  and  N_12
REMARK    6  A    between atoms: C_13  and  C_15
REMARK    7  A    between atoms: C_26  and  C_28
REMARK                            x       y       z     vdW  Elec       q    Type
REMARK                         _______ _______ _______ _____ _____    ______ ____
ROOT
ATOM      1  C   UNL     1       2.526  -1.343  -5.213  0.00  0.00    +0.100 C 
ATOM      2  C   UNL     1       1.927  -2.694  -5.663  0.00  0.00    +0.121 C 
ATOM      3  N   UNL     1       1.418  -2.441  -7.031  0.00  0.00    -0.296 N 
ATOM      4  C   UNL     1       2.442  -1.567  -7.650  0.00  0.00    +0.115 C 
ATOM      5  C   UNL     1       2.866  -0.607  -6.520  0.00  0.00    -0.004 C 
ATOM      6  C   UNL     1       2.079   0.696  -6.613  0.00  0.00    -0.010 C 
ATOM      7  C   UNL     1       2.476   1.437  -7.893  0.00  0.00    -0.082 C 
ATOM      8  N   UNL     1       3.918   1.713  -7.873  0.00  0.00    +0.379 N 
ATOM      9  C   UNL     1       4.669   0.452  -7.877  0.00  0.00    -0.082 C 
ATOM     10  C   UNL     1       4.364  -0.330  -6.596  0.00  0.00    -0.010 C 
ATOM     11  C   UNL     1       0.280  -2.902  -7.588  0.00  0.00    +0.252 C 
ATOM     12  O   UNL     1      -0.001  -2.604  -8.732  0.00  0.00    -0.270 OA
ATOM     13  H   UNL     1       4.167   2.254  -8.688  0.00  0.00    -0.086 HD
ATOM     14  H   UNL     1       4.147   2.237  -7.042  0.00  0.00    -0.086 HD
ENDROOT
BRANCH  11  15
ATOM     15  C   UNL     1      -0.624  -3.769  -6.808  0.00  0.00    +0.108 A 
ATOM     16  C   UNL     1      -1.650  -3.207  -6.041  0.00  0.00    +0.138 A 
ATOM     17  C   UNL     1      -2.493  -4.025  -5.314  0.00  0.00    +0.041 A 
ATOM     18  C   UNL     1      -2.325  -5.398  -5.343  0.00  0.00    +0.026 A 
ATOM     19  C   UNL     1      -1.313  -5.963  -6.098  0.00  0.00    +0.077 A 
ATOM     20  C   UNL     1      -0.464  -5.158  -6.837  0.00  0.00    +0.156 A 
ATOM     21  F   UNL     1       0.520  -5.712  -7.578  0.00  0.00    -0.203 F 
ATOM     22 CL   UNL     1      -1.112  -7.688  -6.125  0.00  0.00    -0.081 Cl
ATOM     23  F   UNL     1      -1.816  -1.866  -6.011  0.00  0.00    -0.205 F 
ENDBRANCH  11  15
BRANCH   1  25
ATOM     24  N   UNL     1       1.926   0.317  -3.480  0.00  0.00    -0.308 N 
ATOM     25  C   UNL     1       1.514  -0.559  -4.418  0.00  0.00    +0.219 C 
ATOM     26  O   UNL     1       0.329  -0.716  -4.622  0.00  0.00    -0.275 OA
ATOM     27  H   UNL     1       2.874   0.443  -3.317  0.00  0.00    +0.149 HD
BRANCH  24  28
ATOM     28  C   UNL     1       0.942   1.079  -2.707  0.00  0.00    +0.104 C 
ATOM     29  C   UNL     1       0.474   0.244  -1.513  0.00  0.00    +0.033 C 
BRANCH  28  32
ATOM     30  C   UNL     1      -0.350   3.926  -2.801  0.00  0.00    +0.065 C 
ATOM     31  C   UNL     1       1.012   3.587  -2.252  0.00  0.00    +0.038 A 
ATOM     32  C   UNL     1       1.572   2.356  -2.212  0.00  0.00    +0.015 A 
ATOM     33  C   UNL     1       2.837   2.477  -1.629  0.00  0.00    +0.065 A 
ATOM     34  N   UNL     1       3.031   3.736  -1.331  0.00  0.00    -0.179 NA
ATOM     35  N   UNL     1       1.895   4.457  -1.719  0.00  0.00    -0.281 N 
ATOM     36  H   UNL     1       1.765   5.414  -1.621  0.00  0.00    +0.189 HD
ATOM     37  C   UNL     1       3.810   1.351  -1.386  0.00  0.00    +0.068 C 
ENDBRANCH  28  32
ENDBRANCH  24  28
ENDBRANCH   1  25
TORSDOF 4
