REMARK  Name = ZINC51579352
REMARK  6 active torsions:
REMARK  status: ('A' for Active; 'I' for Inactive)
REMARK    1  A    between atoms: C_1  and  C_2
REMARK    2  A    between atoms: C_5  and  C_18
REMARK    3  A    between atoms: C_6  and  N_8
REMARK    4  A    between atoms: N_8  and  C_9
REMARK    5  A    between atoms: N_8  and  C_10
REMARK    6  A    between atoms: C_10  and  C_11
REMARK                            x       y       z     vdW  Elec       q    Type
REMARK                         _______ _______ _______ _____ _____    ______ ____
ROOT
ATOM      1  C   UNL     1       0.066   1.650  -0.025  0.00  0.00    +0.044 C 
ATOM      2  C   UNL     1       0.045   0.145   0.052  0.00  0.00    -0.049 A 
ATOM      3  C   UNL     1       0.026  -0.604  -1.114  0.00  0.00    +0.004 A 
ATOM      4  C   UNL     1       0.007  -1.980  -1.057  0.00  0.00    +0.013 A 
ATOM      5  C   UNL     1       0.006  -2.626   0.182  0.00  0.00    +0.033 A 
ATOM      6  C   UNL     1       0.024  -1.865   1.360  0.00  0.00    +0.040 A 
ATOM      7  C   UNL     1       0.049  -0.478   1.283  0.00  0.00    +0.027 A 
ENDROOT
BRANCH   5   8
ATOM      8  C   UNL     1      -0.015  -4.100   0.250  0.00  0.00    +0.096 C 
ATOM      9  N   UNL     1      -0.995  -4.781  -0.345  0.00  0.00    -0.387 N 
ATOM     10  N   UNL     1       0.945  -4.751   0.906  0.00  0.00    -0.345 N 
ATOM     11  H   UNL     1      -1.733  -4.307  -0.760  0.00  0.00    +0.157 HD
ATOM     12  H   UNL     1       1.622  -4.255   1.393  0.00  0.00    +0.144 HD
ATOM     13  H   UNL     1       0.967  -5.721   0.898  0.00  0.00    +0.144 HD
ATOM     14  H   UNL     1      -0.970  -5.750  -0.363  0.00  0.00    +0.157 HD
ENDBRANCH   5   8
BRANCH   6  15
ATOM     15  N   UNL     1       0.023  -2.496   2.598  0.00  0.00    -0.328 N 
ATOM     16  C   UNL     1      -1.241  -2.930   3.198  0.00  0.00    +0.129 C 
BRANCH  15  17
ATOM     17  C   UNL     1       1.286  -2.726   3.304  0.00  0.00    +0.139 C 
BRANCH  17  18
ATOM     18  C   UNL     1       1.524  -1.608   4.286  0.00  0.00    -0.030 A 
ATOM     19  C   UNL     1       2.212  -0.476   3.892  0.00  0.00    +0.006 A 
ATOM     20  C   UNL     1       2.429   0.550   4.792  0.00  0.00    +0.015 A 
ATOM     21  C   UNL     1       1.959   0.443   6.089  0.00  0.00    +0.018 A 
ATOM     22  C   UNL     1       1.270  -0.690   6.483  0.00  0.00    +0.015 A 
ATOM     23  C   UNL     1       1.048  -1.713   5.580  0.00  0.00    +0.006 A 
ATOM     24 BR   UNL     1       2.257   1.846   7.321  0.00  0.00    -0.050 Br
ENDBRANCH  17  18
ENDBRANCH  15  17
ENDBRANCH   6  15
TORSDOF 4
