REMARK  Name = ZINC39987428
REMARK  11 active torsions:
REMARK  status: ('A' for Active; 'I' for Inactive)
REMARK    1  A    between atoms: C_1  and  C_2
REMARK    2  A    between atoms: C_7  and  O_8
REMARK    3  A    between atoms: O_8  and  C_9
REMARK    4  A    between atoms: C_9  and  C_10
REMARK    5  A    between atoms: C_10  and  N_11
REMARK    6  A    between atoms: N_19  and  N_20
REMARK    7  A    between atoms: C_21  and  C_23
REMARK    8  A    between atoms: C_23  and  C_25
REMARK    9  A    between atoms: C_23  and  O_26
REMARK   10  A    between atoms: O_26  and  C_27
REMARK   11  A    between atoms: C_30  and  O_33
REMARK                            x       y       z     vdW  Elec       q    Type
REMARK                         _______ _______ _______ _____ _____    ______ ____
ROOT
ATOM      1  N   UNL     1      -1.226   1.732   5.336  0.00  0.00    -0.262 N 
ATOM      2  C   UNL     1      -1.560   2.887   4.636  0.00  0.00    +0.046 A 
ATOM      3  C   UNL     1      -0.786   3.778   3.901  0.00  0.00    +0.025 A 
ATOM      4  C   UNL     1      -1.375   4.868   3.292  0.00  0.00    +0.022 A 
ATOM      5  C   UNL     1      -2.738   5.088   3.404  0.00  0.00    +0.042 A 
ATOM      6  C   UNL     1      -3.522   4.214   4.131  0.00  0.00    +0.032 A 
ATOM      7  C   UNL     1      -2.938   3.113   4.747  0.00  0.00    +0.030 A 
ATOM      8  C   UNL     1      -3.477   2.011   5.578  0.00  0.00    +0.153 C 
ATOM      9  N   UNL     1      -4.722   1.819   5.940  0.00  0.00    -0.174 NA
ATOM     10  C   UNL     1      -2.306   1.171   5.905  0.00  0.00    +0.271 C 
ATOM     11  O   UNL     1      -2.318   0.154   6.572  0.00  0.00    -0.268 OA
ATOM     12 CL   UNL     1      -3.461   6.465   2.632  0.00  0.00    -0.084 Cl
ENDROOT
BRANCH   9  13
ATOM     13  N   UNL     1      -5.059   0.715   6.733  0.00  0.00    -0.203 N 
ATOM     14  C   UNL     1      -6.340   0.519   7.106  0.00  0.00    +0.273 C 
ATOM     15  O   UNL     1      -7.200   1.298   6.754  0.00  0.00    -0.270 OA
ATOM     16  H   UNL     1      -4.371   0.092   7.015  0.00  0.00    +0.177 HD
BRANCH  14  17
ATOM     17  C   UNL     1      -6.702  -0.669   7.959  0.00  0.00    +0.257 C 
ATOM     18  C   UNL     1      -6.445  -1.958   7.175  0.00  0.00    +0.062 C 
BRANCH  17  19
ATOM     19  O   UNL     1      -8.085  -0.596   8.315  0.00  0.00    -0.480 OA
BRANCH  19  20
ATOM     20  C   UNL     1      -8.465  -1.240   9.450  0.00  0.00    +0.122 A 
ATOM     21  C   UNL     1      -9.767  -1.121   9.913  0.00  0.00    +0.049 A 
ATOM     22  C   UNL     1     -10.153  -1.775  11.066  0.00  0.00    +0.049 A 
ATOM     23  C   UNL     1      -9.239  -2.551  11.762  0.00  0.00    +0.117 A 
ATOM     24  C   UNL     1      -7.937  -2.672  11.299  0.00  0.00    +0.049 A 
ATOM     25  C   UNL     1      -7.552  -2.021  10.143  0.00  0.00    +0.049 A 
BRANCH  23  26
ATOM     26  O   UNL     1      -9.619  -3.195  12.898  0.00  0.00    -0.507 OA
ATOM     27  H   UNL     1      -9.964  -4.086  12.749  0.00  0.00    +0.292 HD
ENDBRANCH  23  26
ENDBRANCH  19  20
ENDBRANCH  17  19
ENDBRANCH  14  17
ENDBRANCH   9  13
BRANCH   1  28
ATOM     28  C   UNL     1       0.133   1.192   5.435  0.00  0.00    +0.155 C 
BRANCH  28  29
ATOM     29  C   UNL     1       0.382   0.223   4.277  0.00  0.00    +0.248 C 
BRANCH  29  30
ATOM     30  O   UNL     1       0.349   0.940   3.041  0.00  0.00    -0.490 OA
BRANCH  30  37
ATOM     31  C   UNL     1       0.288   2.338   0.587  0.00  0.00    +0.047 C 
ATOM     32  C   UNL     1       0.536   0.854   0.671  0.00  0.00    -0.009 A 
ATOM     33  C   UNL     1       0.751   0.122  -0.481  0.00  0.00    +0.007 A 
ATOM     34  C   UNL     1       0.978  -1.239  -0.405  0.00  0.00    +0.000 A 
ATOM     35  C   UNL     1       0.991  -1.873   0.824  0.00  0.00    +0.004 A 
ATOM     36  C   UNL     1       0.777  -1.146   1.979  0.00  0.00    +0.046 A 
ATOM     37  C   UNL     1       0.554   0.222   1.905  0.00  0.00    +0.123 A 
ENDBRANCH  30  37
ENDBRANCH  29  30
ENDBRANCH  28  29
ENDBRANCH   1  28
TORSDOF 9
