REMARK  Name = ZINC38683660
REMARK  14 active torsions:
REMARK  status: ('A' for Active; 'I' for Inactive)
REMARK    1  A    between atoms: C_1  and  C_2
REMARK    2  A    between atoms: C_2  and  C_3
REMARK    3  A    between atoms: C_6  and  O_9
REMARK    4  A    between atoms: O_9  and  C_10
REMARK    5  A    between atoms: C_10  and  C_12
REMARK    6  A    between atoms: C_10  and  C_13
REMARK    7  A    between atoms: C_13  and  O_15
REMARK    8  A    between atoms: O_15  and  C_16
REMARK    9  A    between atoms: C_23  and  N_39
REMARK   10  A    between atoms: C_24  and  C_37
REMARK   11  A    between atoms: C_25  and  C_27
REMARK   12  A    between atoms: C_30  and  C_33
REMARK   13  A    between atoms: C_33  and  O_35
REMARK   14  A    between atoms: O_35  and  C_36
REMARK                            x       y       z     vdW  Elec       q    Type
REMARK                         _______ _______ _______ _____ _____    ______ ____
ROOT
ATOM      1  C   UNL     1       2.966  -4.421   8.136  0.00  0.00    +0.135 A 
ATOM      2  C   UNL     1       4.141  -4.862   7.544  0.00  0.00    +0.047 A 
ATOM      3  C   UNL     1       4.929  -5.796   8.187  0.00  0.00    +0.012 A 
ATOM      4  C   UNL     1       4.551  -6.297   9.421  0.00  0.00    +0.008 A 
ATOM      5  C   UNL     1       3.377  -5.860  10.015  0.00  0.00    +0.138 A 
ATOM      6  C   UNL     1       2.587  -4.915   9.373  0.00  0.00    +0.093 A 
ATOM      7  O   UNL     1       2.990  -6.339  11.224  0.00  0.00    -0.441 OA
ATOM      8  C   UNL     1       3.888  -6.930  12.029  0.00  0.00    +0.199 C 
ATOM      9  C   UNL     1       5.062  -7.415  11.560  0.00  0.00    +0.098 C 
ATOM     10  C   UNL     1       5.422  -7.316  10.105  0.00  0.00    +0.098 C 
ENDROOT
BRANCH  10  11
ATOM     11  C   UNL     1       5.228  -8.659   9.450  0.00  0.00    -0.035 A 
ATOM     12  C   UNL     1       3.972  -9.241   9.430  0.00  0.00    +0.005 A 
ATOM     13  C   UNL     1       3.787 -10.470   8.832  0.00  0.00    +0.015 A 
ATOM     14  C   UNL     1       4.871 -11.128   8.247  0.00  0.00    +0.059 A 
ATOM     15  C   UNL     1       6.135 -10.536   8.270  0.00  0.00    +0.015 A 
ATOM     16  C   UNL     1       6.305  -9.303   8.867  0.00  0.00    +0.005 A 
BRANCH  14  17
ATOM     17  C   UNL     1       4.680 -12.445   7.605  0.00  0.00    +0.339 C 
ATOM     18  O   UNL     1       3.579 -12.958   7.586  0.00  0.00    -0.245 OA
BRANCH  17  19
ATOM     19  O   UNL     1       5.728 -13.077   7.041  0.00  0.00    -0.464 OA
ATOM     20  C   UNL     1       5.471 -14.348   6.439  0.00  0.00    +0.280 C 
ENDBRANCH  17  19
ENDBRANCH  14  17
ENDBRANCH  10  11
BRANCH   8  21
ATOM     21  N   UNL     1       3.607  -7.046  13.368  0.00  0.00    -0.328 N 
ATOM     22  H   UNL     1       2.770  -6.703  13.719  0.00  0.00    +0.145 HD
ATOM     23  H   UNL     1       4.245  -7.471  13.962  0.00  0.00    +0.145 HD
ENDBRANCH   8  21
BRANCH   9  24
ATOM     24  C   UNL     1       5.979  -8.034  12.470  0.00  0.00    +0.101 C 
ATOM     25  N   UNL     1       6.706  -8.525  13.191  0.00  0.00    -0.191 NA
ENDBRANCH   9  24
BRANCH   1  26
ATOM     26  O   UNL     1       2.189  -3.501   7.504  0.00  0.00    -0.423 OA
BRANCH  26  27
ATOM     27  C   UNL     1       1.570  -3.870   6.371  0.00  0.00    +0.353 C 
ATOM     28  O   UNL     1       1.632  -5.016   5.995  0.00  0.00    -0.246 OA
BRANCH  27  29
ATOM     29  C   UNL     1       0.798  -2.854   5.569  0.00  0.00    +0.279 C 
ATOM     30  C   UNL     1       1.761  -1.798   5.022  0.00  0.00    +0.064 C 
BRANCH  29  31
ATOM     31  O   UNL     1       0.140  -3.506   4.482  0.00  0.00    -0.478 OA
BRANCH  31  35
ATOM     32  C   UNL     1      -3.153  -1.609   2.876  0.00  0.00    -0.047 A 
ATOM     33  C   UNL     1      -2.515  -1.071   3.979  0.00  0.00    +0.007 A 
ATOM     34  C   UNL     1      -1.413  -1.704   4.519  0.00  0.00    +0.046 A 
ATOM     35  C   UNL     1      -0.945  -2.881   3.953  0.00  0.00    +0.122 A 
ATOM     36  C   UNL     1      -1.586  -3.420   2.847  0.00  0.00    +0.046 A 
ATOM     37  C   UNL     1      -2.692  -2.785   2.314  0.00  0.00    +0.007 A 
BRANCH  32  39
ATOM     38  C   UNL     1      -5.625  -1.436   2.966  0.00  0.00    +0.009 C 
ATOM     39  C   UNL     1      -4.355  -0.915   2.289  0.00  0.00    +0.032 C 
ENDBRANCH  32  39
ENDBRANCH  31  35
ENDBRANCH  29  31
ENDBRANCH  27  29
ENDBRANCH  26  27
ENDBRANCH   1  26
TORSDOF 11
