REMARK  Name = ZINC34791227
REMARK  15 active torsions:
REMARK  status: ('A' for Active; 'I' for Inactive)
REMARK    1  A    between atoms: C_1  and  C_2
REMARK    2  A    between atoms: C_2  and  N_3
REMARK    3  A    between atoms: C_6  and  C_11
REMARK    4  A    between atoms: C_15  and  O_17
REMARK    5  A    between atoms: O_17  and  C_18
REMARK    6  A    between atoms: N_26  and  C_28
REMARK    7  A    between atoms: C_28  and  C_30
REMARK    8  A    between atoms: C_28  and  C_34
REMARK    9  A    between atoms: C_30  and  C_31
REMARK   10  A    between atoms: C_31  and  C_32
REMARK   11  A    between atoms: C_31  and  C_33
REMARK   12  A    between atoms: N_36  and  C_37
REMARK   13  A    between atoms: N_36  and  C_38
REMARK   14  A    between atoms: C_38  and  C_39
REMARK   15  A    between atoms: C_38  and  C_40
REMARK                            x       y       z     vdW  Elec       q    Type
REMARK                         _______ _______ _______ _____ _____    ______ ____
ROOT
ATOM      1  N   UNL     1       0.595   1.344  -1.278  0.00  0.00    -0.257 N 
ATOM      2  C   UNL     1       0.095   0.670  -2.355  0.00  0.00    +0.042 C 
ATOM      3  C   UNL     1       0.899   0.257  -3.356  0.00  0.00    +0.058 C 
ATOM      4  C   UNL     1       2.378   0.566  -3.244  0.00  0.00    +0.142 C 
ATOM      5  N   UNL     1       2.818   1.297  -2.043  0.00  0.00    -0.288 N 
ATOM      6  C   UNL     1       1.891   1.648  -1.130  0.00  0.00    +0.307 C 
ATOM      7  O   UNL     1       2.244   2.256  -0.138  0.00  0.00    -0.252 OA
ATOM      8  C   UNL     1       0.148  -0.411  -4.344  0.00  0.00    +0.247 C 
ATOM      9  O   UNL     1       0.619  -0.890  -5.360  0.00  0.00    -0.270 OA
ATOM     10  N   UNL     1      -1.157  -0.452  -4.019  0.00  0.00    -0.281 N 
ATOM     11  C   UNL     1      -1.304   0.233  -2.726  0.00  0.00    +0.160 C 
ATOM     12  H   UNL     1       3.752   1.524  -1.915  0.00  0.00    +0.151 HD
ENDROOT
BRANCH   4  13
ATOM     13  C   UNL     1       2.777   1.374  -4.452  0.00  0.00    -0.019 A 
ATOM     14  C   UNL     1       2.518   2.732  -4.490  0.00  0.00    +0.006 A 
ATOM     15  C   UNL     1       2.882   3.477  -5.596  0.00  0.00    +0.004 A 
ATOM     16  C   UNL     1       3.507   2.866  -6.667  0.00  0.00    +0.046 A 
ATOM     17  C   UNL     1       3.768   1.504  -6.630  0.00  0.00    +0.129 A 
ATOM     18  C   UNL     1       3.406   0.759  -5.516  0.00  0.00    +0.052 A 
BRANCH  17  19
ATOM     19  O   UNL     1       4.382   0.900  -7.682  0.00  0.00    -0.456 OA
BRANCH  19  20
ATOM     20  C   UNL     1       4.699  -0.416  -7.566  0.00  0.00    +0.128 A 
ATOM     21  C   UNL     1       3.713  -1.383  -7.702  0.00  0.00    +0.046 A 
ATOM     22  C   UNL     1       4.037  -2.720  -7.583  0.00  0.00    +0.004 A 
ATOM     23  C   UNL     1       5.344  -3.096  -7.330  0.00  0.00    +0.000 A 
ATOM     24  C   UNL     1       6.328  -2.135  -7.194  0.00  0.00    +0.004 A 
ATOM     25  C   UNL     1       6.010  -0.796  -7.317  0.00  0.00    +0.046 A 
ENDBRANCH  19  20
ENDBRANCH  17  19
ENDBRANCH   4  13
BRANCH   1  27
ATOM     26  C   UNL     1      -0.877   3.158  -0.553  0.00  0.00    +0.025 C 
ATOM     27  C   UNL     1      -0.338   1.763  -0.229  0.00  0.00    +0.111 C 
ENDBRANCH   1  27
BRANCH  10  28
ATOM     28  C   UNL     1      -2.230  -1.063  -4.806  0.00  0.00    +0.163 C 
BRANCH  28  29
ATOM     29  C   UNL     1      -2.429  -0.279  -6.078  0.00  0.00    +0.236 C 
ATOM     30  O   UNL     1      -1.610   0.550  -6.413  0.00  0.00    -0.274 OA
ATOM     31  N   UNL     1      -3.516  -0.500  -6.843  0.00  0.00    -0.300 N 
ATOM     32  C   UNL     1      -3.650   0.172  -8.138  0.00  0.00    +0.132 C 
BRANCH  31  33
ATOM     33  C   UNL     1      -4.565  -1.413  -6.379  0.00  0.00    +0.070 C 
ATOM     34  C   UNL     1      -5.898  -0.666  -6.312  0.00  0.00    +0.028 C 
ATOM     35  C   UNL     1      -4.686  -2.587  -7.353  0.00  0.00    +0.028 C 
ENDBRANCH  31  33
ENDBRANCH  28  29
BRANCH  28  36
ATOM     36  C   UNL     1      -1.853  -2.505  -5.149  0.00  0.00    +0.035 C 
BRANCH  36  37
ATOM     37  C   UNL     1      -1.845  -3.348  -3.872  0.00  0.00    -0.015 C 
ATOM     38  C   UNL     1      -1.687  -4.825  -4.237  0.00  0.00    +0.007 C 
ATOM     39  C   UNL     1      -0.678  -2.914  -2.983  0.00  0.00    +0.007 C 
ENDBRANCH  36  37
ENDBRANCH  28  36
ENDBRANCH  10  28
TORSDOF 9
