REMARK  Name = ZINC63746889
REMARK  4 active torsions:
REMARK  status: ('A' for Active; 'I' for Inactive)
REMARK    1  A    between atoms: C_1  and  C_2
REMARK    2  A    between atoms: C_5  and  N_9
REMARK    3  A    between atoms: N_12  and  C_13
REMARK    4  A    between atoms: C_18  and  C_19
REMARK                            x       y       z     vdW  Elec       q    Type
REMARK                         _______ _______ _______ _____ _____    ______ ____
ROOT
ATOM      1  C   UNL     1       0.278  -6.996   2.270  0.00  0.00    +0.040 A 
ATOM      2  C   UNL     1       0.267  -6.318   3.483  0.00  0.00    +0.024 A 
ATOM      3  C   UNL     1       0.278  -7.027   4.668  0.00  0.00    +0.002 A 
ATOM      4  C   UNL     1       0.299  -8.409   4.649  0.00  0.00    +0.000 A 
ATOM      5  C   UNL     1       0.309  -9.087   3.444  0.00  0.00    +0.008 A 
ATOM      6  C   UNL     1       0.294  -8.384   2.255  0.00  0.00    -0.000 A 
ENDROOT
BRANCH   6   7
ATOM      7  C   UNL     1       0.299  -9.124   0.942  0.00  0.00    +0.135 C 
ATOM      8  C   UNL     1      -1.108  -9.232   0.399  0.00  0.00    +0.012 C 
ATOM      9  C   UNL     1      -1.376 -10.555   0.313  0.00  0.00    -0.004 A 
ATOM     10  C   UNL     1      -2.557 -11.304  -0.133  0.00  0.00    +0.010 A 
ATOM     11  C   UNL     1      -2.527 -12.656  -0.102  0.00  0.00    +0.001 A 
ATOM     12  C   UNL     1      -1.398 -13.358   0.343  0.00  0.00    +0.002 A 
ATOM     13  C   UNL     1      -0.276 -12.740   0.769  0.00  0.00    +0.026 A 
ATOM     14  C   UNL     1      -0.197 -11.320   0.779  0.00  0.00    +0.043 A 
ATOM     15  N   UNL     1       0.763 -10.501   1.139  0.00  0.00    -0.374 N 
ATOM     16  H   UNL     1       1.634 -10.762   1.478  0.00  0.00    +0.161 HD
ENDBRANCH   6   7
BRANCH   1  20
ATOM     17  N   UNL     1       0.560  -4.275  -0.090  0.00  0.00    -0.269 N 
ATOM     18  C   UNL     1       0.672  -4.996   1.043  0.00  0.00    +0.308 C 
ATOM     19  O   UNL     1       1.140  -4.487   2.044  0.00  0.00    -0.252 OA
ATOM     20  N   UNL     1       0.267  -6.281   1.067  0.00  0.00    -0.269 N 
ATOM     21  H   UNL     1       0.116  -4.655  -0.864  0.00  0.00    +0.156 HD
ATOM     22  H   UNL     1      -0.033  -6.710   0.251  0.00  0.00    +0.156 HD
BRANCH  17  27
ATOM     23  C   UNL     1       2.683   0.982  -0.326  0.00  0.00    +0.047 C 
ATOM     24  C   UNL     1       2.119  -0.414  -0.264  0.00  0.00    -0.015 A 
ATOM     25  C   UNL     1       2.749  -1.379   0.499  0.00  0.00    +0.008 A 
ATOM     26  C   UNL     1       2.235  -2.660   0.558  0.00  0.00    +0.024 A 
ATOM     27  C   UNL     1       1.082  -2.978  -0.148  0.00  0.00    +0.038 A 
ATOM     28  C   UNL     1       0.450  -2.008  -0.914  0.00  0.00    +0.062 A 
ATOM     29  C   UNL     1       0.966  -0.725  -0.965  0.00  0.00    +0.128 A 
ATOM     30  F   UNL     1       0.349   0.222  -1.705  0.00  0.00    -0.205 F 
ENDBRANCH  17  27
ENDBRANCH   1  20
TORSDOF 3
