REMARK  Name = ZINC36735694
REMARK  11 active torsions:
REMARK  status: ('A' for Active; 'I' for Inactive)
REMARK    1  A    between atoms: C_1  and  S_2
REMARK    2  A    between atoms: S_2  and  C_3
REMARK    3  A    between atoms: C_3  and  C_4
REMARK    4  A    between atoms: C_4  and  C_5
REMARK    5  A    between atoms: C_5  and  C_7
REMARK    6  A    between atoms: C_5  and  N_25
REMARK    7  A    between atoms: N_9  and  C_10
REMARK    8  A    between atoms: C_10  and  C_11
REMARK    9  A    between atoms: C_11  and  C_13
REMARK   10  A    between atoms: C_11  and  N_20
REMARK   11  A    between atoms: C_26  and  C_28
REMARK                            x       y       z     vdW  Elec       q    Type
REMARK                         _______ _______ _______ _____ _____    ______ ____
ROOT
ATOM      1  C   UNL     1       2.299  -3.638   2.962  0.00  0.00    +0.233 C 
ATOM      2  O   UNL     1       1.765  -4.214   3.886  0.00  0.00    -0.274 OA
ATOM      3  N   UNL     1       2.899  -4.345   1.984  0.00  0.00    -0.315 N 
ATOM      4  H   UNL     1       3.326  -3.885   1.245  0.00  0.00    +0.149 HD
ENDROOT
BRANCH   1   5
ATOM      5  C   UNL     1       2.292  -2.132   2.907  0.00  0.00    +0.160 C 
BRANCH   5   6
ATOM      6  N   UNL     1       1.583  -1.604   4.076  0.00  0.00    -0.300 N 
ATOM      7  C   UNL     1       1.857  -0.364   4.526  0.00  0.00    +0.246 C 
ATOM      8  O   UNL     1       2.692   0.317   3.963  0.00  0.00    -0.270 OA
ATOM      9  H   UNL     1       0.917  -2.147   4.525  0.00  0.00    +0.150 HD
BRANCH   7  10
ATOM     10  C   UNL     1       1.142   0.169   5.705  0.00  0.00    +0.055 A 
ATOM     11  C   UNL     1       0.187  -0.613   6.358  0.00  0.00    +0.014 A 
ATOM     12  C   UNL     1      -0.476  -0.110   7.458  0.00  0.00    +0.001 A 
ATOM     13  C   UNL     1      -0.198   1.166   7.915  0.00  0.00    +0.001 A 
ATOM     14  C   UNL     1       0.747   1.947   7.274  0.00  0.00    +0.021 A 
ATOM     15  C   UNL     1       1.423   1.454   6.175  0.00  0.00    +0.053 A 
ATOM     16 CL   UNL     1       2.614   2.432   5.375  0.00  0.00    -0.083 Cl
ENDBRANCH   7  10
ENDBRANCH   5   6
BRANCH   5  17
ATOM     17  C   UNL     1       1.585  -1.671   1.631  0.00  0.00    +0.042 C 
BRANCH  17  18
ATOM     18  C   UNL     1       1.687  -0.149   1.513  0.00  0.00    +0.071 C 
BRANCH  18  20
ATOM     19  C   UNL     1       1.057   2.199   0.008  0.00  0.00    +0.084 C 
ATOM     20  S   UNL     1       0.849   0.397  -0.000  0.00  0.00    -0.164 S 
ENDBRANCH  18  20
ENDBRANCH  17  18
ENDBRANCH   5  17
ENDBRANCH   1   5
BRANCH   3  21
ATOM     21  C   UNL     1       2.906  -5.809   2.037  0.00  0.00    +0.093 C 
BRANCH  21  22
ATOM     22  C   UNL     1       3.535  -6.363   0.757  0.00  0.00    -0.019 C 
BRANCH  22  23
ATOM     23  C   UNL     1       4.988  -5.966   0.699  0.00  0.00    -0.041 A 
ATOM     24  C   UNL     1       5.367  -4.830   0.008  0.00  0.00    +0.003 A 
ATOM     25  C   UNL     1       6.699  -4.466  -0.046  0.00  0.00    +0.000 A 
ATOM     26  C   UNL     1       7.653  -5.236   0.592  0.00  0.00    +0.001 A 
ATOM     27  C   UNL     1       7.276  -6.372   1.284  0.00  0.00    +0.020 A 
ATOM     28  C   UNL     1       5.941  -6.734   1.343  0.00  0.00    +0.043 A 
ATOM     29 CL   UNL     1       5.465  -8.156   2.217  0.00  0.00    -0.083 Cl
ENDBRANCH  22  23
BRANCH  22  30
ATOM     30  N   UNL     1       2.831  -5.817  -0.410  0.00  0.00    +0.385 N 
ATOM     31  C   UNL     1       3.362  -6.423  -1.658  0.00  0.00    -0.078 C 
ATOM     32  C   UNL     1       2.210  -6.212  -2.673  0.00  0.00    -0.020 C 
ATOM     33  C   UNL     1       0.946  -6.431  -1.811  0.00  0.00    -0.020 C 
ATOM     34  C   UNL     1       1.399  -6.185  -0.361  0.00  0.00    -0.078 C 
ATOM     35  H   UNL     1       2.932  -4.813  -0.440  0.00  0.00    -0.081 HD
ENDBRANCH  22  30
ENDBRANCH  21  22
ENDBRANCH   3  21
TORSDOF 10
