REMARK  Name = ZINC04042227
REMARK  11 active torsions:
REMARK  status: ('A' for Active; 'I' for Inactive)
REMARK    1  A    between atoms: C_3  and  N_25
REMARK    2  A    between atoms: C_6  and  C_7
REMARK    3  A    between atoms: C_10  and  N_13
REMARK    4  A    between atoms: N_13  and  C1*_14
REMARK    5  A    between atoms: C3*_17  and  O3*_24
REMARK    6  A    between atoms: C4*_19  and  C5*_22
REMARK    7  A    between atoms: C5*_22  and  O5*_23
REMARK    8  A    between atoms: N_25  and  C1*_26
REMARK    9  A    between atoms: C3*_29  and  O3*_36
REMARK   10  A    between atoms: C4*_31  and  C5*_34
REMARK   11  A    between atoms: C5*_34  and  O5*_35
REMARK                            x       y       z     vdW  Elec       q    Type
REMARK                         _______ _______ _______ _____ _____    ______ ____
ROOT
ATOM      1  C   UNL     1      -0.113   1.940  -1.457  0.00  0.00    +0.010 A 
ATOM      2  C   UNL     1       1.157   2.317  -1.841  0.00  0.00    +0.023 A 
ATOM      3  C   UNL     1       2.189   1.386  -1.843  0.00  0.00    +0.029 A 
ATOM      4  C   UNL     1       1.944   0.073  -1.458  0.00  0.00    +0.023 A 
ATOM      5  C   UNL     1       0.676  -0.308  -1.073  0.00  0.00    +0.010 A 
ATOM      6  C   UNL     1      -0.360   0.624  -1.070  0.00  0.00    -0.018 A 
ENDROOT
BRANCH   6   7
ATOM      7  C   UNL     1      -1.725   0.216  -0.656  0.00  0.00    -0.018 A 
ATOM      8  C   UNL     1      -2.763   1.147  -0.659  0.00  0.00    +0.010 A 
ATOM      9  C   UNL     1      -4.031   0.766  -0.274  0.00  0.00    +0.023 A 
ATOM     10  C   UNL     1      -4.275  -0.546   0.117  0.00  0.00    +0.029 A 
ATOM     11  C   UNL     1      -3.241  -1.476   0.120  0.00  0.00    +0.023 A 
ATOM     12  C   UNL     1      -1.973  -1.100  -0.270  0.00  0.00    +0.010 A 
BRANCH  10  13
ATOM     13  N   UNL     1      -5.559  -0.930   0.507  0.00  0.00    -0.319 N 
ATOM     14  H   UNL     1      -5.726  -1.840   0.796  0.00  0.00    +0.148 HD
BRANCH  13  15
ATOM     15  C1* UNL     1      -6.655   0.043   0.478  0.00  0.00    +0.206 C 
ATOM     16  C2* UNL     1      -7.732  -0.318   1.532  0.00  0.00    +0.085 C 
ATOM     17  C3* UNL     1      -8.997   0.354   0.946  0.00  0.00    +0.150 C 
ATOM     18  C4* UNL     1      -8.671   0.534  -0.549  0.00  0.00    +0.174 C 
ATOM     19  O4* UNL     1      -7.367  -0.031  -0.776  0.00  0.00    -0.351 OA
BRANCH  17  20
ATOM     20  O3* UNL     1     -10.136  -0.492   1.114  0.00  0.00    -0.389 OA
ATOM     21  H3* UNL     1     -10.351  -0.684   2.037  0.00  0.00    +0.210 HD
ENDBRANCH  17  20
BRANCH  18  22
ATOM     22  C5* UNL     1      -9.713  -0.194  -1.400  0.00  0.00    +0.190 C 
BRANCH  22  23
ATOM     23  O5* UNL     1      -9.471   0.074  -2.783  0.00  0.00    -0.392 OA
ATOM     24  H5* UNL     1     -10.096  -0.356  -3.382  0.00  0.00    +0.210 HD
ENDBRANCH  22  23
ENDBRANCH  18  22
ENDBRANCH  13  15
ENDBRANCH  10  13
ENDBRANCH   6   7
BRANCH   3  25
ATOM     25  N   UNL     1       3.474   1.770  -2.232  0.00  0.00    -0.319 N 
ATOM     26  H   UNL     1       4.213   1.149  -2.142  0.00  0.00    +0.148 HD
BRANCH  25  27
ATOM     27  C1* UNL     1       3.704   3.110  -2.778  0.00  0.00    +0.206 C 
ATOM     28  C2* UNL     1       4.928   3.110  -3.728  0.00  0.00    +0.085 C 
ATOM     29  C3* UNL     1       5.382   4.589  -3.673  0.00  0.00    +0.150 C 
ATOM     30  C4* UNL     1       4.772   5.122  -2.362  0.00  0.00    +0.174 C 
ATOM     31  O4* UNL     1       4.087   4.027  -1.730  0.00  0.00    -0.351 OA
BRANCH  29  32
ATOM     32  O3* UNL     1       6.808   4.673  -3.634  0.00  0.00    -0.389 OA
ATOM     33  H3* UNL     1       7.245   4.298  -4.411  0.00  0.00    +0.210 HD
ENDBRANCH  29  32
BRANCH  30  34
ATOM     34  C5* UNL     1       5.881   5.646  -1.448  0.00  0.00    +0.190 C 
BRANCH  34  35
ATOM     35  O5* UNL     1       5.298   6.244  -0.287  0.00  0.00    -0.392 OA
ATOM     36  H5* UNL     1       5.944   6.599   0.339  0.00  0.00    +0.210 HD
ENDBRANCH  34  35
ENDBRANCH  30  34
ENDBRANCH  25  27
ENDBRANCH   3  25
TORSDOF 11
