REMARK  Name = ZINC58156790
REMARK  10 active torsions:
REMARK  status: ('A' for Active; 'I' for Inactive)
REMARK    1  A    between atoms: C_1  and  N_2
REMARK    2  A    between atoms: N_2  and  C_3
REMARK    3  A    between atoms: N_2  and  C_4
REMARK    4  A    between atoms: C_4  and  C_5
REMARK    5  A    between atoms: C_4  and  C_21
REMARK    6  A    between atoms: C_5  and  N_6
REMARK    7  A    between atoms: N_9  and  C_10
REMARK    8  A    between atoms: C_15  and  S_16
REMARK    9  A    between atoms: S_16  and  C_17
REMARK   10  A    between atoms: C_17  and  C_18
REMARK                            x       y       z     vdW  Elec       q    Type
REMARK                         _______ _______ _______ _____ _____    ______ ____
ROOT
ATOM      1  N   UNL     1      -1.795   1.542  -1.144  0.00  0.00    -0.300 N 
ATOM      2  C   UNL     1      -2.293   2.271  -2.162  0.00  0.00    +0.304 C 
ATOM      3  O   UNL     1      -3.002   1.744  -2.997  0.00  0.00    -0.253 OA
ATOM      4  N   UNL     1      -2.004   3.585  -2.254  0.00  0.00    -0.268 N 
ATOM      5  H   UNL     1      -1.229   1.962  -0.477  0.00  0.00    +0.150 HD
ATOM      6  H   UNL     1      -1.383   3.990  -1.629  0.00  0.00    +0.156 HD
ENDROOT
BRANCH   4   7
ATOM      7  C   UNL     1      -2.603   4.365  -3.253  0.00  0.00    +0.048 A 
ATOM      8  C   UNL     1      -3.890   4.080  -3.680  0.00  0.00    +0.024 A 
ATOM      9  C   UNL     1      -4.479   4.851  -4.665  0.00  0.00    +0.002 A 
ATOM     10  C   UNL     1      -3.787   5.908  -5.228  0.00  0.00    +0.001 A 
ATOM     11  C   UNL     1      -2.503   6.200  -4.808  0.00  0.00    +0.016 A 
ATOM     12  C   UNL     1      -1.907   5.435  -3.816  0.00  0.00    +0.030 A 
BRANCH  12  13
ATOM     13  S   UNL     1      -0.273   5.810  -3.273  0.00  0.00    -0.114 S 
BRANCH  13  14
ATOM     14  C   UNL     1       0.203   7.246  -4.273  0.00  0.00    +0.169 C 
BRANCH  14  15
ATOM     15  C   UNL     1       1.600   7.675  -3.904  0.00  0.00    +0.221 C 
ATOM     16  O   UNL     1       2.214   7.071  -3.050  0.00  0.00    -0.275 OA
ATOM     17  N   UNL     1       2.167   8.730  -4.522  0.00  0.00    -0.329 N 
ATOM     18  H   UNL     1       1.676   9.213  -5.205  0.00  0.00    +0.145 HD
ATOM     19  H   UNL     1       3.066   9.006  -4.284  0.00  0.00    +0.145 HD
ENDBRANCH  14  15
ENDBRANCH  13  14
ENDBRANCH  12  13
ENDBRANCH   4   7
BRANCH   1  20
ATOM     20  C   UNL     1      -2.108   0.114  -1.044  0.00  0.00    +0.095 C 
BRANCH  20  21
ATOM     21  C   UNL     1      -1.327  -0.499   0.120  0.00  0.00    -0.021 C 
BRANCH  21  22
ATOM     22  C   UNL     1      -1.788   0.119   1.415  0.00  0.00    -0.059 A 
ATOM     23  C   UNL     1      -2.952  -0.322   2.017  0.00  0.00    +0.002 A 
ATOM     24  C   UNL     1      -3.374   0.245   3.204  0.00  0.00    +0.000 A 
ATOM     25  C   UNL     1      -2.632   1.253   3.791  0.00  0.00    +0.000 A 
ATOM     26  C   UNL     1      -1.467   1.694   3.191  0.00  0.00    +0.000 A 
ATOM     27  C   UNL     1      -1.043   1.123   2.005  0.00  0.00    +0.002 A 
ENDBRANCH  21  22
BRANCH  21  29
ATOM     28  C   UNL     1      -1.027  -2.564  -1.063  0.00  0.00    -0.096 C 
ATOM     29  N   UNL     1      -1.563  -1.948   0.159  0.00  0.00    +0.382 N 
ATOM     30  C   UNL     1      -0.891  -2.523   1.332  0.00  0.00    -0.096 C 
ATOM     31  H   UNL     1      -2.554  -2.126   0.218  0.00  0.00    -0.082 HD
ENDBRANCH  21  29
ENDBRANCH  20  21
ENDBRANCH   1  20
TORSDOF 8
