REMARK  Name = ZINC34784720
REMARK  10 active torsions:
REMARK  status: ('A' for Active; 'I' for Inactive)
REMARK    1  A    between atoms: C_1  and  C_2
REMARK    2  A    between atoms: C_7  and  N_8
REMARK    3  A    between atoms: C_9  and  N_28
REMARK    4  A    between atoms: C_10  and  N_17
REMARK    5  A    between atoms: C_11  and  C_13
REMARK    6  A    between atoms: C_13  and  C_14
REMARK    7  A    between atoms: C_13  and  C_15
REMARK    8  A    between atoms: C_13  and  C_16
REMARK    9  A    between atoms: N_20  and  C_21
REMARK   10  A    between atoms: C_21  and  C_22
REMARK                            x       y       z     vdW  Elec       q    Type
REMARK                         _______ _______ _______ _____ _____    ______ ____
ROOT
ATOM      1  N   UNL     1       0.005   0.027   2.417  0.00  0.00    -0.217 N 
ATOM      2  C   UNL     1       0.875  -0.180   3.445  0.00  0.00    +0.142 A 
ATOM      3  C   UNL     1       0.806   0.910   4.263  0.00  0.00    +0.098 A 
ATOM      4  C   UNL     1      -0.129   1.798   3.715  0.00  0.00    +0.092 A 
ATOM      5  N   UNL     1      -0.602   1.274   2.612  0.00  0.00    -0.167 NA
ENDROOT
BRANCH   1  12
ATOM      6  C   UNL     1      -2.693  -0.648   1.812  0.00  0.00    +0.046 C 
ATOM      7  C   UNL     1      -1.537  -1.205   1.022  0.00  0.00    -0.025 A 
ATOM      8  C   UNL     1      -1.771  -2.065  -0.034  0.00  0.00    +0.005 A 
ATOM      9  C   UNL     1      -0.711  -2.576  -0.759  0.00  0.00    +0.000 A 
ATOM     10  C   UNL     1       0.587  -2.228  -0.431  0.00  0.00    +0.002 A 
ATOM     11  C   UNL     1       0.827  -1.369   0.622  0.00  0.00    +0.028 A 
ATOM     12  C   UNL     1      -0.236  -0.850   1.350  0.00  0.00    +0.070 A 
ENDBRANCH   1  12
BRANCH   3  13
ATOM     13  N   UNL     1       1.545   1.108   5.451  0.00  0.00    -0.265 N 
ATOM     14  C   UNL     1       1.547   0.160   6.409  0.00  0.00    +0.304 C 
ATOM     15  O   UNL     1       0.999  -0.907   6.209  0.00  0.00    -0.252 OA
ATOM     16  N   UNL     1       2.156   0.395   7.588  0.00  0.00    -0.294 N 
ATOM     17  H   UNL     1       2.051   1.926   5.577  0.00  0.00    +0.157 HD
ATOM     18  H   UNL     1       2.592   1.246   7.747  0.00  0.00    +0.151 HD
BRANCH  16  19
ATOM     19  C   UNL     1       2.158  -0.635   8.629  0.00  0.00    +0.161 C 
BRANCH  19  20
ATOM     20  C   UNL     1       2.898  -0.126   9.839  0.00  0.00    +0.058 A 
ATOM     21  C   UNL     1       2.194   0.452  10.878  0.00  0.00    +0.025 A 
ATOM     22  C   UNL     1       2.885   0.917  11.986  0.00  0.00    +0.003 A 
ATOM     23  C   UNL     1       4.265   0.784  12.007  0.00  0.00    +0.020 A 
ATOM     24  C   UNL     1       4.901   0.196  10.931  0.00  0.00    +0.111 A 
ATOM     25  N   UNL     1       4.211  -0.241   9.895  0.00  0.00    -0.258 NA
ENDBRANCH  19  20
ENDBRANCH  16  19
ENDBRANCH   3  13
BRANCH   4  26
ATOM     26  C   UNL     1      -0.519   3.133   4.294  0.00  0.00    +0.008 C 
ATOM     27  C   UNL     1       0.715   4.033   4.380  0.00  0.00    +0.017 C 
ATOM     28  C   UNL     1      -1.569   3.791   3.396  0.00  0.00    +0.017 C 
ATOM     29  C   UNL     1      -1.101   2.931   5.695  0.00  0.00    +0.017 C 
ENDBRANCH   4  26
BRANCH   2  30
ATOM     30  N   UNL     1       1.687  -1.300   3.628  0.00  0.00    -0.342 N 
ATOM     31  H   UNL     1       2.032  -1.780   2.859  0.00  0.00    +0.144 HD
ATOM     32  H   UNL     1       1.905  -1.599   4.524  0.00  0.00    +0.144 HD
ENDBRANCH   2  30
TORSDOF 6
