REMARK  Name = ZINC09915900
REMARK  13 active torsions:
REMARK  status: ('A' for Active; 'I' for Inactive)
REMARK    1  A    between atoms: C_1  and  C_2
REMARK    2  A    between atoms: C_2  and  C_23
REMARK    3  A    between atoms: C_3  and  C_21
REMARK    4  A    between atoms: C_3  and  O_22
REMARK    5  A    between atoms: C_4  and  C_19
REMARK    6  A    between atoms: C_4  and  O_20
REMARK    7  A    between atoms: C_5  and  C_17
REMARK    8  A    between atoms: C_5  and  O_18
REMARK    9  A    between atoms: C_6  and  C_8
REMARK   10  A    between atoms: C_6  and  O_9
REMARK   11  A    between atoms: O_9  and  C_10
REMARK   12  A    between atoms: C_13  and  N_16
REMARK   13  A    between atoms: C_23  and  O_24
REMARK                            x       y       z     vdW  Elec       q    Type
REMARK                         _______ _______ _______ _____ _____    ______ ____
ROOT
ATOM      1  C   UNL     1      -4.365   0.033  -1.089  0.00  0.00    +0.047 C 
ATOM      2  C   UNL     1      -4.077   1.341  -1.837  0.00  0.00    +0.125 C 
ATOM      3  C   UNL     1      -5.391   2.022  -2.197  0.00  0.00    +0.125 C 
ATOM      4  C   UNL     1      -5.954   2.884  -1.080  0.00  0.00    +0.129 C 
ATOM      5  C   UNL     1      -4.927   3.734  -0.354  0.00  0.00    +0.159 C 
ATOM      6  C   UNL     1      -3.626   3.000  -0.061  0.00  0.00    +0.242 C 
ATOM      7  O   UNL     1      -3.202   2.166  -1.109  0.00  0.00    -0.326 OA
ATOM      8  C   UNL     1      -3.755   2.225   1.257  0.00  0.00    +0.092 C 
ATOM      9  C   UNL     1      -4.628   5.019  -1.136  0.00  0.00    +0.051 C 
ATOM     10  C   UNL     1      -7.020   3.822  -1.683  0.00  0.00    +0.047 C 
ATOM     11  C   UNL     1      -5.212   2.840  -3.482  0.00  0.00    +0.047 C 
ENDROOT
BRANCH   5  12
ATOM     12  O   UNL     1      -5.498   4.133   0.913  0.00  0.00    -0.379 OA
ATOM     13  H   UNL     1      -4.931   4.719   1.433  0.00  0.00    +0.211 HD
ENDBRANCH   5  12
BRANCH   4  14
ATOM     14  O   UNL     1      -6.626   2.041  -0.128  0.00  0.00    -0.383 OA
ATOM     15  H   UNL     1      -7.013   2.520   0.618  0.00  0.00    +0.210 HD
ENDBRANCH   4  14
BRANCH   3  16
ATOM     16  O   UNL     1      -6.356   0.985  -2.486  0.00  0.00    -0.383 OA
ATOM     17  H   UNL     1      -6.104   0.407  -3.219  0.00  0.00    +0.210 HD
ENDBRANCH   3  16
BRANCH   6  18
ATOM     18  O   UNL     1      -2.603   4.003   0.146  0.00  0.00    -0.458 OA
BRANCH  18  19
ATOM     19  C   UNL     1      -1.339   3.558   0.378  0.00  0.00    +0.124 A 
ATOM     20  C   UNL     1      -1.052   2.205   0.281  0.00  0.00    +0.047 A 
ATOM     21  C   UNL     1       0.230   1.752   0.522  0.00  0.00    +0.026 A 
ATOM     22  C   UNL     1       1.234   2.652   0.850  0.00  0.00    +0.025 A 
ATOM     23  C   UNL     1       0.947   4.008   0.942  0.00  0.00    +0.026 A 
ATOM     24  C   UNL     1      -0.337   4.459   0.706  0.00  0.00    +0.047 A 
BRANCH  22  25
ATOM     25  N   UNL     1       2.535   2.195   1.089  0.00  0.00    -0.358 N 
ATOM     26  H   UNL     1       2.735   1.248   1.026  0.00  0.00    +0.142 HD
ATOM     27  H   UNL     1       3.236   2.824   1.319  0.00  0.00    +0.142 HD
ENDBRANCH  22  25
ENDBRANCH  18  19
ENDBRANCH   6  18
BRANCH   2  28
ATOM     28  C   UNL     1      -3.376   0.957  -3.162  0.00  0.00    +0.193 C 
BRANCH  28  29
ATOM     29  O   UNL     1      -2.225   0.159  -2.878  0.00  0.00    -0.392 OA
ATOM     30  H   UNL     1      -1.736  -0.119  -3.665  0.00  0.00    +0.210 HD
ENDBRANCH  28  29
ENDBRANCH   2  28
TORSDOF 8
