REMARK  Name = ZINC12330253
REMARK  7 active torsions:
REMARK  status: ('A' for Active; 'I' for Inactive)
REMARK    1  A    between atoms: C_1  and  O_2
REMARK    2  A    between atoms: O_2  and  C_3
REMARK    3  A    between atoms: C_15  and  C_16
REMARK    4  A    between atoms: C_15  and  N_64
REMARK    5  A    between atoms: C_16  and  C_18
REMARK    6  A    between atoms: C_16  and  O_28
REMARK    7  A    between atoms: C_30  and  O_32
REMARK                            x       y       z     vdW  Elec       q    Type
REMARK                         _______ _______ _______ _____ _____    ______ ____
ROOT
ATOM      1  C   UNL     1       3.749   6.538   6.034  0.00  0.00    +0.124 A 
ATOM      2  C   UNL     1       2.647   7.228   6.521  0.00  0.00    +0.046 A 
ATOM      3  C   UNL     1       1.419   6.602   6.591  0.00  0.00    +0.013 A 
ATOM      4  C   UNL     1       1.278   5.287   6.179  0.00  0.00    +0.023 A 
ATOM      5  C   UNL     1       2.374   4.594   5.695  0.00  0.00    +0.130 A 
ATOM      6  C   UNL     1       3.611   5.223   5.622  0.00  0.00    +0.091 A 
ATOM      7  O   UNL     1       2.281   3.300   5.290  0.00  0.00    -0.485 OA
ATOM      8  C   UNL     1       0.982   2.775   5.025  0.00  0.00    +0.110 C 
ATOM      9  C   UNL     1       1.060   1.256   4.864  0.00  0.00    +0.029 C 
ATOM     10  C   UNL     1       1.925   0.919   3.647  0.00  0.00    -0.075 C 
ATOM     11  C   UNL     1       1.304   2.995   2.559  0.00  0.00    -0.075 C 
ATOM     12  C   UNL     1       0.422   3.395   3.744  0.00  0.00    +0.029 C 
ATOM     13  C   UNL     1       0.064   3.119   6.204  0.00  0.00    +0.084 C 
ATOM     14  C   UNL     1      -0.082   4.641   6.270  0.00  0.00    +0.152 C 
ATOM     15  N   UNL     1       1.312   1.521   2.443  0.00  0.00    +0.382 N 
ATOM     16  H   UNL     1       0.344   1.188   2.361  0.00  0.00    -0.082 HD
ENDROOT
BRANCH   1  18
ATOM     17  C   UNL     1       5.026   8.509   6.405  0.00  0.00    +0.277 C 
ATOM     18  O   UNL     1       4.959   7.152   5.962  0.00  0.00    -0.495 OA
ENDBRANCH   1  18
BRANCH  14  19
ATOM     19  O   UNL     1      -0.700   5.006   7.506  0.00  0.00    -0.387 OA
ATOM     20  H   UNL     1      -0.825   5.958   7.618  0.00  0.00    +0.210 HD
ENDBRANCH  14  19
BRANCH  15  21
ATOM     21  C   UNL     1       2.064   1.114   1.238  0.00  0.00    -0.042 C 
BRANCH  21  22
ATOM     22  C   UNL     1       1.286   1.562  -0.002  0.00  0.00    +0.128 C 
BRANCH  22  23
ATOM     23  C   UNL     1       2.028   1.134  -1.242  0.00  0.00    -0.021 A 
ATOM     24  C   UNL     1       1.854  -0.140  -1.750  0.00  0.00    +0.006 A 
ATOM     25  C   UNL     1       2.534  -0.523  -2.887  0.00  0.00    +0.004 A 
ATOM     26  C   UNL     1       3.402   0.357  -3.520  0.00  0.00    -0.044 A 
ATOM     27  C   UNL     1       3.578   1.625  -3.013  0.00  0.00    -0.044 A 
ATOM     28  C   UNL     1       2.889   2.010  -1.870  0.00  0.00    +0.010 A 
ATOM     29  C   UNL     1       4.496   2.634  -3.652  0.00  0.00    +0.035 C 
ATOM     30  C   UNL     1       5.475   1.944  -4.600  0.00  0.00    +0.005 C 
ATOM     31  C   UNL     1       4.677   1.045  -5.551  0.00  0.00    +0.005 C 
ATOM     32  C   UNL     1       4.123  -0.132  -4.749  0.00  0.00    +0.035 C 
ENDBRANCH  22  23
BRANCH  22  33
ATOM     33  O   UNL     1      -0.011   0.963   0.007  0.00  0.00    -0.389 OA
ATOM     34  H   UNL     1       0.002  -0.004   0.002  0.00  0.00    +0.210 HD
ENDBRANCH  22  33
ENDBRANCH  21  22
ENDBRANCH  15  21
TORSDOF 6
