REMARK  Name = ZINC10032683
REMARK  8 active torsions:
REMARK  status: ('A' for Active; 'I' for Inactive)
REMARK    1  A    between atoms: C_1  and  C_2
REMARK    2  A    between atoms: C_7  and  C_8
REMARK    3  A    between atoms: N_10  and  N_11
REMARK    4  A    between atoms: C_12  and  C_14
REMARK    5  A    between atoms: C_14  and  C_15
REMARK    6  A    between atoms: C_15  and  C_16
REMARK    7  A    between atoms: N_18  and  C_19
REMARK    8  A    between atoms: C_20  and  C_24
REMARK                            x       y       z     vdW  Elec       q    Type
REMARK                         _______ _______ _______ _____ _____    ______ ____
ROOT
ATOM      1  C   UNL     1      -1.022   3.471   1.447  0.00  0.00    +0.106 C 
ENDROOT
BRANCH   1   3
ATOM      2  N   UNL     1       0.115   1.329   0.957  0.00  0.00    -0.234 N 
ATOM      3  C   UNL     1      -1.040   1.988   1.180  0.00  0.00    +0.230 C 
ATOM      4  O   UNL     1      -2.093   1.387   1.165  0.00  0.00    -0.274 OA
ATOM      5  H   UNL     1       0.957   1.810   0.965  0.00  0.00    +0.173 HD
BRANCH   2   8
ATOM      6  C   UNL     1       1.252  -0.708   0.481  0.00  0.00    +0.260 C 
ATOM      7  O   UNL     1       2.307  -0.105   0.491  0.00  0.00    -0.269 OA
ATOM      8  N   UNL     1       0.098  -0.050   0.709  0.00  0.00    -0.230 N 
ATOM      9  H   UNL     1      -0.745  -0.531   0.701  0.00  0.00    +0.173 HD
BRANCH   6  16
ATOM     10  C   UNL     1       3.700  -2.057  -0.263  0.00  0.00    +0.044 C 
ATOM     11  C   UNL     1       2.409  -2.824  -0.141  0.00  0.00    -0.038 A 
ATOM     12  C   UNL     1       2.385  -4.182  -0.385  0.00  0.00    +0.004 A 
ATOM     13  C   UNL     1       1.201  -4.887  -0.273  0.00  0.00    +0.000 A 
ATOM     14  C   UNL     1       0.032  -4.237   0.084  0.00  0.00    +0.001 A 
ATOM     15  C   UNL     1       0.043  -2.881   0.335  0.00  0.00    +0.013 A 
ATOM     16  C   UNL     1       1.234  -2.162   0.218  0.00  0.00    +0.041 A 
ENDBRANCH   6  16
ENDBRANCH   2   8
ENDBRANCH   1   3
BRANCH   1  17
ATOM     17  C   UNL     1      -2.453   3.967   1.665  0.00  0.00    +0.105 C 
BRANCH  17  18
ATOM     18  C   UNL     1      -2.434   5.450   1.932  0.00  0.00    +0.218 C 
ATOM     19  O   UNL     1      -1.381   6.051   1.947  0.00  0.00    -0.275 OA
ATOM     20  N   UNL     1      -3.589   6.109   2.155  0.00  0.00    -0.279 N 
ATOM     21  H   UNL     1      -4.431   5.629   2.143  0.00  0.00    +0.155 HD
BRANCH  20  22
ATOM     22  C   UNL     1      -3.572   7.473   2.401  0.00  0.00    +0.084 A 
ATOM     23  C   UNL     1      -4.647   8.320   2.644  0.00  0.00    +0.065 A 
ATOM     24  C   UNL     1      -4.339   9.711   2.875  0.00  0.00    +0.022 A 
ATOM     25  C   UNL     1      -3.043  10.070   2.824  0.00  0.00    +0.048 A 
ATOM     26  S   UNL     1      -2.208   8.537   2.472  0.00  0.00    -0.081 S 
BRANCH  23  27
ATOM     27  C   UNL     1      -6.027   7.824   2.670  0.00  0.00    +0.244 C 
ATOM     28  O   UNL     1      -6.253   6.644   2.475  0.00  0.00    -0.270 OA
ATOM     29  N   UNL     1      -7.045   8.674   2.910  0.00  0.00    -0.325 N 
ATOM     30  H   UNL     1      -6.864   9.614   3.065  0.00  0.00    +0.145 HD
ATOM     31  H   UNL     1      -7.957   8.346   2.926  0.00  0.00    +0.145 HD
ENDBRANCH  23  27
ENDBRANCH  20  22
ENDBRANCH  17  18
ENDBRANCH   1  17
TORSDOF 7
