REMARK  Name = ZINC44714341
REMARK  7 active torsions:
REMARK  status: ('A' for Active; 'I' for Inactive)
REMARK    1  A    between atoms: C_1  and  C_2
REMARK    2  A    between atoms: C_3  and  C_9
REMARK    3  A    between atoms: C_4  and  C_8
REMARK    4  A    between atoms: C_9  and  C_11
REMARK    5  A    between atoms: C_9  and  N_12
REMARK    6  A    between atoms: C_13  and  C_15
REMARK    7  A    between atoms: C_26  and  C_28
REMARK                            x       y       z     vdW  Elec       q    Type
REMARK                         _______ _______ _______ _____ _____    ______ ____
ROOT
ATOM      1  C   UNL     1       2.526  -1.343  -5.213  0.00  0.00    +0.100 C 
ATOM      2  C   UNL     1       1.927  -2.694  -5.663  0.00  0.00    +0.121 C 
ATOM      3  N   UNL     1       1.417  -2.441  -7.031  0.00  0.00    -0.300 N 
ATOM      4  C   UNL     1       2.442  -1.566  -7.650  0.00  0.00    +0.115 C 
ATOM      5  C   UNL     1       2.866  -0.607  -6.520  0.00  0.00    -0.004 C 
ATOM      6  C   UNL     1       4.364  -0.331  -6.596  0.00  0.00    -0.010 C 
ATOM      7  C   UNL     1       4.670   0.453  -7.876  0.00  0.00    -0.082 C 
ATOM      8  N   UNL     1       3.919   1.714  -7.871  0.00  0.00    +0.379 N 
ATOM      9  C   UNL     1       2.478   1.438  -7.892  0.00  0.00    -0.082 C 
ATOM     10  C   UNL     1       2.079   0.697  -6.613  0.00  0.00    -0.010 C 
ATOM     11  C   UNL     1       0.280  -2.902  -7.588  0.00  0.00    +0.219 C 
ATOM     12  O   UNL     1      -0.001  -2.604  -8.729  0.00  0.00    -0.275 OA
ATOM     13  H   UNL     1       4.149   2.237  -7.039  0.00  0.00    -0.086 HD
ATOM     14  H   UNL     1       4.169   2.255  -8.685  0.00  0.00    -0.086 HD
ENDROOT
BRANCH  11  15
ATOM     15  C   UNL     1      -0.643  -3.788  -6.791  0.00  0.00    +0.079 C 
ATOM     16  C   UNL     1       0.099  -5.063  -6.379  0.00  0.00    +0.041 C 
ATOM     17  C   UNL     1      -0.868  -5.991  -5.640  0.00  0.00    +0.160 C 
ATOM     18  O   UNL     1      -1.985  -6.282  -6.482  0.00  0.00    -0.380 OA
ATOM     19  C   UNL     1      -2.745  -5.133  -6.860  0.00  0.00    +0.160 C 
ATOM     20  C   UNL     1      -1.854  -4.170  -7.649  0.00  0.00    +0.041 C 
ENDBRANCH  11  15
BRANCH   1  22
ATOM     21  N   UNL     1       1.926   0.317  -3.480  0.00  0.00    -0.308 N 
ATOM     22  C   UNL     1       1.514  -0.559  -4.418  0.00  0.00    +0.219 C 
ATOM     23  O   UNL     1       0.329  -0.716  -4.622  0.00  0.00    -0.275 OA
ATOM     24  H   UNL     1       2.874   0.443  -3.317  0.00  0.00    +0.149 HD
BRANCH  21  25
ATOM     25  C   UNL     1       0.942   1.079  -2.707  0.00  0.00    +0.104 C 
ATOM     26  C   UNL     1       0.475   0.245  -1.513  0.00  0.00    +0.033 C 
BRANCH  25  29
ATOM     27  C   UNL     1      -0.350   3.926  -2.801  0.00  0.00    +0.065 C 
ATOM     28  C   UNL     1       1.012   3.587  -2.253  0.00  0.00    +0.038 A 
ATOM     29  C   UNL     1       1.572   2.356  -2.212  0.00  0.00    +0.015 A 
ATOM     30  C   UNL     1       2.837   2.477  -1.629  0.00  0.00    +0.065 A 
ATOM     31  N   UNL     1       3.031   3.736  -1.331  0.00  0.00    -0.179 NA
ATOM     32  N   UNL     1       1.895   4.458  -1.720  0.00  0.00    -0.281 N 
ATOM     33  H   UNL     1       1.765   5.414  -1.621  0.00  0.00    +0.189 HD
ATOM     34  C   UNL     1       3.810   1.352  -1.387  0.00  0.00    +0.068 C 
ENDBRANCH  25  29
ENDBRANCH  21  25
ENDBRANCH   1  22
TORSDOF 4
