REMARK  Name = ZINC12170618
REMARK  9 active torsions:
REMARK  status: ('A' for Active; 'I' for Inactive)
REMARK    1  A    between atoms: C_9  and  C_12
REMARK    2  A    between atoms: C_12  and  O_13
REMARK    3  A    between atoms: O_13  and  C_14
REMARK    4  A    between atoms: C_14  and  C_15
REMARK    5  A    between atoms: C_15  and  C_17
REMARK    6  A    between atoms: C_15  and  O_39
REMARK    7  A    between atoms: C_17  and  N_70
REMARK    8  A    between atoms: C_20  and  C_23
REMARK    9  A    between atoms: C_23  and  N_24
REMARK                            x       y       z     vdW  Elec       q    Type
REMARK                         _______ _______ _______ _____ _____    ______ ____
ROOT
ATOM      1  C   UNL     1      -1.330  -0.609  -2.542  0.00  0.00    -0.078 C 
ATOM      2  C   UNL     1      -2.093   0.027  -3.707  0.00  0.00    -0.014 C 
ATOM      3  C   UNL     1      -1.316  -0.203  -5.006  0.00  0.00    +0.003 C 
ATOM      4  C   UNL     1       0.090   0.386  -4.863  0.00  0.00    -0.014 C 
ATOM      5  C   UNL     1       0.789  -0.260  -3.665  0.00  0.00    -0.078 C 
ATOM      6  N   UNL     1       0.005   0.019  -2.443  0.00  0.00    +0.381 N 
ATOM      7  H   UNL     1      -0.111   1.034  -2.346  0.00  0.00    -0.082 HD
ENDROOT
BRANCH   6   8
ATOM      8  C   UNL     1       0.718  -0.497  -1.257  0.00  0.00    -0.045 C 
BRANCH   8   9
ATOM      9  C   UNL     1       0.002  -0.004   0.002  0.00  0.00    +0.124 C 
BRANCH   9  10
ATOM     10  O   UNL     1      -0.017   1.425   0.010  0.00  0.00    -0.391 OA
ATOM     11  H   UNL     1       0.861   1.830   0.004  0.00  0.00    +0.210 HD
ENDBRANCH   9  10
BRANCH   9  12
ATOM     12  C   UNL     1       0.742  -0.511   1.242  0.00  0.00    +0.189 C 
BRANCH  12  13
ATOM     13  O   UNL     1       0.010  -0.149   2.414  0.00  0.00    -0.374 OA
BRANCH  13  14
ATOM     14  C   UNL     1       0.619  -0.578   3.634  0.00  0.00    +0.207 C 
BRANCH  14  23
ATOM     15  C   UNL     1      -3.825  -0.692   8.196  0.00  0.00    +0.004 A 
ATOM     16  C   UNL     1      -4.382  -1.065   6.987  0.00  0.00    +0.004 A 
ATOM     17  C   UNL     1      -3.601  -1.111   5.848  0.00  0.00    +0.049 A 
ATOM     18  C   UNL     1      -2.255  -0.782   5.915  0.00  0.00    +0.163 A 
ATOM     19  C   UNL     1      -1.696  -0.404   7.130  0.00  0.00    +0.162 A 
ATOM     20  C   UNL     1      -2.485  -0.362   8.270  0.00  0.00    +0.049 A 
ATOM     21  O   UNL     1      -0.378  -0.073   7.217  0.00  0.00    -0.485 OA
ATOM     22  C   UNL     1       0.462  -0.485   6.134  0.00  0.00    +0.276 C 
ATOM     23  C   UNL     1      -0.246  -0.138   4.817  0.00  0.00    +0.236 C 
ATOM     24  O   UNL     1      -1.498  -0.834   4.785  0.00  0.00    -0.479 OA
ENDBRANCH  14  23
ENDBRANCH  13  14
ENDBRANCH  12  13
ENDBRANCH   9  12
ENDBRANCH   8   9
ENDBRANCH   6   8
BRANCH   3  25
ATOM     25  C   UNL     1      -2.043   0.483  -6.165  0.00  0.00    +0.120 C 
BRANCH  25  26
ATOM     26  N   UNL     1      -3.341  -0.162  -6.378  0.00  0.00    -0.234 N 
ATOM     27  C   UNL     1      -3.417  -1.198  -7.235  0.00  0.00    +0.254 C 
ATOM     28  O   UNL     1      -2.418  -1.579  -7.814  0.00  0.00    -0.270 OA
ATOM     29  C   UNL     1      -4.701  -1.874  -7.472  0.00  0.00    +0.046 A 
ATOM     30  C   UNL     1      -4.824  -2.947  -8.341  0.00  0.00    +0.014 A 
ATOM     31  C   UNL     1      -6.061  -3.551  -8.535  0.00  0.00    +0.001 A 
ATOM     32  C   UNL     1      -7.180  -3.114  -7.885  0.00  0.00    +0.008 A 
ATOM     33  C   UNL     1      -7.098  -2.030  -6.995  0.00  0.00    -0.016 A 
ATOM     34  C   UNL     1      -5.848  -1.408  -6.790  0.00  0.00    +0.006 A 
ATOM     35  C   UNL     1      -5.734  -0.316  -5.901  0.00  0.00    +0.046 A 
ATOM     36  C   UNL     1      -6.865   0.134  -5.236  0.00  0.00    +0.014 A 
ATOM     37  C   UNL     1      -8.091  -0.487  -5.447  0.00  0.00    +0.001 A 
ATOM     38  C   UNL     1      -8.220  -1.544  -6.302  0.00  0.00    +0.008 A 
ATOM     39  C   UNL     1      -4.414   0.305  -5.713  0.00  0.00    +0.254 C 
ATOM     40  O   UNL     1      -4.292   1.247  -4.953  0.00  0.00    -0.270 OA
ENDBRANCH  25  26
ENDBRANCH   3  25
TORSDOF 9
