REMARK  Name = ZINC04223165
REMARK  4 active torsions:
REMARK  status: ('A' for Active; 'I' for Inactive)
REMARK    1  A    between atoms: C_1  and  C_2
REMARK    2  A    between atoms: C_7  and  N_8
REMARK    3  A    between atoms: C_9  and  C_11
REMARK    4  A    between atoms: C_11  and  C_12
REMARK                            x       y       z     vdW  Elec       q    Type
REMARK                         _______ _______ _______ _____ _____    ______ ____
ROOT
ATOM      1  C   UNL     1       5.996   3.041   0.277  0.00  0.00    +0.025 C 
ATOM      2  C   UNL     1       7.282   3.816   0.244  0.00  0.00    +0.200 C 
ATOM      3  O   UNL     1       7.651   4.275  -0.816  0.00  0.00    -0.278 OA
ATOM      4  N   UNL     1       8.040   4.025   1.328  0.00  0.00    -0.315 N 
ATOM      5  C   UNL     1       7.706   3.452   2.625  0.00  0.00    +0.059 C 
ATOM      6  C   UNL     1       8.035   4.413   3.765  0.00  0.00    +0.020 C 
ATOM      7  C   UNL     1       7.721   3.715   5.099  0.00  0.00    +0.002 C 
ATOM      8  C   UNL     1       6.242   3.329   5.149  0.00  0.00    -0.001 C 
ATOM      9  C   UNL     1       5.906   2.394   3.982  0.00  0.00    -0.014 C 
ATOM     10  C   UNL     1       6.215   3.112   2.670  0.00  0.00    -0.050 C 
ATOM     11  H   UNL     1       8.836   4.573   1.247  0.00  0.00    +0.149 HD
ATOM     12  N   UNL     1       5.892   2.259   1.520  0.00  0.00    +0.390 N 
ATOM     13  H   UNL     1       6.550   1.472   1.484  0.00  0.00    -0.084 HD
ATOM     14  H   UNL     1       4.935   1.901   1.618  0.00  0.00    -0.084 HD
ENDROOT
BRANCH   1  15
ATOM     15  C   UNL     1       4.818   4.013   0.192  0.00  0.00    +0.089 C 
BRANCH  15  17
ATOM     16  N   UNL     1       2.355   3.889  -0.001  0.00  0.00    -0.285 N 
ATOM     17  C   UNL     1       3.531   3.236   0.086  0.00  0.00    +0.216 C 
ATOM     18  O   UNL     1       3.554   2.024   0.080  0.00  0.00    -0.276 OA
ATOM     19  H   UNL     1       2.341   4.857  -0.061  0.00  0.00    +0.155 HD
BRANCH  16  26
ATOM     20  C   UNL     1       0.090   5.051   1.269  0.00  0.00    +0.045 C 
ATOM     21  C   UNL     1       0.025   3.700   0.605  0.00  0.00    -0.029 A 
ATOM     22  C   UNL     1      -1.159   2.988   0.601  0.00  0.00    +0.005 A 
ATOM     23  C   UNL     1      -1.220   1.751  -0.013  0.00  0.00    +0.000 A 
ATOM     24  C   UNL     1      -0.095   1.217  -0.616  0.00  0.00    +0.002 A 
ATOM     25  C   UNL     1       1.091   1.924  -0.614  0.00  0.00    +0.023 A 
ATOM     26  C   UNL     1       1.155   3.170  -0.003  0.00  0.00    +0.036 A 
ENDBRANCH  16  26
ENDBRANCH  15  17
ENDBRANCH   1  15
TORSDOF 3
