REMARK  Name = ZINC65253054
REMARK  9 active torsions:
REMARK  status: ('A' for Active; 'I' for Inactive)
REMARK    1  A    between atoms: C_1  and  C_2
REMARK    2  A    between atoms: C_2  and  C_3
REMARK    3  A    between atoms: C_3  and  C_4
REMARK    4  A    between atoms: C_4  and  N_5
REMARK    5  A    between atoms: C_6  and  C_8
REMARK    6  A    between atoms: N_12  and  C_14
REMARK    7  A    between atoms: C_14  and  C_15
REMARK    8  A    between atoms: N_17  and  C_18
REMARK    9  A    between atoms: N_21  and  C_24
REMARK                            x       y       z     vdW  Elec       q    Type
REMARK                         _______ _______ _______ _____ _____    ______ ____
ROOT
ATOM      1  C   UNL     1       2.343  -4.350   3.846  0.00  0.00    +0.058 C 
ATOM      2  C   UNL     1       1.624  -3.861   5.106  0.00  0.00    +0.009 C 
ATOM      3  C   UNL     1       2.326  -4.438   6.339  0.00  0.00    -0.018 C 
ATOM      4  C   UNL     1       2.348  -5.964   6.239  0.00  0.00    -0.078 C 
ATOM      5  N   UNL     1       3.072  -6.369   5.028  0.00  0.00    +0.386 N 
ATOM      6  C   UNL     1       2.365  -5.880   3.838  0.00  0.00    -0.065 C 
ATOM      7  H   UNL     1       4.003  -5.980   5.048  0.00  0.00    -0.081 HD
ENDROOT
BRANCH   1   9
ATOM      8  N   UNL     1       1.471  -2.526   2.420  0.00  0.00    -0.315 N 
ATOM      9  C   UNL     1       1.615  -3.850   2.625  0.00  0.00    +0.214 C 
ATOM     10  O   UNL     1       1.157  -4.641   1.827  0.00  0.00    -0.276 OA
ATOM     11  H   UNL     1       1.837  -1.894   3.058  0.00  0.00    +0.149 HD
BRANCH   8  12
ATOM     12  C   UNL     1       0.763  -2.041   1.233  0.00  0.00    +0.104 C 
BRANCH  12  13
ATOM     13  C   UNL     1       0.742  -0.511   1.242  0.00  0.00    +0.018 C 
BRANCH  13  15
ATOM     14  C   UNL     1      -0.019   1.526   0.010  0.00  0.00    +0.004 C 
ATOM     15  C   UNL     1       0.002  -0.004   0.002  0.00  0.00    -0.002 C 
ENDBRANCH  13  15
ENDBRANCH  12  13
ENDBRANCH   8  12
ENDBRANCH   1   9
BRANCH   5  16
ATOM     16  C   UNL     1       3.158  -7.834   4.976  0.00  0.00    +0.019 C 
BRANCH  16  17
ATOM     17  C   UNL     1       3.996  -8.329   6.127  0.00  0.00    +0.197 C 
ATOM     18  O   UNL     1       4.476  -7.538   6.912  0.00  0.00    -0.278 OA
ATOM     19  N   UNL     1       4.214  -9.650   6.283  0.00  0.00    -0.314 N 
ATOM     20  H   UNL     1       3.831 -10.282   5.655  0.00  0.00    +0.149 HD
BRANCH  19  21
ATOM     21  C   UNL     1       5.029 -10.130   7.401  0.00  0.00    +0.069 C 
ATOM     22  C   UNL     1       4.151 -10.287   8.646  0.00  0.00    +0.003 C 
ATOM     23  C   UNL     1       4.990 -10.864   9.787  0.00  0.00    -0.077 C 
ATOM     24  N   UNL     1       5.522 -12.175   9.394  0.00  0.00    +0.382 N 
ATOM     25  C   UNL     1       6.423 -12.022   8.245  0.00  0.00    -0.077 C 
ATOM     26  C   UNL     1       5.638 -11.489   7.044  0.00  0.00    +0.003 C 
ATOM     27  H   UNL     1       4.759 -12.785   9.143  0.00  0.00    -0.081 HD
BRANCH  24  28
ATOM     28  C   UNL     1       6.262 -12.759  10.520  0.00  0.00    -0.069 C 
ATOM     29  C   UNL     1       5.904 -14.187  10.936  0.00  0.00    -0.017 C 
ATOM     30  C   UNL     1       5.492 -13.007  11.819  0.00  0.00    -0.017 C 
ENDBRANCH  24  28
ENDBRANCH  19  21
ENDBRANCH  16  17
ENDBRANCH   5  16
TORSDOF 8
