REMARK  Name = ZINC08793177
REMARK  6 active torsions:
REMARK  status: ('A' for Active; 'I' for Inactive)
REMARK    1  A    between atoms: C_1  and  C_2
REMARK    2  A    between atoms: C_2  and  N_52
REMARK    3  A    between atoms: C_8  and  N_13
REMARK    4  A    between atoms: C_9  and  C_10
REMARK    5  A    between atoms: C_14  and  C_16
REMARK    6  A    between atoms: C_19  and  N_22
REMARK                            x       y       z     vdW  Elec       q    Type
REMARK                         _______ _______ _______ _____ _____    ______ ____
ROOT
ATOM      1  C   UNL     1       5.836   3.010  -0.384  0.00  0.00    -0.074 C 
ATOM      2  C   UNL     1       5.041   1.787   0.082  0.00  0.00    +0.018 C 
ATOM      3  C   UNL     1       3.560   2.147   0.059  0.00  0.00    -0.027 A 
ATOM      4  C   UNL     1       3.177   3.444   0.018  0.00  0.00    -0.021 A 
ATOM      5  S   UNL     1       1.409   3.392  -0.009  0.00  0.00    -0.079 S 
ATOM      6  C   UNL     1       1.179   1.675   0.047  0.00  0.00    +0.085 A 
ATOM      7  C   UNL     1       2.477   1.182   0.075  0.00  0.00    +0.068 A 
ATOM      8  C   UNL     1       4.081   4.637  -0.005  0.00  0.00    -0.035 C 
ATOM      9  N   UNL     1       5.433   4.189   0.410  0.00  0.00    +0.383 N 
ATOM     10  H   UNL     1       5.409   3.931   1.404  0.00  0.00    -0.081 HD
ENDROOT
BRANCH   7  11
ATOM     11  C   UNL     1       2.743  -0.259   0.120  0.00  0.00    +0.244 C 
ATOM     12  O   UNL     1       2.865  -0.888  -0.915  0.00  0.00    -0.270 OA
ATOM     13  N   UNL     1       2.853  -0.888   1.307  0.00  0.00    -0.325 N 
ATOM     14  H   UNL     1       2.756  -0.387   2.132  0.00  0.00    +0.145 HD
ATOM     15  H   UNL     1       3.029  -1.841   1.337  0.00  0.00    +0.145 HD
ENDBRANCH   7  11
BRANCH   6  16
ATOM     16  N   UNL     1      -0.011   0.966   0.054  0.00  0.00    -0.275 N 
ATOM     17  C   UNL     1      -1.187   1.624   0.017  0.00  0.00    +0.249 C 
ATOM     18  O   UNL     1      -1.204   2.839  -0.019  0.00  0.00    -0.270 OA
ATOM     19  H   UNL     1       0.002  -0.003   0.083  0.00  0.00    +0.156 HD
BRANCH  17  20
ATOM     20  C   UNL     1      -2.455   0.869   0.018  0.00  0.00    +0.037 A 
ATOM     21  C   UNL     1      -2.438  -0.528   0.053  0.00  0.00    +0.015 A 
ATOM     22  C   UNL     1      -3.624  -1.230   0.060  0.00  0.00    +0.025 A 
ATOM     23  C   UNL     1      -4.836  -0.549   0.021  0.00  0.00    +0.044 A 
ATOM     24  C   UNL     1      -4.857   0.840  -0.019  0.00  0.00    +0.025 A 
ATOM     25  C   UNL     1      -3.676   1.548  -0.021  0.00  0.00    +0.015 A 
BRANCH  23  26
ATOM     26  N   UNL     1      -6.037  -1.265   0.023  0.00  0.00    -0.210 N 
ATOM     27  C   UNL     1      -6.896  -1.237   1.050  0.00  0.00    +0.227 C 
ATOM     28  O   UNL     1      -6.745  -0.608   2.075  0.00  0.00    -0.275 OA
ATOM     29  C   UNL     1      -8.087  -2.112   0.726  0.00  0.00    +0.106 C 
ATOM     30  C   UNL     1      -7.760  -2.664  -0.676  0.00  0.00    +0.106 C 
ATOM     31  C   UNL     1      -6.421  -2.039  -1.000  0.00  0.00    +0.227 C 
ATOM     32  O   UNL     1      -5.794  -2.211  -2.023  0.00  0.00    -0.275 OA
ENDBRANCH  23  26
ENDBRANCH  17  20
ENDBRANCH   6  16
BRANCH   9  34
ATOM     33  C   UNL     1       6.549   5.625  -1.264  0.00  0.00    -0.017 C 
ATOM     34  C   UNL     1       6.408   5.284   0.221  0.00  0.00    -0.082 C 
ENDBRANCH   9  34
TORSDOF 5
