REMARK  Name = ZINC19769929
REMARK  5 active torsions:
REMARK  status: ('A' for Active; 'I' for Inactive)
REMARK    1  A    between atoms: C_1  and  C_2
REMARK    2  A    between atoms: C_2  and  C_4
REMARK    3  A    between atoms: C_2  and  N_17
REMARK    4  A    between atoms: C_13  and  C_15
REMARK    5  A    between atoms: C_13  and  C_16
REMARK                            x       y       z     vdW  Elec       q    Type
REMARK                         _______ _______ _______ _____ _____    ______ ____
ROOT
ATOM      1  C   UNL     1      -1.047   2.877   6.015  0.00  0.00    -0.060 A 
ATOM      2  C   UNL     1      -0.670   1.547   5.984  0.00  0.00    +0.005 A 
ATOM      3  C   UNL     1      -0.330   0.946   4.785  0.00  0.00    +0.048 A 
ATOM      4  C   UNL     1      -0.367   1.679   3.612  0.00  0.00    +0.143 A 
ATOM      5  C   UNL     1      -0.747   3.020   3.643  0.00  0.00    +0.076 A 
ATOM      6  C   UNL     1      -1.087   3.616   4.847  0.00  0.00    +0.029 A 
ATOM      7  N   UNL     1      -0.779   3.752   2.448  0.00  0.00    -0.279 N 
ATOM      8  C   UNL     1      -0.753   3.087   1.272  0.00  0.00    +0.261 C 
ATOM      9  O   UNL     1      -0.749   3.700   0.226  0.00  0.00    -0.271 OA
ATOM     10  C   UNL     1      -0.729   1.579   1.267  0.00  0.00    +0.180 C 
ATOM     11  O   UNL     1      -0.037   1.105   2.425  0.00  0.00    -0.475 OA
ATOM     12  C   UNL     1      -0.013   1.086   0.008  0.00  0.00    +0.065 C 
ATOM     13  C   UNL     1      -2.164   1.048   1.278  0.00  0.00    +0.065 C 
ATOM     14  H   UNL     1      -0.825   4.851   2.476  0.00  0.00    +0.155 HD
ENDROOT
BRANCH   1  16
ATOM     15  C   UNL     1      -2.853   3.146   7.693  0.00  0.00    -0.009 C 
ATOM     16  C   UNL     1      -1.416   3.523   7.326  0.00  0.00    -0.047 C 
BRANCH  16  17
ATOM     17  N   UNL     1      -0.503   3.055   8.377  0.00  0.00    +0.382 N 
ATOM     18  H   UNL     1       0.530   3.326   8.113  0.00  0.00    -0.089 HD
ATOM     19  H   UNL     1      -0.583   1.962   8.471  0.00  0.00    -0.089 HD
ATOM     20  H   UNL     1      -0.773   3.526   9.333  0.00  0.00    -0.089 HD
ENDBRANCH  16  17
ENDBRANCH   1  16
TORSDOF 2
