REMARK  Name = ZINC39466968
REMARK  8 active torsions:
REMARK  status: ('A' for Active; 'I' for Inactive)
REMARK    1  A    between atoms: C_1  and  C_2
REMARK    2  A    between atoms: C_2  and  C_3
REMARK    3  A    between atoms: C_2  and  S_4
REMARK    4  A    between atoms: S_4  and  C_7
REMARK    5  A    between atoms: P_16  and  C_32
REMARK    6  A    between atoms: C_24  and  C_25
REMARK    7  A    between atoms: C_25  and  C_26
REMARK    8  A    between atoms: C_32  and  C_33
REMARK                            x       y       z     vdW  Elec       q    Type
REMARK                         _______ _______ _______ _____ _____    ______ ____
ROOT
ATOM      1  C   UNL     1      -1.715  -2.429   0.116  0.00  0.00    +0.088 C 
ATOM      2  C   UNL     1      -2.219  -3.052   1.179  0.00  0.00    +0.004 C 
ATOM      3  C   UNL     1      -2.213  -4.557   1.226  0.00  0.00    +0.017 C 
ATOM      4  C   UNL     1      -2.284  -5.048   2.666  0.00  0.00    -0.003 C 
ATOM      5  C   UNL     1      -1.025  -4.638   3.442  0.00  0.00    -0.020 C 
ATOM      6  C   UNL     1      -1.171  -5.195   4.864  0.00  0.00    +0.156 C 
ATOM      7  O   UNL     1      -0.037  -4.800   5.655  0.00  0.00    -0.319 OA
ATOM      8  P   UNL     1       1.445  -5.072   5.039  0.00  0.00    +0.262 P 
ATOM      9  O   UNL     1       1.834  -6.485   5.244  0.00  0.00    -0.274 OA
ATOM     10  N   UNL     1       1.310  -4.743   3.427  0.00  0.00    -0.291 NA
ATOM     11  N   UNL     1       0.169  -5.168   2.780  0.00  0.00    +0.397 N 
ATOM     12  C   UNL     1       0.267  -4.649   1.407  0.00  0.00    -0.046 C 
ATOM     13  C   UNL     1      -0.926  -5.083   0.584  0.00  0.00    +0.005 C 
ATOM     14  C   UNL     1      -0.789  -4.478  -0.793  0.00  0.00    -0.019 C 
ATOM     15  C   UNL     1      -1.176  -3.222  -1.002  0.00  0.00    -0.022 C 
ATOM     16  H   UNL     1       2.010  -4.268   2.953  0.00  0.00    +0.111 HD
ATOM     17  H   UNL     1       0.134  -6.177   2.773  0.00  0.00    -0.055 HD
ENDROOT
BRANCH   1  18
ATOM     18  S   UNL     1      -1.698  -0.668   0.045  0.00  0.00    -0.001 S 
ATOM     19  O   UNL     1      -2.298  -0.250   1.264  0.00  0.00    -0.169 OA
ATOM     20  O   UNL     1      -2.298  -0.350  -1.204  0.00  0.00    -0.169 OA
BRANCH  18  22
ATOM     21  C   UNL     1       0.197   1.304   0.091  0.00  0.00    +0.032 C 
ATOM     22  C   UNL     1       0.059  -0.219   0.026  0.00  0.00    +0.130 C 
ATOM     23  C   UNL     1       0.758  -0.846   1.234  0.00  0.00    +0.032 C 
ENDBRANCH  18  22
ENDBRANCH   1  18
BRANCH  15  24
ATOM     24  C   UNL     1      -1.060  -2.611  -2.375  0.00  0.00    +0.071 C 
BRANCH  24  25
ATOM     25  C   UNL     1      -0.570  -3.651  -3.348  0.00  0.00    -0.043 A 
ATOM     26  C   UNL     1       0.784  -3.790  -3.589  0.00  0.00    +0.004 A 
ATOM     27  C   UNL     1       1.234  -4.744  -4.482  0.00  0.00    +0.000 A 
ATOM     28  C   UNL     1       0.329  -5.561  -5.134  0.00  0.00    +0.000 A 
ATOM     29  C   UNL     1      -1.025  -5.424  -4.893  0.00  0.00    +0.000 A 
ATOM     30  C   UNL     1      -1.474  -4.472  -3.997  0.00  0.00    +0.004 A 
ENDBRANCH  24  25
ENDBRANCH  15  24
BRANCH   8  31
ATOM     31  C   UNL     1       2.665  -3.962   5.814  0.00  0.00    +0.147 C 
BRANCH  31  32
ATOM     32  C   UNL     1       2.697  -4.210   7.300  0.00  0.00    -0.037 A 
ATOM     33  C   UNL     1       1.857  -3.501   8.138  0.00  0.00    +0.004 A 
ATOM     34  C   UNL     1       1.886  -3.729   9.501  0.00  0.00    +0.000 A 
ATOM     35  C   UNL     1       2.755  -4.666  10.027  0.00  0.00    +0.000 A 
ATOM     36  C   UNL     1       3.595  -5.376   9.189  0.00  0.00    +0.000 A 
ATOM     37  C   UNL     1       3.563  -5.151   7.825  0.00  0.00    +0.004 A 
ENDBRANCH  31  32
ENDBRANCH   8  31
TORSDOF 6
