REMARK  Name = ZINC12479884
REMARK  13 active torsions:
REMARK  status: ('A' for Active; 'I' for Inactive)
REMARK    1  A    between atoms: C_1  and  C_2
REMARK    2  A    between atoms: C_7  and  N_8
REMARK    3  A    between atoms: N_8  and  C_9
REMARK    4  A    between atoms: C_9  and  C_11
REMARK    5  A    between atoms: C_9  and  C_16
REMARK    6  A    between atoms: N_18  and  C_19
REMARK    7  A    between atoms: C_19  and  C_20
REMARK    8  A    between atoms: C_20  and  C_21
REMARK    9  A    between atoms: C_21  and  C_22
REMARK   10  A    between atoms: C_21  and  C_23
REMARK   11  A    between atoms: C_24  and  C_26
REMARK   12  A    between atoms: C_27  and  N_34
REMARK   13  A    between atoms: C_28  and  C_31
REMARK                            x       y       z     vdW  Elec       q    Type
REMARK                         _______ _______ _______ _____ _____    ______ ____
ROOT
ATOM      1  N   UNL     1      -0.842   1.373  -1.235  0.00  0.00    -0.248 N 
ATOM      2  C   UNL     1      -1.537   0.434  -1.908  0.00  0.00    +0.262 C 
ATOM      3  O   UNL     1      -1.417  -0.741  -1.613  0.00  0.00    -0.269 OA
ENDROOT
BRANCH   1  10
ATOM      4  C   UNL     1      -2.911   2.869   0.020  0.00  0.00    +0.045 C 
ATOM      5  C   UNL     1      -1.976   3.490  -0.986  0.00  0.00    -0.029 A 
ATOM      6  C   UNL     1      -2.106   4.824  -1.319  0.00  0.00    +0.005 A 
ATOM      7  C   UNL     1      -1.252   5.393  -2.246  0.00  0.00    +0.000 A 
ATOM      8  C   UNL     1      -0.263   4.630  -2.838  0.00  0.00    +0.002 A 
ATOM      9  C   UNL     1      -0.124   3.297  -2.506  0.00  0.00    +0.024 A 
ATOM     10  C   UNL     1      -0.980   2.722  -1.575  0.00  0.00    +0.041 A 
ENDBRANCH   1  10
BRANCH   2  11
ATOM     11  C   UNL     1      -2.436   0.828  -2.994  0.00  0.00    +0.116 A 
ATOM     12  C   UNL     1      -3.236   0.029  -3.814  0.00  0.00    +0.076 A 
ATOM     13  C   UNL     1      -3.963   0.776  -4.741  0.00  0.00    +0.155 A 
ATOM     14  N   UNL     1      -3.828   2.084  -4.762  0.00  0.00    -0.203 NA
ATOM     15  S   UNL     1      -2.798   2.452  -3.627  0.00  0.00    +0.019 S 
BRANCH  13  16
ATOM     16  C   UNL     1      -4.868   0.105  -5.692  0.00  0.00    +0.262 C 
ATOM     17  O   UNL     1      -4.988  -1.105  -5.668  0.00  0.00    -0.269 OA
ATOM     18  N   UNL     1      -5.563   0.833  -6.588  0.00  0.00    -0.324 N 
ATOM     19  H   UNL     1      -5.468   1.798  -6.608  0.00  0.00    +0.145 HD
ATOM     20  H   UNL     1      -6.159   0.392  -7.214  0.00  0.00    +0.145 HD
ENDBRANCH  13  16
BRANCH  12  21
ATOM     21  N   UNL     1      -3.303  -1.354  -3.715  0.00  0.00    -0.355 N 
ATOM     22  H   UNL     1      -2.775  -1.819  -3.047  0.00  0.00    +0.142 HD
ATOM     23  H   UNL     1      -3.878  -1.856  -4.314  0.00  0.00    +0.142 HD
ENDBRANCH  12  21
ENDBRANCH   2  11
BRANCH   1  24
ATOM     24  C   UNL     1       0.059   0.979  -0.149  0.00  0.00    +0.233 C 
BRANCH  24  25
ATOM     25  C   UNL     1      -0.276   1.768   1.091  0.00  0.00    +0.135 A 
ATOM     26  C   UNL     1      -0.482   1.255   2.318  0.00  0.00    +0.047 A 
ATOM     27  C   UNL     1      -0.765   2.344   3.174  0.00  0.00    +0.041 A 
ATOM     28  C   UNL     1      -0.715   3.456   2.420  0.00  0.00    +0.195 A 
ATOM     29  O   UNL     1      -0.412   3.102   1.161  0.00  0.00    -0.465 OA
ENDBRANCH  24  25
BRANCH  24  30
ATOM     30  C   UNL     1       1.484   1.257  -0.551  0.00  0.00    +0.242 C 
ATOM     31  O   UNL     1       1.724   1.736  -1.639  0.00  0.00    -0.273 OA
ATOM     32  N   UNL     1       2.492   0.972   0.297  0.00  0.00    -0.313 N 
ATOM     33  H   UNL     1       2.300   0.588   1.167  0.00  0.00    +0.149 HD
BRANCH  32  34
ATOM     34  C   UNL     1       3.877   1.242  -0.095  0.00  0.00    +0.104 C 
BRANCH  34  35
ATOM     35  C   UNL     1       4.817   0.831   1.040  0.00  0.00    +0.022 C 
BRANCH  35  36
ATOM     36  C   UNL     1       6.265   1.113   0.631  0.00  0.00    -0.016 C 
ATOM     37  C   UNL     1       6.464   2.621   0.467  0.00  0.00    +0.007 C 
ATOM     38  C   UNL     1       7.212   0.588   1.712  0.00  0.00    +0.007 C 
ENDBRANCH  35  36
ENDBRANCH  34  35
ENDBRANCH  32  34
ENDBRANCH  24  30
ENDBRANCH   1  24
TORSDOF 10
