REMARK  Name = ZINC09424021
REMARK  7 active torsions:
REMARK  status: ('A' for Active; 'I' for Inactive)
REMARK    1  A    between atoms: C_4  and  C_7
REMARK    2  A    between atoms: C_7  and  C_8
REMARK    3  A    between atoms: C_8  and  C_9
REMARK    4  A    between atoms: C_10  and  C_28
REMARK    5  A    between atoms: C_10  and  C_32
REMARK    6  A    between atoms: N_18  and  C_21
REMARK    7  A    between atoms: C_21  and  C_22
REMARK                            x       y       z     vdW  Elec       q    Type
REMARK                         _______ _______ _______ _____ _____    ______ ____
ROOT
ATOM      1  C   UNL     1       2.663  -2.870   0.167  0.00  0.00    +0.075 C 
ATOM      2  C   UNL     1       3.686  -0.697  -0.059  0.00  0.00    +0.264 C 
ATOM      3  C   UNL     1       2.303  -0.149   0.151  0.00  0.00    +0.098 A 
ATOM      4  C   UNL     1       2.103   1.230   0.331  0.00  0.00    +0.262 A 
ATOM      5  O   UNL     1       3.052   1.994   0.327  0.00  0.00    -0.267 OA
ATOM      6  N   UNL     1       0.852   1.700   0.507  0.00  0.00    -0.275 N 
ATOM      7  H   UNL     1       0.705   2.681   0.635  0.00  0.00    +0.173 HD
ATOM      8  C   UNL     1      -0.201   0.862   0.514  0.00  0.00    +0.331 A 
ATOM      9  O   UNL     1      -1.321   1.310   0.667  0.00  0.00    -0.246 OA
ATOM     10  N   UNL     1      -0.034  -0.464   0.347  0.00  0.00    -0.277 N 
ATOM     11  C   UNL     1       1.224  -0.983   0.166  0.00  0.00    +0.119 A 
ATOM     12  N   UNL     1       1.409  -2.335   0.005  0.00  0.00    -0.290 N 
ATOM     13  H   UNL     1       0.660  -2.908  -0.223  0.00  0.00    +0.155 HD
ATOM     14  N   UNL     1       3.799  -2.183   0.157  0.00  0.00    -0.352 N 
ATOM     15  H   UNL     1       4.708  -2.642   0.289  0.00  0.00    +0.162 HD
ENDROOT
BRANCH   2  16
ATOM     16  C   UNL     1       4.139  -0.382  -1.486  0.00  0.00    +0.426 C 
ATOM     17  F   UNL     1       4.147   1.004  -1.677  0.00  0.00    -0.167 F 
ATOM     18  F   UNL     1       5.426  -0.888  -1.690  0.00  0.00    -0.167 F 
ATOM     19  F   UNL     1       3.256  -0.972  -2.397  0.00  0.00    -0.167 F 
ENDBRANCH   2  16
BRANCH   2  20
ATOM     20  C   UNL     1       4.645  -0.030   0.929  0.00  0.00    +0.426 C 
ATOM     21  F   UNL     1       4.057   0.008   2.197  0.00  0.00    -0.167 F 
ATOM     22  F   UNL     1       5.836  -0.762   0.989  0.00  0.00    -0.167 F 
ATOM     23  F   UNL     1       4.921   1.274   0.503  0.00  0.00    -0.167 F 
ENDBRANCH   2  20
BRANCH   1  24
ATOM     24  C   UNL     1       2.805  -4.356   0.377  0.00  0.00    +0.074 C 
BRANCH  24  25
ATOM     25  C   UNL     1       4.285  -4.710   0.531  0.00  0.00    +0.042 C 
BRANCH  25  29
ATOM     26  C   UNL     1       4.687  -8.921   1.126  0.00  0.00    +0.000 A 
ATOM     27  C   UNL     1       4.708  -8.399  -0.154  0.00  0.00    +0.000 A 
ATOM     28  C   UNL     1       4.577  -7.036  -0.346  0.00  0.00    +0.003 A 
ATOM     29  C   UNL     1       4.427  -6.196   0.741  0.00  0.00    -0.047 A 
ATOM     30  C   UNL     1       4.412  -6.717   2.021  0.00  0.00    +0.003 A 
ATOM     31  C   UNL     1       4.537  -8.081   2.213  0.00  0.00    +0.000 A 
ENDBRANCH  25  29
ENDBRANCH  24  25
ENDBRANCH   1  24
BRANCH  10  32
ATOM     32  C   UNL     1      -1.197  -1.354   0.359  0.00  0.00    +0.163 C 
BRANCH  32  33
ATOM     33  C   UNL     1      -1.732  -1.500  -1.043  0.00  0.00    -0.028 A 
ATOM     34  C   UNL     1      -2.700  -0.630  -1.507  0.00  0.00    +0.005 A 
ATOM     35  C   UNL     1      -3.187  -0.760  -2.795  0.00  0.00    +0.000 A 
ATOM     36  C   UNL     1      -2.713  -1.769  -3.613  0.00  0.00    +0.000 A 
ATOM     37  C   UNL     1      -1.749  -2.642  -3.147  0.00  0.00    +0.000 A 
ATOM     38  C   UNL     1      -1.258  -2.508  -1.862  0.00  0.00    +0.005 A 
ENDBRANCH  32  33
ENDBRANCH  10  32
TORSDOF 7
