REMARK  Name = ZINC43238575
REMARK  9 active torsions:
REMARK  status: ('A' for Active; 'I' for Inactive)
REMARK    1  A    between atoms: C_1  and  C_2
REMARK    2  A    between atoms: C_2  and  C_3
REMARK    3  A    between atoms: C_3  and  C_5
REMARK    4  A    between atoms: C_3  and  N_23
REMARK    5  A    between atoms: C_5  and  C_7
REMARK    6  A    between atoms: C_5  and  S_13
REMARK    7  A    between atoms: N_10  and  C_12
REMARK    8  A    between atoms: S_13  and  C_14
REMARK    9  A    between atoms: C_20  and  N_22
REMARK                            x       y       z     vdW  Elec       q    Type
REMARK                         _______ _______ _______ _____ _____    ______ ____
ROOT
ATOM      1  C   UNL     1      -1.700  -2.121   0.148  0.00  0.00    +0.073 C 
ENDROOT
BRANCH   1   2
ATOM      2  C   UNL     1      -3.082  -2.711   0.270  0.00  0.00    +0.002 A 
ATOM      3  C   UNL     1      -3.973  -2.508   1.329  0.00  0.00    +0.139 A 
ATOM      4  N   UNL     1      -5.066  -3.182   1.077  0.00  0.00    -0.180 NA
ATOM      5  N   UNL     1      -4.905  -3.835  -0.151  0.00  0.00    -0.274 N 
ATOM      6  C   UNL     1      -3.682  -3.525  -0.629  0.00  0.00    +0.112 A 
ATOM      7  C   UNL     1      -5.893  -4.696  -0.805  0.00  0.00    +0.172 C 
ENDBRANCH   1   2
BRANCH   1   8
ATOM      8  C   UNL     1      -1.796  -0.594   0.158  0.00  0.00    -0.057 C 
BRANCH   8   9
ATOM      9  N   UNL     1      -2.646  -0.149  -0.955  0.00  0.00    +0.381 N 
ATOM     10  H   UNL     1      -2.245  -0.456  -1.828  0.00  0.00    -0.090 HD
ATOM     11  H   UNL     1      -3.569  -0.544  -0.852  0.00  0.00    -0.090 HD
ATOM     12  H   UNL     1      -2.709   0.858  -0.949  0.00  0.00    -0.090 HD
ENDBRANCH   8   9
BRANCH   8  14
ATOM     13  C   UNL     1      -0.474   1.526   0.147  0.00  0.00    +0.002 C 
ATOM     14  C   UNL     1      -0.397   0.005   0.001  0.00  0.00    -0.018 C 
ENDBRANCH   8  14
ENDBRANCH   1   8
BRANCH   1  15
ATOM     15  S   UNL     1      -0.683  -2.672   1.545  0.00  0.00    -0.081 S 
BRANCH  15  16
ATOM     16  C   UNL     1      -0.472  -4.398   1.264  0.00  0.00    +0.171 A 
ATOM     17  N   UNL     1       0.160  -5.155   2.204  0.00  0.00    -0.302 N 
ATOM     18  H   UNL     1       0.488  -4.742   3.018  0.00  0.00    +0.171 HD
ATOM     19  C   UNL     1       0.330  -6.479   2.006  0.00  0.00    +0.254 A 
ATOM     20  O   UNL     1       0.894  -7.165   2.843  0.00  0.00    -0.268 OA
ATOM     21  C   UNL     1      -0.153  -7.052   0.825  0.00  0.00    +0.113 A 
ATOM     22  C   UNL     1      -0.790  -6.238  -0.101  0.00  0.00    +0.124 A 
ATOM     23  N   UNL     1      -0.934  -4.932   0.152  0.00  0.00    -0.209 NA
BRANCH  22  24
ATOM     24  N   UNL     1      -1.277  -6.774  -1.276  0.00  0.00    -0.343 N 
ATOM     25  H   UNL     1      -1.175  -7.722  -1.456  0.00  0.00    +0.144 HD
ATOM     26  H   UNL     1      -1.722  -6.203  -1.922  0.00  0.00    +0.144 HD
ENDBRANCH  22  24
ENDBRANCH  15  16
ENDBRANCH   1  15
TORSDOF 7
