REMARK  Name = ZINC04795484
REMARK  5 active torsions:
REMARK  status: ('A' for Active; 'I' for Inactive)
REMARK    1  A    between atoms: C_1  and  C_2
REMARK    2  A    between atoms: N_8  and  C_9
REMARK    3  A    between atoms: C_9  and  C_11
REMARK    4  A    between atoms: C_9  and  O_15
REMARK    5  A    between atoms: N_16  and  N_17
REMARK                            x       y       z     vdW  Elec       q    Type
REMARK                         _______ _______ _______ _____ _____    ______ ____
ROOT
ATOM      1  C   UNL     1       0.276   1.589   0.007  0.00  0.00    +0.066 C 
ATOM      2  C   UNL     1       0.318   0.099  -0.212  0.00  0.00    +0.045 A 
ATOM      3  C   UNL     1      -0.815  -0.630  -0.184  0.00  0.00    +0.073 A 
ATOM      4  C   UNL     1      -0.705  -2.083  -0.404  0.00  0.00    +0.176 A 
ATOM      5  N   UNL     1       0.529  -2.656  -0.339  0.00  0.00    -0.194 NA
ATOM      6  C   UNL     1       1.604  -1.902  -0.356  0.00  0.00    +0.219 A 
ATOM      7  N   UNL     1       1.513  -0.542  -0.449  0.00  0.00    -0.220 NA
ATOM      8  N   UNL     1       2.841  -2.491  -0.284  0.00  0.00    -0.285 N 
ATOM      9  N   UNL     1      -1.775  -2.809  -0.657  0.00  0.00    -0.153 NA
ATOM     10  H   UNL     1       3.637  -1.941  -0.224  0.00  0.00    +0.151 HD
ENDROOT
BRANCH   9  11
ATOM     11  N   UNL     1      -1.668  -4.203  -0.753  0.00  0.00    -0.165 N 
ATOM     12  C   UNL     1      -1.904  -4.787  -1.944  0.00  0.00    +0.105 C 
ATOM     13  N   UNL     1      -2.224  -4.109  -3.000  0.00  0.00    -0.388 N 
ATOM     14  C   UNL     1      -1.766  -6.302  -1.958  0.00  0.00    +0.147 C 
ATOM     15  S   UNL     1      -1.310  -6.599  -0.200  0.00  0.00    -0.093 S 
ATOM     16  C   UNL     1      -1.329  -4.899   0.347  0.00  0.00    +0.136 C 
ATOM     17  S   UNL     1      -0.996  -4.294   1.914  0.00  0.00    -0.026 S 
ATOM     18  H   UNL     1      -2.302  -3.143  -2.950  0.00  0.00    +0.157 HD
ATOM     19  H   UNL     1      -2.387  -4.566  -3.839  0.00  0.00    +0.157 HD
ENDBRANCH   9  11
BRANCH   8  20
ATOM     20  C   UNL     1       2.958  -3.951  -0.299  0.00  0.00    +0.254 C 
BRANCH  20  21
ATOM     21  C   UNL     1       4.229  -4.353  -1.050  0.00  0.00    +0.232 C 
ATOM     22 CL   UNL     1       4.374  -6.150  -1.069  0.00  0.00    -0.079 Cl
ATOM     23 CL   UNL     1       4.146  -3.739  -2.744  0.00  0.00    -0.079 Cl
ATOM     24 CL   UNL     1       5.665  -3.643  -0.223  0.00  0.00    -0.079 Cl
ENDBRANCH  20  21
BRANCH  20  25
ATOM     25  O   UNL     1       3.024  -4.438   1.043  0.00  0.00    -0.370 OA
ATOM     26  H   UNL     1       3.774  -4.096   1.549  0.00  0.00    +0.212 HD
ENDBRANCH  20  25
ENDBRANCH   8  20
TORSDOF 4
