REMARK  Name = ZINC38752484
REMARK  4 active torsions:
REMARK  status: ('A' for Active; 'I' for Inactive)
REMARK    1  A    between atoms: C_4  and  N_7
REMARK    2  A    between atoms: N_7  and  C_8
REMARK    3  A    between atoms: N_11  and  C_23
REMARK    4  A    between atoms: C_17  and  N_22
REMARK                            x       y       z     vdW  Elec       q    Type
REMARK                         _______ _______ _______ _____ _____    ______ ____
ROOT
ATOM      1  C   UNL     1       3.556  -2.043   0.019  0.00  0.00    +0.103 C 
ATOM      2  C   UNL     1       4.714  -2.734   0.091  0.00  0.00    -0.010 C 
ATOM      3  C   UNL     1       6.061  -2.067   0.005  0.00  0.00    +0.119 C 
ATOM      4  N   UNL     1       6.832  -2.724  -1.064  0.00  0.00    -0.295 NA
ATOM      5  C   UNL     1       6.907  -4.174  -0.854  0.00  0.00    +0.086 C 
ATOM      6  C   UNL     1       5.510  -4.796  -0.925  0.00  0.00    +0.028 C 
ATOM      7  C   UNL     1       4.660  -4.249   0.223  0.00  0.00    +0.058 C 
ATOM      8  C   UNL     1       3.283  -4.849   0.126  0.00  0.00    +0.043 C 
ATOM      9  C   UNL     1       2.741  -6.083   0.104  0.00  0.00    +0.117 C 
ATOM     10  N   UNL     1       1.404  -5.947   0.010  0.00  0.00    -0.262 N 
ATOM     11  N   UNL     1       1.049  -4.712  -0.035  0.00  0.00    -0.154 NA
ATOM     12  C   UNL     1       2.149  -3.916   0.023  0.00  0.00    +0.159 C 
ATOM     13  N   UNL     1       2.359  -2.619   0.003  0.00  0.00    -0.327 N 
ATOM     14  H   UNL     1       0.783  -6.692  -0.020  0.00  0.00    +0.190 HD
ATOM     15  H   UNL     1       1.582  -2.039  -0.031  0.00  0.00    +0.169 HD
ENDROOT
BRANCH   4  16
ATOM     16  C   UNL     1       8.174  -2.138  -1.181  0.00  0.00    +0.057 C 
ATOM     17  C   UNL     1       9.008  -2.527   0.042  0.00  0.00    +0.019 C 
ATOM     18  C   UNL     1      10.406  -1.917  -0.080  0.00  0.00    +0.002 C 
ATOM     19  C   UNL     1      11.083  -2.443  -1.347  0.00  0.00    +0.000 C 
ATOM     20  C   UNL     1      10.249  -2.054  -2.569  0.00  0.00    +0.002 C 
ATOM     21  C   UNL     1       8.851  -2.664  -2.448  0.00  0.00    +0.019 C 
ENDBRANCH   4  16
BRANCH   9  22
ATOM     22  N   UNL     1       3.441  -7.290   0.167  0.00  0.00    -0.343 N 
ATOM     23  H   UNL     1       4.409  -7.286   0.233  0.00  0.00    +0.144 HD
ATOM     24  H   UNL     1       2.960  -8.132   0.145  0.00  0.00    +0.144 HD
ENDBRANCH   9  22
BRANCH   1  25
ATOM     25  N   UNL     1       3.620  -0.649  -0.036  0.00  0.00    -0.301 N 
ATOM     26  H   UNL     1       4.069  -0.156   0.668  0.00  0.00    +0.154 HD
BRANCH  25  30
ATOM     27  C   UNL     1       1.886   1.390  -3.226  0.00  0.00    +0.000 A 
ATOM     28  C   UNL     1       2.400   2.096  -2.154  0.00  0.00    +0.002 A 
ATOM     29  C   UNL     1       2.975   1.423  -1.094  0.00  0.00    +0.023 A 
ATOM     30  C   UNL     1       3.038   0.035  -1.107  0.00  0.00    +0.032 A 
ATOM     31  C   UNL     1       2.521  -0.671  -2.186  0.00  0.00    +0.023 A 
ATOM     32  C   UNL     1       1.946   0.009  -3.242  0.00  0.00    +0.002 A 
ENDBRANCH  25  30
ENDBRANCH   1  25
TORSDOF 4
