REMARK  Name = ZINC52014928
REMARK  4 active torsions:
REMARK  status: ('A' for Active; 'I' for Inactive)
REMARK    1  A    between atoms: C_4  and  O_18
REMARK    2  A    between atoms: C_6  and  N_9
REMARK    3  A    between atoms: N_9  and  C_10
REMARK    4  A    between atoms: C_15  and  O_17
REMARK                            x       y       z     vdW  Elec       q    Type
REMARK                         _______ _______ _______ _____ _____    ______ ____
ROOT
ATOM      1  N   UNL     1       0.738  -1.966  -1.265  0.00  0.00    +0.388 N 
ATOM      2  H   UNL     1       1.287  -2.395  -0.535  0.00  0.00    -0.085 HD
ATOM      3  H   UNL     1      -0.233  -2.213  -1.145  0.00  0.00    -0.085 HD
ENDROOT
BRANCH   1   8
ATOM      4  C   UNL     1       0.411   1.527   0.178  0.00  0.00    -0.001 C 
ATOM      5  C   UNL     1       1.897   1.892   0.150  0.00  0.00    +0.002 C 
ATOM      6  C   UNL     1       2.523   1.379  -1.149  0.00  0.00    +0.030 C 
ATOM      7  C   UNL     1       2.370  -0.141  -1.222  0.00  0.00    +0.101 C 
ATOM      8  C   UNL     1       0.885  -0.506  -1.194  0.00  0.00    -0.042 C 
ATOM      9  C   UNL     1       0.258   0.007   0.104  0.00  0.00    -0.013 C 
BRANCH   7  10
ATOM     10  O   UNL     1       3.030  -0.741  -0.106  0.00  0.00    -0.393 OA
ATOM     11  H   UNL     1       3.977  -0.551  -0.060  0.00  0.00    +0.210 HD
ENDBRANCH   7  10
ENDBRANCH   1   8
BRANCH   1  12
ATOM     12  C   UNL     1       1.206  -2.442  -2.573  0.00  0.00    -0.014 C 
ATOM     13  C   UNL     1       0.224  -2.017  -3.687  0.00  0.00    +0.147 C 
ATOM     14  O   UNL     1       0.197  -3.135  -4.602  0.00  0.00    -0.379 OA
ATOM     15  C   UNL     1       0.196  -4.312  -3.765  0.00  0.00    +0.189 C 
ATOM     16  C   UNL     1       1.191  -3.987  -2.625  0.00  0.00    +0.128 C 
BRANCH  16  17
ATOM     17  O   UNL     1       0.726  -4.524  -1.385  0.00  0.00    -0.391 OA
ATOM     18  H   UNL     1       0.697  -5.491  -1.362  0.00  0.00    +0.210 HD
ENDBRANCH  16  17
ENDBRANCH   1  12
TORSDOF 4
