REMARK  Name = ZINC35640809
REMARK  11 active torsions:
REMARK  status: ('A' for Active; 'I' for Inactive)
REMARK    1  A    between atoms: C_1  and  C_2
REMARK    2  A    between atoms: C_2  and  O_3
REMARK    3  A    between atoms: O_3  and  C_4
REMARK    4  A    between atoms: C_4  and  C_6
REMARK    5  A    between atoms: C_7  and  C_28
REMARK    6  A    between atoms: N_8  and  C_27
REMARK    7  A    between atoms: C_12  and  C_14
REMARK    8  A    between atoms: C_18  and  O_20
REMARK    9  A    between atoms: O_20  and  C_21
REMARK   10  A    between atoms: C_28  and  N_29
REMARK   11  A    between atoms: C_33  and  C_36
REMARK                            x       y       z     vdW  Elec       q    Type
REMARK                         _______ _______ _______ _____ _____    ______ ____
ROOT
ATOM      1  C   UNL     1      -3.241  -2.552  -0.119  0.00  0.00    +0.080 C 
ATOM      2  C   UNL     1      -3.539  -3.841  -0.390  0.00  0.00    +0.041 C 
ATOM      3  N   UNL     1      -4.832  -4.278  -0.403  0.00  0.00    -0.260 N 
ATOM      4  C   UNL     1      -5.885  -3.488  -0.157  0.00  0.00    +0.307 C 
ATOM      5  O   UNL     1      -7.001  -3.969  -0.192  0.00  0.00    -0.252 OA
ATOM      6  N   UNL     1      -5.748  -2.178   0.129  0.00  0.00    -0.288 N 
ATOM      7  C   UNL     1      -4.391  -1.609   0.174  0.00  0.00    +0.144 C 
ATOM      8  C   UNL     1      -5.082  -5.690  -0.705  0.00  0.00    +0.139 C 
ATOM      9  H   UNL     1      -6.525  -1.624   0.304  0.00  0.00    +0.151 HD
ENDROOT
BRANCH   7  10
ATOM     10  C   UNL     1      -4.332  -0.480  -0.822  0.00  0.00    -0.019 A 
ATOM     11  C   UNL     1      -4.831  -0.659  -2.099  0.00  0.00    +0.006 A 
ATOM     12  C   UNL     1      -4.779   0.375  -3.015  0.00  0.00    +0.004 A 
ATOM     13  C   UNL     1      -4.227   1.590  -2.657  0.00  0.00    +0.046 A 
ATOM     14  C   UNL     1      -3.725   1.772  -1.377  0.00  0.00    +0.129 A 
ATOM     15  C   UNL     1      -3.784   0.734  -0.457  0.00  0.00    +0.052 A 
BRANCH  14  16
ATOM     16  O   UNL     1      -3.181   2.965  -1.022  0.00  0.00    -0.456 OA
BRANCH  16  17
ATOM     17  C   UNL     1      -2.611   3.067   0.207  0.00  0.00    +0.128 A 
ATOM     18  C   UNL     1      -1.439   2.380   0.489  0.00  0.00    +0.046 A 
ATOM     19  C   UNL     1      -0.861   2.485   1.739  0.00  0.00    +0.004 A 
ATOM     20  C   UNL     1      -1.451   3.273   2.710  0.00  0.00    +0.000 A 
ATOM     21  C   UNL     1      -2.620   3.958   2.433  0.00  0.00    +0.004 A 
ATOM     22  C   UNL     1      -3.198   3.861   1.182  0.00  0.00    +0.046 A 
ENDBRANCH  16  17
ENDBRANCH  14  16
ENDBRANCH   7  10
BRANCH   1  23
ATOM     23  C   UNL     1      -1.901  -2.098  -0.104  0.00  0.00    +0.339 C 
ATOM     24  O   UNL     1      -1.344  -1.881   0.955  0.00  0.00    -0.245 OA
BRANCH  23  25
ATOM     25  O   UNL     1      -1.241  -1.906  -1.266  0.00  0.00    -0.462 OA
BRANCH  25  27
ATOM     26  C   UNL     1       0.689  -1.289  -2.583  0.00  0.00    +0.048 C 
ATOM     27  C   UNL     1       0.109  -1.447  -1.176  0.00  0.00    +0.229 C 
ENDBRANCH  25  27
ENDBRANCH  23  25
ENDBRANCH   1  23
BRANCH   2  28
ATOM     28  C   UNL     1      -2.425  -4.813  -0.682  0.00  0.00    +0.136 C 
BRANCH  28  29
ATOM     29  N   UNL     1      -2.362  -5.822   0.384  0.00  0.00    -0.300 NA
ATOM     30  C   UNL     1      -1.962  -5.213   1.661  0.00  0.00    +0.066 C 
ATOM     31  C   UNL     1      -1.967  -6.283   2.756  0.00  0.00    -0.067 C 
ATOM     32  N   UNL     1      -1.036  -7.359   2.393  0.00  0.00    +0.382 N 
ATOM     33  C   UNL     1      -1.462  -7.973   1.129  0.00  0.00    -0.061 C 
ATOM     34  C   UNL     1      -1.453  -6.918   0.021  0.00  0.00    +0.069 C 
ATOM     35  C   UNL     1      -0.501  -9.105   0.762  0.00  0.00    -0.012 C 
ATOM     36  H   UNL     1      -0.107  -6.978   2.285  0.00  0.00    -0.085 HD
ATOM     37  H   UNL     1      -1.030  -8.058   3.121  0.00  0.00    -0.085 HD
ENDBRANCH  28  29
ENDBRANCH   2  28
TORSDOF 8
