REMARK  Name = ZINC08739178
REMARK  7 active torsions:
REMARK  status: ('A' for Active; 'I' for Inactive)
REMARK    1  A    between atoms: C_1  and  C_2
REMARK    2  A    between atoms: C_2  and  C_4
REMARK    3  A    between atoms: C_2  and  N_10
REMARK    4  A    between atoms: C_11  and  C_13
REMARK    5  A    between atoms: C_13  and  C_15
REMARK    6  A    between atoms: C_13  and  N_16
REMARK    7  A    between atoms: C_17  and  C_19
REMARK                            x       y       z     vdW  Elec       q    Type
REMARK                         _______ _______ _______ _____ _____    ______ ____
ROOT
ATOM      1  N   UNL     1       4.673  -0.469  -1.104  0.00  0.00    -0.306 N 
ATOM      2  C   UNL     1       3.682  -0.582  -0.197  0.00  0.00    +0.200 C 
ATOM      3  O   UNL     1       3.846  -1.253   0.799  0.00  0.00    -0.278 OA
ATOM      4  H   UNL     1       4.543   0.068  -1.901  0.00  0.00    +0.149 HD
ENDROOT
BRANCH   2   5
ATOM      5  C   UNL     1       2.371   0.126  -0.422  0.00  0.00    +0.021 C 
ATOM      6  C   UNL     1       2.500   1.591  -0.007  0.00  0.00    +0.028 C 
ATOM      7  C   UNL     1       1.142   2.245   0.003  0.00  0.00    -0.047 A 
ATOM      8  C   UNL     1       1.075   3.630   0.007  0.00  0.00    +0.004 A 
ATOM      9  C   UNL     1      -0.148   4.269   0.021  0.00  0.00    +0.000 A 
ATOM     10  C   UNL     1      -1.313   3.524   0.030  0.00  0.00    +0.000 A 
ATOM     11  C   UNL     1      -1.247   2.146   0.020  0.00  0.00    +0.002 A 
ATOM     12  C   UNL     1      -0.018   1.502   0.010  0.00  0.00    -0.061 A 
ATOM     13  C   UNL     1       0.002  -0.004   0.002  0.00  0.00    -0.045 C 
ATOM     14  N   UNL     1       1.324  -0.505   0.402  0.00  0.00    +0.389 N 
ATOM     15  H   UNL     1       1.488  -0.281   1.391  0.00  0.00    -0.084 HD
ATOM     16  H   UNL     1       1.356  -1.523   0.273  0.00  0.00    -0.084 HD
ENDBRANCH   2   5
BRANCH   1  17
ATOM     17  C   UNL     1       5.948  -1.157  -0.885  0.00  0.00    +0.156 C 
ATOM     18  C   UNL     1       6.852  -0.289  -0.006  0.00  0.00    +0.038 C 
BRANCH  17  20
ATOM     19  N   UNL     1       7.815  -2.025  -2.256  0.00  0.00    -0.307 N 
ATOM     20  C   UNL     1       6.621  -1.401  -2.211  0.00  0.00    +0.234 C 
ATOM     21  O   UNL     1       6.089  -1.036  -3.238  0.00  0.00    -0.274 OA
ATOM     22  H   UNL     1       8.241  -2.317  -1.435  0.00  0.00    +0.149 HD
BRANCH  19  24
ATOM     23  C   UNL     1       7.935  -3.558  -4.158  0.00  0.00    +0.033 C 
ATOM     24  C   UNL     1       8.470  -2.262  -3.545  0.00  0.00    +0.100 C 
BRANCH  24  25
ATOM     25  C   UNL     1       9.958  -2.381  -3.338  0.00  0.00    -0.027 A 
ATOM     26  C   UNL     1      10.451  -3.058  -2.239  0.00  0.00    +0.005 A 
ATOM     27  C   UNL     1      11.816  -3.171  -2.052  0.00  0.00    +0.000 A 
ATOM     28  C   UNL     1      12.688  -2.599  -2.959  0.00  0.00    +0.000 A 
ATOM     29  C   UNL     1      12.194  -1.917  -4.056  0.00  0.00    +0.000 A 
ATOM     30  C   UNL     1      10.829  -1.808  -4.246  0.00  0.00    +0.005 A 
ENDBRANCH  24  25
ENDBRANCH  19  24
ENDBRANCH  17  20
ENDBRANCH   1  17
TORSDOF 5
