REMARK  Name = ZINC39354383
REMARK  14 active torsions:
REMARK  status: ('A' for Active; 'I' for Inactive)
REMARK    1  A    between atoms: C_1  and  C_2
REMARK    2  A    between atoms: C_5  and  C_32
REMARK    3  A    between atoms: N_8  and  C_10
REMARK    4  A    between atoms: C_10  and  C_11
REMARK    5  A    between atoms: C_11  and  C_12
REMARK    6  A    between atoms: C_12  and  N_13
REMARK    7  A    between atoms: C_14  and  C_16
REMARK    8  A    between atoms: C_16  and  C_18
REMARK    9  A    between atoms: C_16  and  N_22
REMARK   10  A    between atoms: C_18  and  C_19
REMARK   11  A    between atoms: C_19  and  S_20
REMARK   12  A    between atoms: S_20  and  C_21
REMARK   13  A    between atoms: C_23  and  C_25
REMARK   14  A    between atoms: C_28  and  C_31
REMARK                            x       y       z     vdW  Elec       q    Type
REMARK                         _______ _______ _______ _____ _____    ______ ____
ROOT
ATOM      1  N   UNL     1       2.207   0.402   6.106  0.00  0.00    -0.314 N 
ATOM      2  C   UNL     1       2.669   0.154   7.348  0.00  0.00    +0.233 C 
ATOM      3  O   UNL     1       3.618  -0.585   7.505  0.00  0.00    -0.274 OA
ATOM      4  H   UNL     1       1.448   0.993   5.981  0.00  0.00    +0.149 HD
ENDROOT
BRANCH   1   5
ATOM      5  C   UNL     1       2.850  -0.222   4.947  0.00  0.00    +0.102 C 
BRANCH   5   6
ATOM      6  C   UNL     1       2.136   0.221   3.668  0.00  0.00    +0.000 C 
BRANCH   6   7
ATOM      7  C   UNL     1       2.808  -0.431   2.458  0.00  0.00    -0.077 C 
BRANCH   7  13
ATOM      8  C   UNL     1      -0.019   1.526   0.010  0.00  0.00    +0.005 C 
ATOM      9  C   UNL     1       0.002  -0.004   0.002  0.00  0.00    -0.031 C 
ATOM     10  C   UNL     1       0.721  -0.499  -1.257  0.00  0.00    +0.003 C 
ATOM     11  C   UNL     1       2.177  -0.027  -1.220  0.00  0.00    -0.031 C 
ATOM     12  C   UNL     1       2.839  -0.534   0.063  0.00  0.00    -0.076 C 
ATOM     13  N   UNL     1       2.123  -0.005   1.230  0.00  0.00    +0.380 N 
ATOM     14  C   UNL     1       0.744  -0.512   1.240  0.00  0.00    -0.076 C 
ATOM     15  C   UNL     1       2.924  -0.581  -2.434  0.00  0.00    +0.005 C 
ATOM     16  H   UNL     1       2.109   1.003   1.187  0.00  0.00    -0.082 HD
ENDBRANCH   7  13
ENDBRANCH   6   7
ENDBRANCH   5   6
ENDBRANCH   1   5
BRANCH   2  17
ATOM     17  C   UNL     1       2.008   0.796   8.540  0.00  0.00    +0.160 C 
BRANCH  17  18
ATOM     18  N   UNL     1       2.691   0.372   9.765  0.00  0.00    -0.304 N 
ATOM     19  C   UNL     1       2.033   0.378  10.941  0.00  0.00    +0.217 C 
ATOM     20  O   UNL     1       0.874   0.734  10.985  0.00  0.00    -0.275 OA
ATOM     21  H   UNL     1       3.618   0.087   9.729  0.00  0.00    +0.149 HD
BRANCH  19  22
ATOM     22  C   UNL     1       2.735  -0.059  12.200  0.00  0.00    +0.075 C 
ATOM     23  C   UNL     1       3.205  -1.507  12.047  0.00  0.00    +0.013 C 
ATOM     24  C   UNL     1       1.996  -2.411  11.798  0.00  0.00    +0.004 C 
ATOM     25  C   UNL     1       1.031  -2.310  12.981  0.00  0.00    -0.014 C 
ATOM     26  C   UNL     1       0.562  -0.862  13.135  0.00  0.00    +0.004 C 
ATOM     27  C   UNL     1       1.771   0.042  13.384  0.00  0.00    +0.013 C 
ATOM     28  C   UNL     1      -0.177  -3.215  12.732  0.00  0.00    +0.007 C 
ENDBRANCH  19  22
ENDBRANCH  17  18
BRANCH  17  29
ATOM     29  C   UNL     1       2.091   2.318   8.411  0.00  0.00    +0.042 C 
BRANCH  29  30
ATOM     30  C   UNL     1       1.312   2.970   9.556  0.00  0.00    +0.071 C 
BRANCH  30  31
ATOM     31  S   UNL     1       1.410   4.775   9.403  0.00  0.00    -0.164 S 
ATOM     32  C   UNL     1       0.450   5.388  10.815  0.00  0.00    +0.084 C 
ENDBRANCH  30  31
ENDBRANCH  29  30
ENDBRANCH  17  29
ENDBRANCH   2  17
TORSDOF 10
