REMARK  Name = ZINC36650055
REMARK  9 active torsions:
REMARK  status: ('A' for Active; 'I' for Inactive)
REMARK    1  A    between atoms: C_1  and  C_2
REMARK    2  A    between atoms: C_4  and  C_28
REMARK    3  A    between atoms: C_8  and  N_27
REMARK    4  A    between atoms: C_9  and  C_11
REMARK    5  A    between atoms: C_11  and  O_13
REMARK    6  A    between atoms: O_13  and  C_14
REMARK    7  A    between atoms: C_14  and  C_15
REMARK    8  A    between atoms: N_17  and  C_18
REMARK    9  A    between atoms: C_21  and  C_25
REMARK                            x       y       z     vdW  Elec       q    Type
REMARK                         _______ _______ _______ _____ _____    ______ ____
ROOT
ATOM      1  C   UNL     1       1.002  -0.972   4.200  0.00  0.00    +0.348 C 
ATOM      2  O   UNL     1       1.151   0.139   4.674  0.00  0.00    -0.244 OA
ENDROOT
BRANCH   1  11
ATOM      3  C   UNL     1      -2.220   1.644   0.540  0.00  0.00    +0.044 C 
ATOM      4  C   UNL     1      -2.099   0.156   0.335  0.00  0.00    -0.037 A 
ATOM      5  C   UNL     1      -2.755  -0.461  -0.704  0.00  0.00    +0.025 A 
ATOM      6  C   UNL     1      -2.642  -1.830  -0.891  0.00  0.00    +0.014 A 
ATOM      7  N   UNL     1      -1.904  -2.557  -0.075  0.00  0.00    -0.353 N 
ATOM      8  C   UNL     1      -1.256  -2.014   0.932  0.00  0.00    +0.088 A 
ATOM      9  C   UNL     1      -1.302  -0.628   1.206  0.00  0.00    +0.030 A 
ATOM     10  C   UNL     1      -0.521  -0.198   2.356  0.00  0.00    +0.055 A 
ATOM     11  C   UNL     1       0.183  -1.151   3.060  0.00  0.00    +0.119 A 
ATOM     12  S   UNL     1      -0.197  -2.665   2.200  0.00  0.00    -0.062 S 
ATOM     13  C   UNL     1      -3.368  -2.492  -2.034  0.00  0.00    +0.063 C 
ATOM     14  H   UNL     1      -1.837  -3.514  -0.222  0.00  0.00    +0.166 HD
BRANCH  10  15
ATOM     15  N   UNL     1      -0.485   1.136   2.733  0.00  0.00    -0.356 N 
ATOM     16  H   UNL     1      -0.701   1.828   2.088  0.00  0.00    +0.142 HD
ATOM     17  H   UNL     1      -0.244   1.377   3.641  0.00  0.00    +0.142 HD
ENDBRANCH  10  15
ENDBRANCH   1  11
BRANCH   1  18
ATOM     18  O   UNL     1       1.619  -2.033   4.761  0.00  0.00    -0.451 OA
BRANCH  18  19
ATOM     19  C   UNL     1       2.431  -1.779   5.910  0.00  0.00    +0.328 C 
BRANCH  19  20
ATOM     20  C   UNL     1       3.033  -3.072   6.395  0.00  0.00    +0.255 C 
ATOM     21  O   UNL     1       2.791  -4.110   5.815  0.00  0.00    -0.272 OA
ATOM     22  N   UNL     1       3.841  -3.076   7.474  0.00  0.00    -0.283 N 
ATOM     23  H   UNL     1       4.033  -2.247   7.939  0.00  0.00    +0.155 HD
BRANCH  22  24
ATOM     24  C   UNL     1       4.402  -4.274   7.921  0.00  0.00    +0.035 A 
ATOM     25  C   UNL     1       4.704  -5.281   7.010  0.00  0.00    +0.024 A 
ATOM     26  C   UNL     1       5.257  -6.464   7.447  0.00  0.00    +0.022 A 
ATOM     27  C   UNL     1       5.515  -6.652   8.808  0.00  0.00    +0.070 A 
ATOM     28  C   UNL     1       5.210  -5.637   9.721  0.00  0.00    +0.060 A 
ATOM     29  C   UNL     1       4.662  -4.454   9.275  0.00  0.00    +0.044 A 
ATOM     30 CL   UNL     1       5.527  -5.865  11.413  0.00  0.00    -0.082 Cl
BRANCH  27  31
ATOM     31  C   UNL     1       6.089  -7.881   9.267  0.00  0.00    +0.101 C 
ATOM     32  N   UNL     1       6.545  -8.857   9.630  0.00  0.00    -0.191 NA
ENDBRANCH  27  31
ENDBRANCH  22  24
ENDBRANCH  19  20
ENDBRANCH  18  19
ENDBRANCH   1  18
TORSDOF 7
