REMARK  Name = ZINC66978875
REMARK  6 active torsions:
REMARK  status: ('A' for Active; 'I' for Inactive)
REMARK    1  A    between atoms: C_1  and  N_2
REMARK    2  A    between atoms: C_6  and  C_9
REMARK    3  A    between atoms: C_9  and  N_10
REMARK    4  A    between atoms: N_13  and  C_14
REMARK    5  A    between atoms: C_14  and  C_15
REMARK    6  A    between atoms: C_15  and  O_25
REMARK                            x       y       z     vdW  Elec       q    Type
REMARK                         _______ _______ _______ _____ _____    ______ ____
ROOT
ATOM      1  N   UNL     1       2.086  -3.942   2.100  0.00  0.00    -0.299 N 
ATOM      2  C   UNL     1       2.559  -4.619   3.165  0.00  0.00    +0.300 C 
ATOM      3  O   UNL     1       2.845  -4.022   4.186  0.00  0.00    -0.253 OA
ATOM      4  N   UNL     1       2.715  -5.956   3.100  0.00  0.00    -0.296 N 
ATOM      5  H   UNL     1       1.858  -4.418   1.286  0.00  0.00    +0.150 HD
ATOM      6  H   UNL     1       2.487  -6.431   2.286  0.00  0.00    +0.150 HD
ENDROOT
BRANCH   1   7
ATOM      7  C   UNL     1       1.916  -2.489   2.171  0.00  0.00    +0.107 C 
BRANCH   7  13
ATOM      8  C   UNL     1       0.789   1.520  -0.403  0.00  0.00    -0.096 C 
ATOM      9  N   UNL     1       0.777   0.051  -0.408  0.00  0.00    +0.378 N 
ATOM     10  C   UNL     1      -0.599  -0.425  -0.598  0.00  0.00    -0.079 C 
ATOM     11  C   UNL     1      -0.607  -1.952  -0.685  0.00  0.00    -0.018 C 
ATOM     12  C   UNL     1      -0.038  -2.535   0.612  0.00  0.00    +0.001 C 
ATOM     13  C   UNL     1       1.369  -1.974   0.839  0.00  0.00    -0.011 C 
ATOM     14  C   UNL     1       1.303  -0.445   0.869  0.00  0.00    -0.074 C 
ATOM     15  H   UNL     1       1.355  -0.287  -1.163  0.00  0.00    -0.082 HD
ENDBRANCH   7  13
ENDBRANCH   1   7
BRANCH   4  16
ATOM     16  C   UNL     1       3.229  -6.691   4.258  0.00  0.00    +0.145 C 
BRANCH  16  17
ATOM     17  C   UNL     1       3.185  -8.193   3.970  0.00  0.00    +0.107 C 
ATOM     18  C   UNL     1       1.754  -8.597   3.622  0.00  0.00    +0.041 C 
ATOM     19  C   UNL     1       1.688 -10.127   3.551  0.00  0.00    +0.008 C 
ATOM     20  C   UNL     1       1.842 -10.682   4.966  0.00  0.00    +0.035 C 
ATOM     21  C   UNL     1       3.054 -10.091   5.636  0.00  0.00    -0.041 A 
ATOM     22  C   UNL     1       3.669  -8.946   5.181  0.00  0.00    -0.011 A 
ATOM     23  C   UNL     1       4.780  -8.449   5.850  0.00  0.00    +0.007 A 
ATOM     24  C   UNL     1       5.275  -9.096   6.964  0.00  0.00    +0.000 A 
ATOM     25  C   UNL     1       4.660 -10.248   7.419  0.00  0.00    +0.000 A 
ATOM     26  C   UNL     1       3.555 -10.741   6.757  0.00  0.00    +0.004 A 
BRANCH  17  27
ATOM     27  O   UNL     1       4.039  -8.485   2.862  0.00  0.00    -0.382 OA
ATOM     28  H   UNL     1       4.965  -8.247   3.005  0.00  0.00    +0.211 HD
ENDBRANCH  17  27
ENDBRANCH  16  17
ENDBRANCH   4  16
TORSDOF 5
