REMARK  Name = ZINC05252212
REMARK  8 active torsions:
REMARK  status: ('A' for Active; 'I' for Inactive)
REMARK    1  A    between atoms: C_1  and  C_2
REMARK    2  A    between atoms: C_2  and  C_3
REMARK    3  A    between atoms: C_2  and  C_4
REMARK    4  A    between atoms: C_4  and  C_5
REMARK    5  A    between atoms: C_5  and  N_6
REMARK    6  A    between atoms: N_16  and  C_26
REMARK    7  A    between atoms: N_19  and  C_22
REMARK    8  A    between atoms: C_22  and  C_23
REMARK                            x       y       z     vdW  Elec       q    Type
REMARK                         _______ _______ _______ _____ _____    ______ ____
ROOT
ATOM      1  N   UNL     1      -0.713   1.571   1.200  0.00  0.00    -0.306 N 
ATOM      2  C   UNL     1      -0.397   2.699   1.945  0.00  0.00    +0.153 A 
ATOM      3  C   UNL     1      -1.293   2.731   3.008  0.00  0.00    +0.170 A 
ATOM      4  N   UNL     1      -2.089   1.667   2.895  0.00  0.00    -0.196 NA
ATOM      5  C   UNL     1      -1.758   0.968   1.828  0.00  0.00    +0.201 A 
ATOM      6  N   UNL     1      -2.374  -0.190   1.413  0.00  0.00    -0.305 N 
ATOM      7  C   UNL     1      -1.768  -1.367   2.053  0.00  0.00    +0.089 C 
ATOM      8  C   UNL     1      -2.426  -2.636   1.506  0.00  0.00    -0.063 C 
ATOM      9  C   UNL     1      -4.477  -1.409   1.125  0.00  0.00    -0.063 C 
ATOM     10  C   UNL     1      -3.819  -0.140   1.671  0.00  0.00    +0.089 C 
ATOM     11  N   UNL     1      -1.207   3.769   3.922  0.00  0.00    -0.279 N 
ATOM     12  C   UNL     1      -0.264   4.718   3.778  0.00  0.00    +0.334 A 
ATOM     13  O   UNL     1      -0.200   5.619   4.592  0.00  0.00    -0.246 OA
ATOM     14  N   UNL     1       0.605   4.699   2.753  0.00  0.00    -0.250 N 
ATOM     15  C   UNL     1       0.567   3.716   1.829  0.00  0.00    +0.283 A 
ATOM     16  O   UNL     1       1.361   3.710   0.904  0.00  0.00    -0.265 OA
ATOM     17  C   UNL     1      -2.135   3.824   5.055  0.00  0.00    +0.155 C 
ATOM     18  N   UNL     1      -3.877  -2.592   1.770  0.00  0.00    +0.381 N 
ATOM     19  H   UNL     1      -4.036  -2.543   2.783  0.00  0.00    -0.086 HD
ATOM     20  H   UNL     1      -4.315  -3.442   1.395  0.00  0.00    -0.086 HD
ENDROOT
BRANCH   1  21
ATOM     21  C   UNL     1      -0.046   1.114  -0.021  0.00  0.00    +0.125 C 
BRANCH  21  22
ATOM     22  C   UNL     1      -0.806   1.635  -1.243  0.00  0.00    +0.024 C 
BRANCH  22  24
ATOM     23  C   UNL     1      -0.936   1.573  -3.737  0.00  0.00    +0.007 C 
ATOM     24  C   UNL     1      -0.109   1.158  -2.519  0.00  0.00    -0.016 C 
ATOM     25  C   UNL     1       1.281   1.790  -2.607  0.00  0.00    +0.007 C 
ENDBRANCH  22  24
ENDBRANCH  21  22
ENDBRANCH   1  21
BRANCH  14  26
ATOM     26  C   UNL     1       1.608   5.760   2.636  0.00  0.00    +0.225 C 
BRANCH  26  27
ATOM     27  C   UNL     1       1.047   6.893   1.816  0.00  0.00    +0.231 C 
ATOM     28  O   UNL     1      -0.080   6.821   1.372  0.00  0.00    -0.274 OA
ATOM     29  N   UNL     1       1.797   7.987   1.575  0.00  0.00    -0.328 N 
ATOM     30  H   UNL     1       2.698   8.045   1.930  0.00  0.00    +0.145 HD
ATOM     31  H   UNL     1       1.435   8.716   1.047  0.00  0.00    +0.145 HD
ENDBRANCH  26  27
ENDBRANCH  14  26
TORSDOF 5
