REMARK  Name = ZINC49362186
REMARK  6 active torsions:
REMARK  status: ('A' for Active; 'I' for Inactive)
REMARK    1  A    between atoms: C_3  and  N_10
REMARK    2  A    between atoms: C_6  and  C_7
REMARK    3  A    between atoms: C_11  and  C_13
REMARK    4  A    between atoms: C_13  and  S_14
REMARK    5  A    between atoms: S_14  and  C_15
REMARK    6  A    between atoms: N_23  and  C_24
REMARK                            x       y       z     vdW  Elec       q    Type
REMARK                         _______ _______ _______ _____ _____    ______ ____
ROOT
ATOM      1  C   UNL     1       6.041   2.255   0.170  0.00  0.00    +0.172 C 
ENDROOT
BRANCH   1   3
ATOM      2  N   UNL     1       3.578   2.132  -0.022  0.00  0.00    -0.285 N 
ATOM      3  C   UNL     1       4.754   1.479   0.065  0.00  0.00    +0.227 C 
ATOM      4  O   UNL     1       4.776   0.266   0.058  0.00  0.00    -0.275 OA
ATOM      5  H   UNL     1       3.564   3.100  -0.083  0.00  0.00    +0.155 HD
BRANCH   2   8
ATOM      6  C   UNL     1       1.137  -0.537  -0.644  0.00  0.00    +0.015 A 
ATOM      7  C   UNL     1       2.317   0.172  -0.642  0.00  0.00    +0.024 A 
ATOM      8  C   UNL     1       2.381   1.417  -0.022  0.00  0.00    +0.033 A 
ATOM      9  C   UNL     1       1.254   1.948   0.597  0.00  0.00    +0.024 A 
ATOM     10  C   UNL     1       0.071   1.244   0.599  0.00  0.00    +0.015 A 
ATOM     11  C   UNL     1       0.003  -0.006  -0.023  0.00  0.00    +0.037 A 
BRANCH  11  12
ATOM     12  C   UNL     1      -1.264  -0.763  -0.024  0.00  0.00    +0.242 C 
ATOM     13  O   UNL     1      -1.321  -1.851  -0.565  0.00  0.00    -0.270 OA
ATOM     14  N   UNL     1      -2.356  -0.250   0.575  0.00  0.00    -0.325 N 
ATOM     15  H   UNL     1      -2.310   0.617   1.007  0.00  0.00    +0.145 HD
ATOM     16  H   UNL     1      -3.189  -0.748   0.575  0.00  0.00    +0.145 HD
ENDBRANCH  11  12
ENDBRANCH   2   8
ENDBRANCH   1   3
BRANCH   1  17
ATOM     17  S   UNL     1       7.437   1.101   0.270  0.00  0.00    -0.088 S 
BRANCH  17  18
ATOM     18  C   UNL     1       8.849   2.149   0.387  0.00  0.00    +0.160 A 
ATOM     19  N   UNL     1       8.913   3.467   0.406  0.00  0.00    -0.133 NA
ATOM     20  N   UNL     1      10.136   4.091   0.504  0.00  0.00    -0.125 NA
ATOM     21  C   UNL     1      11.236   3.369   0.577  0.00  0.00    +0.190 A 
ATOM     22  S   UNL     1      10.576   1.711   0.517  0.00  0.00    -0.024 S 
ATOM     23  N   UNL     1      12.561   3.789   0.679  0.00  0.00    -0.247 N 
ATOM     24  C   UNL     1      12.850   5.105   0.715  0.00  0.00    +0.306 C 
ATOM     25  O   UNL     1      11.956   5.926   0.659  0.00  0.00    -0.252 OA
ATOM     26  N   UNL     1      14.132   5.510   0.814  0.00  0.00    -0.296 N 
ATOM     27  H   UNL     1      13.275   3.134   0.724  0.00  0.00    +0.158 HD
ATOM     28  H   UNL     1      14.846   4.855   0.859  0.00  0.00    +0.151 HD
BRANCH  26  29
ATOM     29  C   UNL     1      14.447   6.941   0.853  0.00  0.00    +0.075 C 
ATOM     30  C   UNL     1      15.624   7.428   0.006  0.00  0.00    +0.024 C 
ATOM     31  C   UNL     1      15.754   7.358   1.529  0.00  0.00    +0.024 C 
ENDBRANCH  26  29
ENDBRANCH  17  18
ENDBRANCH   1  17
TORSDOF 6
