REMARK  Name = ZINC43216164
REMARK  11 active torsions:
REMARK  status: ('A' for Active; 'I' for Inactive)
REMARK    1  A    between atoms: C_1  and  C_2
REMARK    2  A    between atoms: C_2  and  C_3
REMARK    3  A    between atoms: C_2  and  C_4
REMARK    4  A    between atoms: C_4  and  C_5
REMARK    5  A    between atoms: C_5  and  C_7
REMARK    6  A    between atoms: C_5  and  N_28
REMARK    7  A    between atoms: C_9  and  C_12
REMARK    8  A    between atoms: N_14  and  C_15
REMARK    9  A    between atoms: C_15  and  C_16
REMARK   10  A    between atoms: C_16  and  N_17
REMARK   11  A    between atoms: N_17  and  C_18
REMARK                            x       y       z     vdW  Elec       q    Type
REMARK                         _______ _______ _______ _____ _____    ______ ____
ROOT
ATOM      1  C   UNL     1       4.302   0.217  -5.716  0.00  0.00    +0.266 C 
ATOM      2  O   UNL     1       4.808  -0.524  -6.536  0.00  0.00    -0.268 OA
ATOM      3  N   UNL     1       4.220   1.540  -5.964  0.00  0.00    -0.309 N 
ATOM      4  H   UNL     1       3.817   2.131  -5.309  0.00  0.00    +0.149 HD
ENDROOT
BRANCH   1   7
ATOM      5  C   UNL     1       2.863  -0.451  -2.500  0.00  0.00    +0.182 A 
ATOM      6  N   UNL     1       3.192   0.376  -3.447  0.00  0.00    -0.210 NA
ATOM      7  C   UNL     1       3.780  -0.330  -4.451  0.00  0.00    +0.163 A 
ATOM      8  C   UNL     1       3.794  -1.635  -4.067  0.00  0.00    +0.230 A 
ATOM      9  O   UNL     1       3.226  -1.692  -2.852  0.00  0.00    -0.449 OA
BRANCH   5  10
ATOM     10  C   UNL     1       2.187  -0.073  -1.207  0.00  0.00    +0.013 C 
BRANCH  10  11
ATOM     11  N   UNL     1       2.856  -0.751  -0.089  0.00  0.00    +0.386 N 
ATOM     12  H   UNL     1       3.824  -0.472  -0.056  0.00  0.00    -0.089 HD
ATOM     13  H   UNL     1       2.403  -0.498   0.777  0.00  0.00    -0.089 HD
ATOM     14  H   UNL     1       2.798  -1.750  -0.219  0.00  0.00    -0.089 HD
ENDBRANCH  10  11
BRANCH  10  15
ATOM     15  C   UNL     1       0.718  -0.497  -1.257  0.00  0.00    -0.004 C 
BRANCH  15  17
ATOM     16  C   UNL     1      -0.019   1.526   0.010  0.00  0.00    +0.007 C 
ATOM     17  C   UNL     1       0.002  -0.004   0.002  0.00  0.00    -0.018 C 
ATOM     18  C   UNL     1      -1.433  -0.534   0.013  0.00  0.00    +0.007 C 
ENDBRANCH  15  17
ENDBRANCH  10  15
ENDBRANCH   5  10
ENDBRANCH   1   7
BRANCH   3  19
ATOM     19  C   UNL     1       4.740   2.083  -7.221  0.00  0.00    +0.123 C 
BRANCH  19  20
ATOM     20  C   UNL     1       4.523   3.598  -7.250  0.00  0.00    +0.120 C 
BRANCH  20  21
ATOM     21  N   UNL     1       5.043   4.141  -8.507  0.00  0.00    -0.342 N 
ATOM     22  H   UNL     1       5.446   3.550  -9.162  0.00  0.00    +0.146 HD
BRANCH  21  23
ATOM     23  C   UNL     1       4.958   5.508  -8.763  0.00  0.00    +0.035 A 
ATOM     24  C   UNL     1       4.391   6.356  -7.835  0.00  0.00    +0.023 A 
ATOM     25  C   UNL     1       4.301   7.722  -8.081  0.00  0.00    +0.002 A 
ATOM     26  C   UNL     1       4.769   8.260  -9.241  0.00  0.00    +0.008 A 
ATOM     27  C   UNL     1       5.354   7.431 -10.213  0.00  0.00    -0.016 A 
ATOM     28  C   UNL     1       5.456   6.039  -9.972  0.00  0.00    +0.003 A 
ATOM     29  C   UNL     1       6.045   5.213 -10.942  0.00  0.00    +0.010 A 
ATOM     30  C   UNL     1       6.515   5.759 -12.098  0.00  0.00    +0.001 A 
ATOM     31  C   UNL     1       6.421   7.129 -12.333  0.00  0.00    +0.001 A 
ATOM     32  C   UNL     1       5.845   7.958 -11.420  0.00  0.00    +0.008 A 
ENDBRANCH  21  23
ENDBRANCH  20  21
ENDBRANCH  19  20
ENDBRANCH   3  19
TORSDOF 9
