REMARK  Name = ZINC46578328
REMARK  9 active torsions:
REMARK  status: ('A' for Active; 'I' for Inactive)
REMARK    1  A    between atoms: C_1  and  N_2
REMARK    2  A    between atoms: N_2  and  C_3
REMARK    3  A    between atoms: N_2  and  C_17
REMARK    4  A    between atoms: C_3  and  C_4
REMARK    5  A    between atoms: N_6  and  C_7
REMARK    6  A    between atoms: C_12  and  C_13
REMARK    7  A    between atoms: N_22  and  C_25
REMARK    8  A    between atoms: C_28  and  O_31
REMARK    9  A    between atoms: O_31  and  C_32
REMARK                            x       y       z     vdW  Elec       q    Type
REMARK                         _______ _______ _______ _____ _____    ______ ____
ROOT
ATOM      1  C   UNL     1       0.227  -0.126  -0.976  0.00  0.00    +0.029 C 
ATOM      2  C   UNL     1       1.755   0.080  -1.024  0.00  0.00    +0.090 C 
ATOM      3  C   UNL     1       2.303  -1.330  -1.054  0.00  0.00    +0.225 C 
ATOM      4  O   UNL     1       3.477  -1.626  -1.094  0.00  0.00    -0.275 OA
ATOM      5  N   UNL     1       1.284  -2.199  -1.028  0.00  0.00    -0.212 N 
ATOM      6  C   UNL     1       0.069  -1.631  -0.986  0.00  0.00    +0.213 C 
ATOM      7  O   UNL     1      -0.987  -2.226  -0.959  0.00  0.00    -0.277 OA
ENDROOT
BRANCH   5   8
ATOM      8  C   UNL     1       1.472  -3.589  -1.047  0.00  0.00    +0.044 A 
ATOM      9  C   UNL     1       0.376  -4.436  -1.147  0.00  0.00    +0.027 A 
ATOM     10  C   UNL     1       0.561  -5.804  -1.165  0.00  0.00    +0.048 A 
ATOM     11  C   UNL     1       1.841  -6.333  -1.082  0.00  0.00    +0.129 A 
ATOM     12  C   UNL     1       2.936  -5.487  -0.981  0.00  0.00    +0.048 A 
ATOM     13  C   UNL     1       2.753  -4.118  -0.970  0.00  0.00    +0.027 A 
BRANCH  11  14
ATOM     14  O   UNL     1       2.023  -7.680  -1.099  0.00  0.00    -0.456 OA
BRANCH  14  15
ATOM     15  C   UNL     1       0.919  -8.473  -1.097  0.00  0.00    +0.128 A 
ATOM     16  C   UNL     1       0.167  -8.621  -2.253  0.00  0.00    +0.046 A 
ATOM     17  C   UNL     1      -0.954  -9.428  -2.248  0.00  0.00    +0.004 A 
ATOM     18  C   UNL     1      -1.328 -10.087  -1.091  0.00  0.00    +0.000 A 
ATOM     19  C   UNL     1      -0.581  -9.940   0.063  0.00  0.00    +0.004 A 
ATOM     20  C   UNL     1       0.545  -9.139   0.062  0.00  0.00    +0.046 A 
ENDBRANCH  14  15
ENDBRANCH  11  14
ENDBRANCH   5   8
BRANCH   1  22
ATOM     21  C   UNL     1      -0.091   1.893   0.279  0.00  0.00    -0.094 C 
ATOM     22  N   UNL     1      -0.334   0.444   0.256  0.00  0.00    +0.392 N 
ATOM     23  H   UNL     1       0.108   0.017   1.056  0.00  0.00    -0.080 HD
BRANCH  22  24
ATOM     24  C   UNL     1      -1.780   0.189   0.300  0.00  0.00    +0.020 C 
BRANCH  24  25
ATOM     25  C   UNL     1      -2.334   0.665   1.618  0.00  0.00    +0.201 C 
ATOM     26  O   UNL     1      -1.597   1.167   2.440  0.00  0.00    -0.278 OA
ATOM     27  N   UNL     1      -3.648   0.532   1.884  0.00  0.00    -0.287 N 
ATOM     28  H   UNL     1      -4.252   0.209   1.197  0.00  0.00    +0.155 HD
BRANCH  27  29
ATOM     29  C   UNL     1      -4.143   0.862   3.151  0.00  0.00    +0.045 A 
ATOM     30  C   UNL     1      -3.303   0.825   4.257  0.00  0.00    +0.024 A 
ATOM     31  C   UNL     1      -3.794   1.151   5.506  0.00  0.00    +0.002 A 
ATOM     32  C   UNL     1      -5.121   1.512   5.656  0.00  0.00    +0.001 A 
ATOM     33  C   UNL     1      -5.959   1.549   4.557  0.00  0.00    +0.014 A 
ATOM     34  C   UNL     1      -5.473   1.231   3.304  0.00  0.00    +0.076 A 
BRANCH  34  35
ATOM     35  C   UNL     1      -6.385   1.279   2.106  0.00  0.00    +0.419 C 
ATOM     36  F   UNL     1      -7.665   1.675   2.510  0.00  0.00    -0.166 F 
ATOM     37  F   UNL     1      -5.885   2.196   1.175  0.00  0.00    -0.166 F 
ATOM     38  F   UNL     1      -6.453   0.010   1.521  0.00  0.00    -0.166 F 
ENDBRANCH  34  35
ENDBRANCH  27  29
ENDBRANCH  24  25
ENDBRANCH  22  24
ENDBRANCH   1  22
TORSDOF 8
