REMARK  Name = ZINC39627380
REMARK  8 active torsions:
REMARK  status: ('A' for Active; 'I' for Inactive)
REMARK    1  A    between atoms: C_1  and  N_2
REMARK    2  A    between atoms: N_2  and  C_3
REMARK    3  A    between atoms: N_2  and  C_4
REMARK    4  A    between atoms: C_4  and  C_5
REMARK    5  A    between atoms: C_5  and  C_6
REMARK    6  A    between atoms: C_6  and  N_7
REMARK    7  A    between atoms: C_8  and  C_10
REMARK    8  A    between atoms: C_21  and  C_23
REMARK                            x       y       z     vdW  Elec       q    Type
REMARK                         _______ _______ _______ _____ _____    ______ ____
ROOT
ATOM      1  C   UNL     1      -3.918  -6.215  -0.385  0.00  0.00    +0.100 C 
ATOM      2  C   UNL     1      -3.422  -6.626  -1.790  0.00  0.00    +0.121 C 
ATOM      3  N   UNL     1      -4.243  -7.807  -2.146  0.00  0.00    -0.300 N 
ATOM      4  C   UNL     1      -5.597  -7.481  -1.639  0.00  0.00    +0.115 C 
ATOM      5  C   UNL     1      -5.346  -6.778  -0.291  0.00  0.00    -0.004 C 
ATOM      6  C   UNL     1      -6.348  -5.644  -0.093  0.00  0.00    -0.010 C 
ATOM      7  C   UNL     1      -7.754  -6.233   0.057  0.00  0.00    -0.082 C 
ATOM      8  N   UNL     1      -7.785  -7.146   1.206  0.00  0.00    +0.379 N 
ATOM      9  C   UNL     1      -6.887  -8.282   0.966  0.00  0.00    -0.082 C 
ATOM     10  C   UNL     1      -5.444  -7.781   0.855  0.00  0.00    -0.010 C 
ATOM     11  C   UNL     1      -3.847  -8.925  -2.786  0.00  0.00    +0.219 C 
ATOM     12  O   UNL     1      -4.645  -9.812  -3.007  0.00  0.00    -0.275 OA
ATOM     13  H   UNL     1      -7.487  -6.652   2.034  0.00  0.00    -0.086 HD
ATOM     14  H   UNL     1      -8.726  -7.485   1.339  0.00  0.00    -0.086 HD
ENDROOT
BRANCH   1  16
ATOM     15  N   UNL     1      -3.766  -4.142   0.955  0.00  0.00    -0.315 N 
ATOM     16  C   UNL     1      -3.935  -4.714  -0.253  0.00  0.00    +0.218 C 
ATOM     17  O   UNL     1      -4.102  -4.021  -1.234  0.00  0.00    -0.275 OA
ATOM     18  H   UNL     1      -3.632  -4.696   1.740  0.00  0.00    +0.149 HD
BRANCH  15  19
ATOM     19  C   UNL     1      -3.783  -2.683   1.083  0.00  0.00    +0.102 C 
BRANCH  19  20
ATOM     20  C   UNL     1      -3.569  -2.297   2.549  0.00  0.00    +0.000 C 
BRANCH  20  21
ATOM     21  C   UNL     1      -3.587  -0.773   2.683  0.00  0.00    -0.078 C 
BRANCH  21  23
ATOM     22  C   UNL     1      -3.279   1.058   4.201  0.00  0.00    -0.097 C 
ATOM     23  N   UNL     1      -3.382  -0.403   4.090  0.00  0.00    +0.376 N 
ATOM     24  C   UNL     1      -4.518  -0.877   4.891  0.00  0.00    -0.097 C 
ATOM     25  H   UNL     1      -2.531  -0.827   4.428  0.00  0.00    -0.083 HD
ENDBRANCH  21  23
ENDBRANCH  20  21
ENDBRANCH  19  20
ENDBRANCH  15  19
ENDBRANCH   1  16
BRANCH  11  26
ATOM     26  C   UNL     1      -2.414  -9.074  -3.227  0.00  0.00    +0.075 C 
ATOM     27  C   UNL     1      -2.105  -8.379  -4.564  0.00  0.00    +0.013 C 
ATOM     28  C   UNL     1      -1.238  -9.602  -4.909  0.00  0.00    +0.001 C 
ATOM     29  C   UNL     1      -2.124 -10.405  -3.942  0.00  0.00    +0.013 C 
ENDBRANCH  11  26
TORSDOF 6
