REMARK  Name = ZINC38985169
REMARK  7 active torsions:
REMARK  status: ('A' for Active; 'I' for Inactive)
REMARK    1  A    between atoms: C_5  and  N_7
REMARK    2  A    between atoms: C_8  and  C_10
REMARK    3  A    between atoms: C_10  and  S_11
REMARK    4  A    between atoms: S_11  and  C_12
REMARK    5  A    between atoms: C_16  and  C_20
REMARK    6  A    between atoms: N_18  and  N_19
REMARK    7  A    between atoms: C_23  and  C_26
REMARK                            x       y       z     vdW  Elec       q    Type
REMARK                         _______ _______ _______ _____ _____    ______ ____
ROOT
ATOM      1  C   UNL     1      -1.366  -6.708   0.441  0.00  0.00    +0.214 C 
ATOM      2  N   UNL     1      -0.635  -7.210  -0.745  0.00  0.00    -0.228 NA
ATOM      3  N   UNL     1       0.769  -7.278  -0.310  0.00  0.00    -0.234 NA
ATOM      4  C   UNL     1       0.662  -7.739   1.099  0.00  0.00    +0.185 C 
ATOM      5  N   UNL     1      -0.541  -7.046   1.619  0.00  0.00    -0.197 NA
ATOM      6  H   UNL     1      -0.741  -6.583  -1.528  0.00  0.00    +0.143 HD
ATOM      7  H   UNL     1       1.289  -7.939  -0.868  0.00  0.00    +0.143 HD
ENDROOT
BRANCH   4   8
ATOM      8  C   UNL     1       1.904  -7.330   1.893  0.00  0.00    +0.187 C 
ATOM      9  C   UNL     1       3.157  -7.916   1.266  0.00  0.00    +0.034 C 
ATOM     10  C   UNL     1       3.660  -8.709   2.232  0.00  0.00    +0.091 C 
ATOM     11  N   UNL     1       2.871  -8.668   3.338  0.00  0.00    -0.154 NA
ATOM     12  N   UNL     1       1.884  -7.931   3.237  0.00  0.00    -0.176 NA
BRANCH  10  13
ATOM     13  C   UNL     1       4.899  -9.515   2.105  0.00  0.00    +0.002 A 
ATOM     14  C   UNL     1       5.638  -9.481   0.924  0.00  0.00    +0.013 A 
ATOM     15  C   UNL     1       6.790 -10.232   0.811  0.00  0.00    +0.039 A 
ATOM     16  C   UNL     1       7.212 -11.020   1.869  0.00  0.00    +0.123 A 
ATOM     17  C   UNL     1       6.480 -11.058   3.045  0.00  0.00    +0.039 A 
ATOM     18  C   UNL     1       5.331 -10.305   3.169  0.00  0.00    +0.013 A 
ATOM     19  F   UNL     1       8.340 -11.754   1.754  0.00  0.00    -0.205 F 
ENDBRANCH  10  13
ENDBRANCH   4   8
BRANCH   5  20
ATOM     20  N   UNL     1      -1.275  -7.896   2.543  0.00  0.00    -0.264 NA
ATOM     21  H   UNL     1      -2.112  -7.437   2.869  0.00  0.00    +0.137 HD
ATOM     22  H   UNL     1      -1.492  -8.786   2.120  0.00  0.00    +0.137 HD
ENDBRANCH   5  20
BRANCH   1  23
ATOM     23  S   UNL     1      -1.577  -4.910   0.325  0.00  0.00    -0.115 S 
BRANCH  23  24
ATOM     24  C   UNL     1       0.117  -4.277   0.192  0.00  0.00    +0.168 C 
BRANCH  24  26
ATOM     25  N   UNL     1       1.236  -2.081  -0.022  0.00  0.00    -0.283 N 
ATOM     26  C   UNL     1       0.085  -2.774   0.087  0.00  0.00    +0.227 C 
ATOM     27  O   UNL     1      -0.977  -2.187   0.102  0.00  0.00    -0.275 OA
ATOM     28  H   UNL     1       2.079  -2.552  -0.115  0.00  0.00    +0.155 HD
BRANCH  25  33
ATOM     29  C   UNL     1       0.153   1.372   0.637  0.00  0.00    +0.002 A 
ATOM     30  C   UNL     1       1.173   2.087   0.036  0.00  0.00    +0.003 A 
ATOM     31  C   UNL     1       2.214   1.423  -0.585  0.00  0.00    +0.040 A 
ATOM     32  C   UNL     1       2.239   0.040  -0.607  0.00  0.00    +0.144 A 
ATOM     33  C   UNL     1       1.215  -0.681  -0.002  0.00  0.00    +0.069 A 
ATOM     34  C   UNL     1       0.172  -0.009   0.620  0.00  0.00    +0.026 A 
ATOM     35  F   UNL     1       3.256  -0.609  -1.214  0.00  0.00    -0.204 F 
ENDBRANCH  25  33
ENDBRANCH  24  26
ENDBRANCH  23  24
ENDBRANCH   1  23
TORSDOF 7
