REMARK  Name = ZINC37169838
REMARK  4 active torsions:
REMARK  status: ('A' for Active; 'I' for Inactive)
REMARK    1  A    between atoms: N_3  and  C_10
REMARK    2  A    between atoms: C_10  and  C_12
REMARK    3  A    between atoms: C_10  and  C_14
REMARK    4  A    between atoms: C_12  and  N_13
REMARK                            x       y       z     vdW  Elec       q    Type
REMARK                         _______ _______ _______ _____ _____    ______ ____
ROOT
ATOM      1  C   UNL     1       3.603   2.122  -0.021  0.00  0.00    +0.178 C 
ENDROOT
BRANCH   1   4
ATOM      2  C   UNL     1       1.153  -0.637  -0.010  0.00  0.00    +0.088 A 
ATOM      3  C   UNL     1       2.328   0.030  -0.021  0.00  0.00    +0.096 A 
ATOM      4  N   UNL     1       2.330   1.398  -0.009  0.00  0.00    -0.291 N 
ATOM      5  C   UNL     1       1.173   2.085   0.013  0.00  0.00    +0.330 A 
ATOM      6  O   UNL     1       1.198   3.300   0.024  0.00  0.00    -0.246 OA
ATOM      7  N   UNL     1      -0.011   1.446   0.024  0.00  0.00    -0.275 N 
ATOM      8  H   UNL     1      -0.836   1.956   0.040  0.00  0.00    +0.173 HD
ATOM      9  C   UNL     1      -0.056   0.098   0.013  0.00  0.00    +0.254 A 
ATOM     10  O   UNL     1      -1.127  -0.481   0.023  0.00  0.00    -0.268 OA
ENDBRANCH   1   4
BRANCH   1  11
ATOM     11  C   UNL     1       4.362   1.840   1.278  0.00  0.00    +0.408 C 
ATOM     12  F   UNL     1       4.713   0.487   1.329  0.00  0.00    -0.169 F 
ATOM     13  F   UNL     1       5.519   2.624   1.321  0.00  0.00    -0.169 F 
ATOM     14  F   UNL     1       3.546   2.152   2.371  0.00  0.00    -0.169 F 
ENDBRANCH   1  11
BRANCH   1  15
ATOM     15  C   UNL     1       4.443   1.657  -1.213  0.00  0.00    -0.052 C 
BRANCH  15  16
ATOM     16  N   UNL     1       3.667   1.817  -2.450  0.00  0.00    +0.380 N 
ATOM     17  H   UNL     1       3.421   2.788  -2.570  0.00  0.00    -0.090 HD
ATOM     18  H   UNL     1       4.221   1.510  -3.236  0.00  0.00    -0.090 HD
ATOM     19  H   UNL     1       2.827   1.261  -2.394  0.00  0.00    -0.090 HD
ENDBRANCH  15  16
ENDBRANCH   1  15
TORSDOF 4
