REMARK  Name = ZINC51477139
REMARK  10 active torsions:
REMARK  status: ('A' for Active; 'I' for Inactive)
REMARK    1  A    between atoms: C_1  and  C_2
REMARK    2  A    between atoms: C_2  and  C_4
REMARK    3  A    between atoms: C_2  and  N_12
REMARK    4  A    between atoms: C_13  and  C_15
REMARK    5  A    between atoms: C_15  and  N_16
REMARK    6  A    between atoms: N_16  and  C_17
REMARK    7  A    between atoms: N_16  and  C_21
REMARK    8  A    between atoms: C_17  and  C_18
REMARK    9  A    between atoms: C_21  and  C_22
REMARK   10  A    between atoms: C_21  and  C_23
REMARK                            x       y       z     vdW  Elec       q    Type
REMARK                         _______ _______ _______ _____ _____    ______ ____
ROOT
ATOM      1  N   UNL     1       0.671  -0.346   1.122  0.00  0.00    -0.306 N 
ATOM      2  C   UNL     1       1.957  -0.731   1.245  0.00  0.00    +0.197 C 
ATOM      3  O   UNL     1       2.711  -0.638   0.300  0.00  0.00    -0.278 OA
ATOM      4  H   UNL     1       0.068  -0.420   1.878  0.00  0.00    +0.149 HD
ENDROOT
BRANCH   1   6
ATOM      5  C   UNL     1       0.487   1.682  -0.233  0.00  0.00    +0.038 C 
ATOM      6  C   UNL     1       0.185   0.184  -0.154  0.00  0.00    +0.156 C 
BRANCH   6   7
ATOM      7  C   UNL     1      -1.303  -0.034  -0.255  0.00  0.00    +0.236 C 
ATOM      8  O   UNL     1      -1.964  -0.176   0.752  0.00  0.00    -0.274 OA
ATOM      9  N   UNL     1      -1.899  -0.070  -1.463  0.00  0.00    -0.300 N 
ATOM     10  C   UNL     1      -1.099  -0.018  -2.694  0.00  0.00    +0.108 C 
ATOM     11  C   UNL     1      -1.476  -1.210  -3.578  0.00  0.00    +0.019 C 
ATOM     12  C   UNL     1      -2.989  -1.209  -3.811  0.00  0.00    +0.003 C 
ATOM     13  C   UNL     1      -3.713  -1.353  -2.471  0.00  0.00    +0.019 C 
ATOM     14  C   UNL     1      -3.361  -0.169  -1.574  0.00  0.00    +0.108 C 
ENDBRANCH   6   7
ENDBRANCH   1   6
BRANCH   2  15
ATOM     15  C   UNL     1       2.457  -1.277   2.558  0.00  0.00    +0.020 C 
BRANCH  15  16
ATOM     16  N   UNL     1       3.842  -1.741   2.399  0.00  0.00    +0.393 N 
ATOM     17  H   UNL     1       4.403  -0.999   2.009  0.00  0.00    -0.080 HD
BRANCH  16  18
ATOM     18  C   UNL     1       3.869  -2.901   1.498  0.00  0.00    -0.074 C 
ATOM     19  C   UNL     1       5.307  -3.403   1.356  0.00  0.00    -0.013 C 
ATOM     20  C   UNL     1       2.995  -4.016   2.076  0.00  0.00    -0.013 C 
ENDBRANCH  16  18
BRANCH  16  21
ATOM     21  C   UNL     1       4.382  -2.126   3.710  0.00  0.00    +0.019 C 
BRANCH  21  22
ATOM     22  C   UNL     1       5.888  -2.077   3.667  0.00  0.00    +0.194 C 
ATOM     23  O   UNL     1       6.452  -1.628   2.692  0.00  0.00    -0.278 OA
ATOM     24  N   UNL     1       6.607  -2.532   4.712  0.00  0.00    -0.331 N 
ATOM     25  H   UNL     1       6.156  -2.891   5.492  0.00  0.00    +0.145 HD
ATOM     26  H   UNL     1       7.576  -2.500   4.684  0.00  0.00    +0.145 HD
ENDBRANCH  21  22
ENDBRANCH  16  21
ENDBRANCH  15  16
ENDBRANCH   2  15
TORSDOF 7
