REMARK  Name = ZINC04268265
REMARK  10 active torsions:
REMARK  status: ('A' for Active; 'I' for Inactive)
REMARK    1  A    between atoms: C_4  and  O_17
REMARK    2  A    between atoms: C_10  and  O_16
REMARK    3  A    between atoms: C_13  and  C_14
REMARK    4  A    between atoms: C_14  and  O_15
REMARK    5  A    between atoms: O_17  and  C_18
REMARK    6  A    between atoms: C_20  and  O_33
REMARK    7  A    between atoms: C_22  and  O_32
REMARK    8  A    between atoms: C_24  and  O_31
REMARK    9  A    between atoms: C_26  and  C_29
REMARK   10  A    between atoms: C_29  and  O_30
REMARK                            x       y       z     vdW  Elec       q    Type
REMARK                         _______ _______ _______ _____ _____    ______ ____
ROOT
ATOM      1  O   UNL     1       4.079   1.497  -2.513  0.00  0.00    -0.309 OA
ENDROOT
BRANCH   1   5
ATOM      2  C   UNL     1       7.496   3.465  -3.594  0.00  0.00    +0.018 C 
ATOM      3  C   UNL     1       6.581   4.001  -2.833  0.00  0.00    +0.186 C 
ATOM      4  O   UNL     1       5.483   3.332  -2.462  0.00  0.00    -0.471 OA
ATOM      5  C   UNL     1       5.443   1.921  -2.550  0.00  0.00    +0.317 C 
ATOM      6  C   UNL     1       6.086   1.386  -3.818  0.00  0.00    +0.095 C 
ATOM      7  C   UNL     1       7.421   2.076  -4.126  0.00  0.00    +0.060 C 
ATOM      8  C   UNL     1       8.427   1.153  -3.404  0.00  0.00    +0.145 C 
ATOM      9  C   UNL     1       7.737  -0.194  -3.373  0.00  0.00    +0.006 C 
ATOM     10  C   UNL     1       6.442  -0.074  -3.609  0.00  0.00    -0.036 C 
BRANCH   8  11
ATOM     11  O   UNL     1       8.671   1.621  -2.076  0.00  0.00    -0.387 OA
ATOM     12  H   UNL     1       9.296   1.078  -1.577  0.00  0.00    +0.210 HD
ENDBRANCH   8  11
BRANCH  10  13
ATOM     13  C   UNL     1       5.455  -1.212  -3.663  0.00  0.00    +0.187 C 
BRANCH  13  14
ATOM     14  O   UNL     1       6.136  -2.445  -3.421  0.00  0.00    -0.391 OA
ATOM     15  H   UNL     1       5.561  -3.222  -3.441  0.00  0.00    +0.210 HD
ENDBRANCH  13  14
ENDBRANCH  10  13
ENDBRANCH   1   5
BRANCH   1  16
ATOM     16  C   UNL     1       3.395   1.845  -1.307  0.00  0.00    +0.286 C 
ATOM     17  C   UNL     1       2.038   1.137  -1.267  0.00  0.00    +0.201 C 
ATOM     18  C   UNL     1       1.286   1.562  -0.002  0.00  0.00    +0.179 C 
ATOM     19  C   UNL     1       1.147   3.087   0.008  0.00  0.00    +0.177 C 
ATOM     20  C   UNL     1       2.538   3.720  -0.082  0.00  0.00    +0.178 C 
ATOM     21  O   UNL     1       3.194   3.259  -1.265  0.00  0.00    -0.340 OA
BRANCH  19  22
ATOM     22  O   UNL     1       0.361   3.502  -1.111  0.00  0.00    -0.386 OA
ATOM     23  H   UNL     1      -0.533   3.134  -1.122  0.00  0.00    +0.210 HD
ENDBRANCH  19  22
BRANCH  18  24
ATOM     24  O   UNL     1      -0.011   0.963   0.007  0.00  0.00    -0.386 OA
ATOM     25  H   UNL     1       0.002  -0.004   0.002  0.00  0.00    +0.210 HD
ENDBRANCH  18  24
BRANCH  17  26
ATOM     26  O   UNL     1       1.276   1.500  -2.420  0.00  0.00    -0.384 OA
ATOM     27  H   UNL     1       1.693   1.260  -3.259  0.00  0.00    +0.210 HD
ENDBRANCH  17  26
BRANCH  20  28
ATOM     28  C   UNL     1       2.403   5.243  -0.133  0.00  0.00    +0.190 C 
BRANCH  28  29
ATOM     29  O   UNL     1       3.703   5.837  -0.099  0.00  0.00    -0.392 OA
ATOM     30  H   UNL     1       3.694   6.804  -0.129  0.00  0.00    +0.210 HD
ENDBRANCH  28  29
ENDBRANCH  20  28
ENDBRANCH   1  16
TORSDOF 10
