REMARK  Name = ZINC36093412
REMARK  5 active torsions:
REMARK  status: ('A' for Active; 'I' for Inactive)
REMARK    1  A    between atoms: C_5  and  C_6
REMARK    2  A    between atoms: N_8  and  C1*_15
REMARK    3  A    between atoms: C3*_18  and  O3*_25
REMARK    4  A    between atoms: C4*_20  and  C5*_23
REMARK    5  A    between atoms: C5*_23  and  O5*_24
REMARK                            x       y       z     vdW  Elec       q    Type
REMARK                         _______ _______ _______ _____ _____    ______ ____
ROOT
ATOM      1  C   UNL     1      -1.133  -0.951   0.008  0.00  0.00    +0.069 A 
ATOM      2  C   UNL     1      -1.361  -1.778  -1.054  0.00  0.00    +0.107 A 
ATOM      3  N   UNL     1      -2.419  -2.642  -1.017  0.00  0.00    -0.273 N 
ATOM      4  C   UNL     1      -3.242  -2.696   0.043  0.00  0.00    +0.331 A 
ATOM      5  O   UNL     1      -4.171  -3.481   0.030  0.00  0.00    -0.246 OA
ATOM      6  N   UNL     1      -3.068  -1.907   1.117  0.00  0.00    -0.274 N 
ATOM      7  H   UNL     1      -3.680  -1.971   1.867  0.00  0.00    +0.173 HD
ATOM      8  C   UNL     1      -2.043  -1.030   1.161  0.00  0.00    +0.262 A 
ATOM      9  O   UNL     1      -1.877  -0.317   2.133  0.00  0.00    -0.267 OA
ENDROOT
BRANCH   1  14
ATOM     10  C   UNL     1      -0.017   1.365   0.009  0.00  0.00    +0.017 A 
ATOM     11  C   UNL     1       1.184   2.044   0.002  0.00  0.00    +0.023 A 
ATOM     12  C   UNL     1       2.343   1.337  -0.013  0.00  0.00    +0.055 A 
ATOM     13  S   UNL     1       1.754  -0.348  -0.017  0.00  0.00    -0.081 S 
ATOM     14  C   UNL     1       0.002  -0.004   0.002  0.00  0.00    +0.027 A 
ATOM     15 BR   UNL     1       4.124   1.973  -0.027  0.00  0.00    -0.043 Br
ENDBRANCH   1  14
BRANCH   3  16
ATOM     16  C1* UNL     1      -2.661  -3.528  -2.159  0.00  0.00    +0.226 C 
ATOM     17  C2* UNL     1      -2.505  -5.010  -1.732  0.00  0.00    +0.088 C 
ATOM     18  C3* UNL     1      -3.388  -5.718  -2.795  0.00  0.00    +0.150 C 
ATOM     19  C4* UNL     1      -4.513  -4.686  -3.026  0.00  0.00    +0.175 C 
ATOM     20  O4* UNL     1      -4.021  -3.406  -2.605  0.00  0.00    -0.348 OA
BRANCH  18  21
ATOM     21  O3* UNL     1      -3.914  -6.944  -2.284  0.00  0.00    -0.389 OA
ATOM     22  H3* UNL     1      -3.238  -7.592  -2.043  0.00  0.00    +0.210 HD
ENDBRANCH  18  21
BRANCH  19  23
ATOM     23  C5* UNL     1      -4.878  -4.639  -4.511  0.00  0.00    +0.190 C 
BRANCH  23  24
ATOM     24  O5* UNL     1      -5.997  -3.769  -4.699  0.00  0.00    -0.392 OA
ATOM     25  H5* UNL     1      -6.284  -3.691  -5.619  0.00  0.00    +0.210 HD
ENDBRANCH  23  24
ENDBRANCH  19  23
ENDBRANCH   3  16
TORSDOF 5
