REMARK  Name = ZINC35315460
REMARK  6 active torsions:
REMARK  status: ('A' for Active; 'I' for Inactive)
REMARK    1  A    between atoms: C_3  and  C_8
REMARK    2  A    between atoms: C_14  and  N_17
REMARK    3  A    between atoms: N_17  and  C_18
REMARK    4  A    between atoms: C_18  and  C_19
REMARK    5  A    between atoms: C_19  and  C_20
REMARK    6  A    between atoms: C_20  and  N_21
REMARK                            x       y       z     vdW  Elec       q    Type
REMARK                         _______ _______ _______ _____ _____    ______ ____
ROOT
ATOM      1  C   UNL     1       3.660   2.168  -0.022  0.00  0.00    +0.095 A 
ATOM      2  C   UNL     1       4.941   1.609  -0.043  0.00  0.00    +0.078 A 
ATOM      3  C   UNL     1       5.854   2.653  -0.045  0.00  0.00    +0.158 A 
ATOM      4  N   UNL     1       7.194   2.682  -0.060  0.00  0.00    -0.232 NA
ATOM      5  C   UNL     1       7.853   3.822  -0.057  0.00  0.00    +0.050 A 
ATOM      6  C   UNL     1       7.157   5.032  -0.039  0.00  0.00    +0.014 A 
ATOM      7  C   UNL     1       5.788   5.021  -0.024  0.00  0.00    +0.127 A 
ATOM      8  N   UNL     1       5.132   3.819  -0.026  0.00  0.00    -0.200 N 
ATOM      9  N   UNL     1       3.773   3.484  -0.017  0.00  0.00    -0.163 NA
ATOM     10  C   UNL     1       8.137   6.183  -0.039  0.00  0.00    +0.041 C 
ATOM     11  C   UNL     1       9.488   5.566   0.382  0.00  0.00    +0.011 C 
ATOM     12  C   UNL     1       9.342   4.098  -0.071  0.00  0.00    +0.056 C 
ENDROOT
BRANCH   1  15
ATOM     13  C   UNL     1      -0.017   1.378   0.010  0.00  0.00    +0.003 A 
ATOM     14  C   UNL     1       1.168   2.088   0.002  0.00  0.00    +0.010 A 
ATOM     15  C   UNL     1       2.384   1.409  -0.013  0.00  0.00    +0.005 A 
ATOM     16  C   UNL     1       2.400   0.017  -0.021  0.00  0.00    +0.048 A 
ATOM     17  C   UNL     1       1.209  -0.685  -0.013  0.00  0.00    +0.124 A 
ATOM     18  C   UNL     1       0.002  -0.004   0.002  0.00  0.00    +0.038 A 
ATOM     19  F   UNL     1       1.221  -2.036  -0.021  0.00  0.00    -0.205 F 
ENDBRANCH   1  15
BRANCH   7  20
ATOM     20  N   UNL     1       5.080   6.203  -0.006  0.00  0.00    -0.329 N 
ATOM     21  H   UNL     1       5.552   7.051  -0.004  0.00  0.00    +0.147 HD
BRANCH  20  22
ATOM     22  C   UNL     1       3.615   6.180   0.011  0.00  0.00    +0.101 C 
BRANCH  22  23
ATOM     23  C   UNL     1       3.083   7.614   0.029  0.00  0.00    -0.001 C 
BRANCH  23  24
ATOM     24  C   UNL     1       1.553   7.590   0.045  0.00  0.00    -0.085 C 
BRANCH  24  25
ATOM     25  N   UNL     1       1.042   8.967   0.063  0.00  0.00    +0.378 N 
ATOM     26  H   UNL     1       1.380   9.441   0.887  0.00  0.00    -0.090 HD
ATOM     27  H   UNL     1       1.361   9.455  -0.761  0.00  0.00    -0.090 HD
ATOM     28  H   UNL     1       0.033   8.951   0.074  0.00  0.00    -0.090 HD
ENDBRANCH  24  25
ENDBRANCH  23  24
ENDBRANCH  22  23
ENDBRANCH  20  22
ENDBRANCH   7  20
TORSDOF 6
