REMARK  Name = ZINC61807257
REMARK  7 active torsions:
REMARK  status: ('A' for Active; 'I' for Inactive)
REMARK    1  A    between atoms: C_2  and  N_21
REMARK    2  A    between atoms: C_5  and  S_8
REMARK    3  A    between atoms: S_8  and  N_11
REMARK    4  A    between atoms: N_11  and  C_12
REMARK    5  A    between atoms: N_11  and  C_16
REMARK    6  A    between atoms: C_12  and  C_13
REMARK    7  A    between atoms: C_16  and  C_17
REMARK                            x       y       z     vdW  Elec       q    Type
REMARK                         _______ _______ _______ _____ _____    ______ ____
ROOT
ATOM      1  S   UNL     1       1.229  -2.443  -0.024  0.00  0.00    +0.064 S 
ATOM      2  O   UNL     1      -0.017  -2.860  -0.565  0.00  0.00    -0.153 OA
ATOM      3  O   UNL     1       2.474  -2.831  -0.589  0.00  0.00    -0.153 OA
ENDROOT
BRANCH   1   8
ATOM      4  C   UNL     1      -0.017   1.378   0.010  0.00  0.00    +0.044 A 
ATOM      5  C   UNL     1       1.177   2.088   0.002  0.00  0.00    +0.027 A 
ATOM      6  C   UNL     1       2.387   1.406  -0.013  0.00  0.00    +0.044 A 
ATOM      7  C   UNL     1       2.400   0.023  -0.021  0.00  0.00    +0.070 A 
ATOM      8  C   UNL     1       1.209  -0.681  -0.014  0.00  0.00    +0.142 A 
ATOM      9  C   UNL     1       0.002  -0.004   0.002  0.00  0.00    +0.070 A 
ATOM     10 CL   UNL     1      -1.490  -0.892   0.011  0.00  0.00    -0.081 Cl
ATOM     11 CL   UNL     1       3.912  -0.830  -0.040  0.00  0.00    -0.081 Cl
BRANCH   5  12
ATOM     12  N   UNL     1       1.161   3.484   0.009  0.00  0.00    -0.358 N 
ATOM     13  H   UNL     1       0.316   3.959   0.019  0.00  0.00    +0.142 HD
ATOM     14  H   UNL     1       1.996   3.979   0.004  0.00  0.00    +0.142 HD
ENDBRANCH   5  12
ENDBRANCH   1   8
BRANCH   1  15
ATOM     15  N   UNL     1       1.250  -2.941   1.555  0.00  0.00    -0.159 NA
BRANCH  15  16
ATOM     16  C   UNL     1      -0.010  -3.176   2.265  0.00  0.00    +0.205 C 
BRANCH  16  17
ATOM     17  C   UNL     1      -0.367  -4.638   2.184  0.00  0.00    +0.226 C 
ATOM     18  O   UNL     1       0.359  -5.408   1.592  0.00  0.00    -0.275 OA
ATOM     19  N   UNL     1      -1.494  -5.090   2.771  0.00  0.00    -0.328 N 
ATOM     20  H   UNL     1      -2.074  -4.475   3.244  0.00  0.00    +0.145 HD
ATOM     21  H   UNL     1      -1.723  -6.031   2.718  0.00  0.00    +0.145 HD
ENDBRANCH  16  17
ENDBRANCH  15  16
BRANCH  15  22
ATOM     22  C   UNL     1       2.527  -3.147   2.242  0.00  0.00    +0.205 C 
BRANCH  22  23
ATOM     23  C   UNL     1       2.893  -1.901   3.006  0.00  0.00    +0.226 C 
ATOM     24  O   UNL     1       2.159  -0.936   2.980  0.00  0.00    -0.275 OA
ATOM     25  N   UNL     1       4.036  -1.859   3.719  0.00  0.00    -0.328 N 
ATOM     26  H   UNL     1       4.623  -2.631   3.740  0.00  0.00    +0.145 HD
ATOM     27  H   UNL     1       4.272  -1.058   4.211  0.00  0.00    +0.145 HD
ENDBRANCH  22  23
ENDBRANCH  15  22
ENDBRANCH   1  15
TORSDOF 7
