REMARK  Name = ZINC39938501
REMARK  6 active torsions:
REMARK  status: ('A' for Active; 'I' for Inactive)
REMARK    1  A    between atoms: C_4  and  C_7
REMARK    2  A    between atoms: C_7  and  C_9
REMARK    3  A    between atoms: C_7  and  S_15
REMARK    4  A    between atoms: S_15  and  C_16
REMARK    5  A    between atoms: C_20  and  C_25
REMARK    6  A    between atoms: N_21  and  C_22
REMARK                            x       y       z     vdW  Elec       q    Type
REMARK                         _______ _______ _______ _____ _____    ______ ____
ROOT
ATOM      1  C   UNL     1       3.881  -0.358   2.822  0.00  0.00    +0.238 C 
ATOM      2  N   UNL     1       4.816   0.752   2.577  0.00  0.00    -0.237 N 
ATOM      3  N   UNL     1       4.034   1.895   2.376  0.00  0.00    -0.169 NA
ATOM      4  C   UNL     1       2.760   1.620   2.467  0.00  0.00    +0.147 C 
ATOM      5  N   UNL     1       2.548   0.263   2.741  0.00  0.00    -0.282 N 
ATOM      6  H   UNL     1       5.785   0.701   2.559  0.00  0.00    +0.171 HD
ENDROOT
BRANCH   4   7
ATOM      7  C   UNL     1       1.733   2.564   2.313  0.00  0.00    +0.022 C 
ATOM      8  C   UNL     1       1.874   3.932   2.076  0.00  0.00    +0.006 A 
ATOM      9  C   UNL     1       3.005   4.761   1.923  0.00  0.00    +0.010 A 
ATOM     10  C   UNL     1       2.841   6.090   1.694  0.00  0.00    +0.001 A 
ATOM     11  C   UNL     1       1.571   6.665   1.606  0.00  0.00    +0.002 A 
ATOM     12  C   UNL     1       0.441   5.928   1.744  0.00  0.00    +0.026 A 
ATOM     13  C   UNL     1       0.533   4.533   1.984  0.00  0.00    +0.043 A 
ATOM     14  N   UNL     1      -0.397   3.613   2.151  0.00  0.00    -0.380 N 
ATOM     15  C   UNL     1       0.242   2.311   2.363  0.00  0.00    +0.152 C 
ATOM     16  H   UNL     1      -1.353   3.773   2.131  0.00  0.00    +0.160 HD
ENDBRANCH   4   7
BRANCH   5  17
ATOM     17  C   UNL     1       1.258  -0.408   2.913  0.00  0.00    +0.078 C 
ATOM     18  C   UNL     1       0.939  -0.984   4.294  0.00  0.00    +0.024 C 
ATOM     19  C   UNL     1       1.272  -1.922   3.133  0.00  0.00    +0.024 C 
ENDBRANCH   5  17
BRANCH   1  20
ATOM     20  S   UNL     1       4.064  -1.635   1.547  0.00  0.00    -0.101 S 
BRANCH  20  21
ATOM     21  C   UNL     1       4.010  -0.710  -0.012  0.00  0.00    +0.166 C 
BRANCH  21  22
ATOM     22  C   UNL     1       4.473  -1.597  -1.139  0.00  0.00    +0.238 C 
ATOM     23  O   UNL     1       4.376  -2.802  -1.041  0.00  0.00    -0.274 OA
ATOM     24  N   UNL     1       4.996  -1.051  -2.255  0.00  0.00    -0.239 N 
ATOM     25  C   UNL     1       5.411  -1.845  -3.262  0.00  0.00    +0.303 C 
ATOM     26  O   UNL     1       5.314  -3.052  -3.164  0.00  0.00    -0.253 OA
ATOM     27  N   UNL     1       5.934  -1.299  -4.378  0.00  0.00    -0.313 N 
ATOM     28  H   UNL     1       5.074  -0.088  -2.333  0.00  0.00    +0.159 HD
ATOM     29  H   UNL     1       6.012  -0.335  -4.456  0.00  0.00    +0.146 HD
ATOM     30  H   UNL     1       6.233  -1.870  -5.103  0.00  0.00    +0.146 HD
ENDBRANCH  21  22
BRANCH  21  34
ATOM     31  C   UNL     1       0.006   0.574  -0.769  0.00  0.00    +0.000 A 
ATOM     32  C   UNL     1       1.044   1.486  -0.807  0.00  0.00    +0.000 A 
ATOM     33  C   UNL     1       2.339   1.071  -0.562  0.00  0.00    +0.005 A 
ATOM     34  C   UNL     1       2.597  -0.257  -0.279  0.00  0.00    -0.026 A 
ATOM     35  C   UNL     1       1.560  -1.170  -0.240  0.00  0.00    +0.005 A 
ATOM     36  C   UNL     1       0.264  -0.755  -0.487  0.00  0.00    +0.000 A 
ENDBRANCH  21  34
ENDBRANCH  20  21
ENDBRANCH   1  20
TORSDOF 6
