REMARK  Name = ZINC08448666
REMARK  12 active torsions:
REMARK  status: ('A' for Active; 'I' for Inactive)
REMARK    1  A    between atoms: C_1  and  C_2
REMARK    2  A    between atoms: C_2  and  O_3
REMARK    3  A    between atoms: O_3  and  C_4
REMARK    4  A    between atoms: C_4  and  C_6
REMARK    5  A    between atoms: C_7  and  C_23
REMARK    6  A    between atoms: C_9  and  N_22
REMARK    7  A    between atoms: C_10  and  C_20
REMARK    8  A    between atoms: C_11  and  C_13
REMARK    9  A    between atoms: C_23  and  S_24
REMARK   10  A    between atoms: S_24  and  C_25
REMARK   11  A    between atoms: C_26  and  C_35
REMARK   12  A    between atoms: C_34  and  N_60
REMARK                            x       y       z     vdW  Elec       q    Type
REMARK                         _______ _______ _______ _____ _____    ______ ____
ROOT
ATOM      1  C   UNL     1      -0.587   3.140   1.215  0.00  0.00    +0.088 C 
ATOM      2  C   UNL     1      -0.559   1.843   0.883  0.00  0.00    +0.128 C 
ATOM      3  O   UNL     1      -0.054   1.413  -0.281  0.00  0.00    -0.444 OA
ATOM      4  C   UNL     1       0.101   2.280  -1.296  0.00  0.00    +0.198 C 
ATOM      5  C   UNL     1       0.115   3.619  -1.095  0.00  0.00    +0.098 C 
ATOM      6  C   UNL     1      -0.041   4.191   0.288  0.00  0.00    +0.105 C 
ENDROOT
BRANCH   6   7
ATOM      7  C   UNL     1       1.302   4.654   0.792  0.00  0.00    -0.034 A 
ATOM      8  C   UNL     1       2.340   3.751   0.923  0.00  0.00    +0.006 A 
ATOM      9  C   UNL     1       3.573   4.176   1.381  0.00  0.00    +0.020 A 
ATOM     10  C   UNL     1       3.765   5.504   1.718  0.00  0.00    +0.041 A 
ATOM     11  C   UNL     1       2.724   6.407   1.592  0.00  0.00    +0.020 A 
ATOM     12  C   UNL     1       1.493   5.981   1.129  0.00  0.00    +0.006 A 
ATOM     13 CL   UNL     1       5.311   6.037   2.300  0.00  0.00    -0.084 Cl
ENDBRANCH   6   7
BRANCH   4  14
ATOM     14  N   UNL     1       0.243   1.794  -2.572  0.00  0.00    -0.328 N 
ATOM     15  H   UNL     1       0.352   2.408  -3.316  0.00  0.00    +0.145 HD
ATOM     16  H   UNL     1       0.236   0.838  -2.731  0.00  0.00    +0.145 HD
ENDBRANCH   4  14
BRANCH   1  17
ATOM     17  C   UNL     1      -1.139   3.528   2.460  0.00  0.00    +0.339 C 
ATOM     18  O   UNL     1      -1.200   2.728   3.374  0.00  0.00    -0.245 OA
BRANCH  17  19
ATOM     19  O   UNL     1      -1.598   4.785   2.632  0.00  0.00    -0.462 OA
BRANCH  19  21
ATOM     20  C   UNL     1      -2.606   6.566   3.918  0.00  0.00    +0.048 C 
ATOM     21  C   UNL     1      -2.142   5.108   3.913  0.00  0.00    +0.229 C 
ENDBRANCH  19  21
ENDBRANCH  17  19
ENDBRANCH   1  17
BRANCH   5  22
ATOM     22  C   UNL     1       0.279   4.501  -2.212  0.00  0.00    +0.101 C 
ATOM     23  N   UNL     1       0.410   5.200  -3.098  0.00  0.00    -0.191 NA
ENDBRANCH   5  22
BRANCH   2  24
ATOM     24  C   UNL     1      -1.122   0.833   1.849  0.00  0.00    +0.150 C 
BRANCH  24  25
ATOM     25  S   UNL     1       0.236  -0.029   2.679  0.00  0.00    -0.097 S 
BRANCH  25  26
ATOM     26  C   UNL     1      -0.682  -1.117   3.718  0.00  0.00    +0.115 A 
ATOM     27  C   UNL     1      -0.006  -2.011   4.569  0.00  0.00    +0.084 A 
ATOM     28  C   UNL     1      -0.762  -2.858   5.382  0.00  0.00    +0.025 A 
ATOM     29  C   UNL     1      -2.147  -2.792   5.311  0.00  0.00    -0.041 A 
ATOM     30  C   UNL     1      -2.741  -1.891   4.450  0.00  0.00    +0.042 A 
ATOM     31  N   UNL     1      -2.003  -1.094   3.692  0.00  0.00    -0.244 NA
ATOM     32  C   UNL     1      -4.242  -1.779   4.346  0.00  0.00    +0.037 C 
ATOM     33  C   UNL     1      -4.902  -3.020   4.947  0.00  0.00    -0.073 C 
ATOM     34  C   UNL     1      -2.954  -3.718   6.181  0.00  0.00    -0.042 C 
ATOM     35  C   UNL     1      -5.161  -4.195   7.051  0.00  0.00    -0.096 C 
ATOM     36  N   UNL     1      -4.337  -3.224   6.295  0.00  0.00    +0.381 N 
ATOM     37  H   UNL     1      -4.334  -2.328   6.796  0.00  0.00    -0.082 HD
BRANCH  27  38
ATOM     38  C   UNL     1       1.425  -2.047   4.604  0.00  0.00    +0.102 C 
ATOM     39  N   UNL     1       2.560  -2.076   4.632  0.00  0.00    -0.191 NA
ENDBRANCH  27  38
ENDBRANCH  25  26
ENDBRANCH  24  25
ENDBRANCH   2  24
TORSDOF 10
