REMARK  Name = ZINC38545730
REMARK  12 active torsions:
REMARK  status: ('A' for Active; 'I' for Inactive)
REMARK    1  A    between atoms: C_1  and  C_2
REMARK    2  A    between atoms: C_2  and  C_3
REMARK    3  A    between atoms: C_5  and  C_27
REMARK    4  A    between atoms: C_6  and  O_26
REMARK    5  A    between atoms: C_8  and  O_9
REMARK    6  A    between atoms: O_9  and  C_10
REMARK    7  A    between atoms: C_12  and  O_25
REMARK    8  A    between atoms: C_14  and  O_24
REMARK    9  A    between atoms: C_16  and  O_23
REMARK   10  A    between atoms: C_18  and  C_21
REMARK   11  A    between atoms: C_21  and  O_22
REMARK   12  A    between atoms: C_29  and  C_33
REMARK                            x       y       z     vdW  Elec       q    Type
REMARK                         _______ _______ _______ _____ _____    ______ ____
ROOT
ATOM      1  C   UNL     1      -1.412  -0.526   0.013  0.00  0.00    -0.005 A 
ATOM      2  C   UNL     1      -2.014  -0.864   1.210  0.00  0.00    +0.016 A 
ATOM      3  C   UNL     1      -3.310  -1.342   1.223  0.00  0.00    +0.023 A 
ATOM      4  C   UNL     1      -4.010  -1.484   0.033  0.00  0.00    +0.126 A 
ATOM      5  C   UNL     1      -3.409  -1.146  -1.169  0.00  0.00    +0.091 A 
ATOM      6  C   UNL     1      -2.110  -0.661  -1.179  0.00  0.00    +0.131 A 
ENDROOT
BRANCH   3   7
ATOM      7  C   UNL     1      -3.963  -1.710   2.530  0.00  0.00    +0.164 C 
ATOM      8  C   UNL     1      -4.836  -0.573   3.034  0.00  0.00    +0.008 C 
ATOM      9  C   UNL     1      -4.268  -0.236   4.217  0.00  0.00    +0.139 C 
ATOM     10  N   UNL     1      -3.204  -1.008   4.465  0.00  0.00    -0.185 NA
ATOM     11  N   UNL     1      -2.956  -1.852   3.595  0.00  0.00    -0.297 N 
ATOM     12  H   UNL     1      -2.228  -2.493   3.610  0.00  0.00    +0.183 HD
BRANCH   8  13
ATOM     13  C   UNL     1      -6.017   0.020   2.390  0.00  0.00    -0.014 A 
ATOM     14  C   UNL     1      -7.177  -0.742   2.212  0.00  0.00    +0.012 A 
ATOM     15  C   UNL     1      -8.282  -0.183   1.609  0.00  0.00    +0.050 A 
ATOM     16  C   UNL     1      -8.251   1.137   1.177  0.00  0.00    +0.166 A 
ATOM     17  C   UNL     1      -7.098   1.903   1.352  0.00  0.00    +0.167 A 
ATOM     18  C   UNL     1      -5.987   1.351   1.960  0.00  0.00    +0.058 A 
ATOM     19  O   UNL     1      -7.324   3.151   0.847  0.00  0.00    -0.453 OA
ATOM     20  C   UNL     1      -8.478   3.018  -0.004  0.00  0.00    +0.466 C 
ATOM     21  O   UNL     1      -9.196   1.906   0.564  0.00  0.00    -0.453 OA
ENDBRANCH   8  13
ENDBRANCH   3   7
BRANCH   1  23
ATOM     22  C   UNL     1      -0.019   1.526   0.010  0.00  0.00    +0.009 C 
ATOM     23  C   UNL     1       0.002  -0.004   0.002  0.00  0.00    +0.035 C 
ENDBRANCH   1  23
BRANCH   4  24
ATOM     24  O   UNL     1      -5.285  -1.956   0.047  0.00  0.00    -0.506 OA
ATOM     25  H   UNL     1      -5.958  -1.266   0.131  0.00  0.00    +0.292 HD
ENDBRANCH   4  24
BRANCH   6  26
ATOM     26  O   UNL     1      -1.519  -0.323  -2.355  0.00  0.00    -0.460 OA
BRANCH  26  27
ATOM     27  C   UNL     1      -2.297  -0.488  -3.542  0.00  0.00    +0.339 C 
ATOM     28  C   UNL     1      -1.401  -0.300  -4.770  0.00  0.00    +0.214 C 
ATOM     29  C   UNL     1      -2.253  -0.418  -6.037  0.00  0.00    +0.180 C 
ATOM     30  C   UNL     1      -3.383   0.615  -5.978  0.00  0.00    +0.177 C 
ATOM     31  C   UNL     1      -4.202   0.391  -4.704  0.00  0.00    +0.179 C 
ATOM     32  O   UNL     1      -3.344   0.484  -3.565  0.00  0.00    -0.331 OA
BRANCH  30  33
ATOM     33  O   UNL     1      -2.826   1.931  -5.965  0.00  0.00    -0.386 OA
ATOM     34  H   UNL     1      -2.290   2.139  -6.742  0.00  0.00    +0.210 HD
ENDBRANCH  30  33
BRANCH  29  35
ATOM     35  O   UNL     1      -1.439  -0.173  -7.185  0.00  0.00    -0.386 OA
ATOM     36  H   UNL     1      -0.699  -0.788  -7.281  0.00  0.00    +0.210 HD
ENDBRANCH  29  35
BRANCH  28  37
ATOM     37  O   UNL     1      -0.387  -1.306  -4.779  0.00  0.00    -0.383 OA
ATOM     38  H   UNL     1       0.189  -1.292  -4.002  0.00  0.00    +0.210 HD
ENDBRANCH  28  37
BRANCH  31  39
ATOM     39  C   UNL     1      -5.296   1.456  -4.608  0.00  0.00    +0.190 C 
BRANCH  39  40
ATOM     40  O   UNL     1      -6.132   1.180  -3.482  0.00  0.00    -0.392 OA
ATOM     41  H   UNL     1      -6.850   1.816  -3.360  0.00  0.00    +0.210 HD
ENDBRANCH  39  40
ENDBRANCH  31  39
ENDBRANCH  26  27
ENDBRANCH   6  26
TORSDOF 11
