REMARK  Name = ZINC63383573
REMARK  11 active torsions:
REMARK  status: ('A' for Active; 'I' for Inactive)
REMARK    1  A    between atoms: C_1  and  C_2
REMARK    2  A    between atoms: C_2  and  C_3
REMARK    3  A    between atoms: C_2  and  C_4
REMARK    4  A    between atoms: C_4  and  C_5
REMARK    5  A    between atoms: C_5  and  C_7
REMARK    6  A    between atoms: C_5  and  N_14
REMARK    7  A    between atoms: N_9  and  C_10
REMARK    8  A    between atoms: C_10  and  C_11
REMARK    9  A    between atoms: C_11  and  C_12
REMARK   10  A    between atoms: C_11  and  C_13
REMARK   11  A    between atoms: C_15  and  C_17
REMARK                            x       y       z     vdW  Elec       q    Type
REMARK                         _______ _______ _______ _____ _____    ______ ____
ROOT
ATOM      1  C   UNL     1      -1.214   3.253  -2.528  0.00  0.00    +0.167 C 
ATOM      2  C   UNL     1      -1.309   3.483  -4.049  0.00  0.00    +0.065 C 
ATOM      3  C   UNL     1      -0.104   4.298  -4.448  0.00  0.00    -0.034 C 
ATOM      4  C   UNL     1       0.799   4.093  -5.403  0.00  0.00    -0.001 A 
ATOM      5  C   UNL     1       0.890   3.071  -6.458  0.00  0.00    +0.010 A 
ATOM      6  C   UNL     1       1.976   3.146  -7.272  0.00  0.00    +0.001 A 
ATOM      7  C   UNL     1       2.969   4.123  -7.143  0.00  0.00    +0.002 A 
ATOM      8  C   UNL     1       2.961   5.104  -6.206  0.00  0.00    +0.026 A 
ATOM      9  C   UNL     1       1.864   5.135  -5.296  0.00  0.00    +0.043 A 
ATOM     10  N   UNL     1       1.595   5.961  -4.330  0.00  0.00    -0.375 N 
ATOM     11  C   UNL     1       0.308   5.583  -3.744  0.00  0.00    +0.131 C 
ATOM     12  C   UNL     1       0.427   5.267  -2.254  0.00  0.00    +0.134 C 
ATOM     13  N   UNL     1       0.037   3.857  -2.053  0.00  0.00    -0.276 N 
ATOM     14  C   UNL     1       1.024   3.232  -1.384  0.00  0.00    +0.248 C 
ATOM     15  O   UNL     1       0.966   2.094  -0.958  0.00  0.00    -0.270 OA
ATOM     16  C   UNL     1       2.179   4.121  -1.244  0.00  0.00    +0.042 A 
ATOM     17  C   UNL     1       1.836   5.392  -1.777  0.00  0.00    -0.013 A 
ATOM     18  C   UNL     1       2.722   6.446  -1.790  0.00  0.00    +0.006 A 
ATOM     19  C   UNL     1       3.983   6.218  -1.247  0.00  0.00    +0.000 A 
ATOM     20  C   UNL     1       4.336   4.994  -0.715  0.00  0.00    +0.001 A 
ATOM     21  C   UNL     1       3.444   3.896  -0.696  0.00  0.00    +0.013 A 
ATOM     22  H   UNL     1       2.153   6.702  -4.045  0.00  0.00    +0.160 HD
ENDROOT
BRANCH   1  24
ATOM     23  N   UNL     1      -2.249   1.210  -1.592  0.00  0.00    -0.302 N 
ATOM     24  C   UNL     1      -1.208   1.774  -2.236  0.00  0.00    +0.235 C 
ATOM     25  O   UNL     1      -0.266   1.092  -2.580  0.00  0.00    -0.274 OA
ATOM     26  H   UNL     1      -3.034   1.741  -1.381  0.00  0.00    +0.150 HD
BRANCH  23  27
ATOM     27  C   UNL     1      -2.196  -0.203  -1.211  0.00  0.00    +0.159 C 
BRANCH  27  28
ATOM     28  C   UNL     1      -3.593  -0.767  -1.179  0.00  0.00    +0.233 C 
ATOM     29  O   UNL     1      -4.546  -0.022  -1.097  0.00  0.00    -0.274 OA
ATOM     30  N   UNL     1      -3.783  -2.100  -1.243  0.00  0.00    -0.314 N 
ATOM     31  H   UNL     1      -3.020  -2.700  -1.238  0.00  0.00    +0.149 HD
BRANCH  30  32
ATOM     32  C   UNL     1      -5.141  -2.644  -1.320  0.00  0.00    +0.107 C 
BRANCH  32  33
ATOM     33  C   UNL     1      -5.077  -4.171  -1.381  0.00  0.00    -0.000 C 
ATOM     34  C   UNL     1      -4.498  -4.711  -0.072  0.00  0.00    +0.009 C 
ATOM     35  C   UNL     1      -6.485  -4.733  -1.587  0.00  0.00    +0.009 C 
ENDBRANCH  32  33
ENDBRANCH  30  32
ENDBRANCH  27  28
BRANCH  27  36
ATOM     36  C   UNL     1      -1.562  -0.334   0.175  0.00  0.00    +0.034 C 
BRANCH  36  38
ATOM     37  C   UNL     1      -0.349  -2.435  -0.422  0.00  0.00    +0.007 C 
ATOM     38  C   UNL     1      -1.385  -1.815   0.517  0.00  0.00    -0.015 C 
ATOM     39  C   UNL     1      -0.908  -1.951   1.964  0.00  0.00    +0.007 C 
ENDBRANCH  36  38
ENDBRANCH  27  36
ENDBRANCH  23  27
ENDBRANCH   1  24
TORSDOF 7
