REMARK  Name = ZINC61595108
REMARK  9 active torsions:
REMARK  status: ('A' for Active; 'I' for Inactive)
REMARK    1  A    between atoms: C_1  and  C_2
REMARK    2  A    between atoms: C_2  and  C_4
REMARK    3  A    between atoms: C_2  and  N_23
REMARK    4  A    between atoms: C_4  and  C_6
REMARK    5  A    between atoms: C_4  and  S_12
REMARK    6  A    between atoms: S_12  and  C_13
REMARK    7  A    between atoms: N_19  and  C_20
REMARK    8  A    between atoms: C_20  and  C_21
REMARK    9  A    between atoms: C_20  and  C_22
REMARK                            x       y       z     vdW  Elec       q    Type
REMARK                         _______ _______ _______ _____ _____    ______ ____
ROOT
ATOM      1  C   UNL     1       0.665  -0.522   1.136  0.00  0.00    +0.076 C 
ENDROOT
BRANCH   1   2
ATOM      2  C   UNL     1      -0.001   0.025   2.372  0.00  0.00    +0.003 A 
ATOM      3  C   UNL     1       0.519   0.816   3.343  0.00  0.00    +0.027 A 
ATOM      4  C   UNL     1      -0.287   1.200   4.398  0.00  0.00    +0.025 A 
ATOM      5  C   UNL     1      -1.574   0.773   4.431  0.00  0.00    +0.060 A 
ATOM      6  S   UNL     1      -1.681  -0.195   2.934  0.00  0.00    -0.099 S 
ATOM      7 BR   UNL     1       0.394   2.302   5.775  0.00  0.00    -0.050 Br
ENDBRANCH   1   2
BRANCH   1   9
ATOM      8  C   UNL     1      -1.480  -0.613  -0.143  0.00  0.00    -0.013 C 
ATOM      9  C   UNL     1      -0.071  -0.016  -0.106  0.00  0.00    -0.060 C 
BRANCH   9  10
ATOM     10  N   UNL     1      -0.162   1.450  -0.059  0.00  0.00    +0.381 N 
ATOM     11  H   UNL     1      -0.610   1.731   0.800  0.00  0.00    -0.090 HD
ATOM     12  H   UNL     1       0.766   1.845  -0.099  0.00  0.00    -0.090 HD
ATOM     13  H   UNL     1      -0.702   1.779  -0.845  0.00  0.00    -0.090 HD
ENDBRANCH   9  10
ENDBRANCH   1   9
BRANCH   1  14
ATOM     14  S   UNL     1       0.614  -2.335   1.173  0.00  0.00    -0.079 S 
BRANCH  14  15
ATOM     15  C   UNL     1       1.620  -2.818  -0.191  0.00  0.00    +0.193 A 
ATOM     16  N   UNL     1       2.172  -2.011  -1.051  0.00  0.00    -0.145 NA
ATOM     17  N   UNL     1       2.887  -2.784  -1.975  0.00  0.00    -0.226 N 
ATOM     18  H   UNL     1       3.399  -2.451  -2.729  0.00  0.00    +0.194 HD
ATOM     19  C   UNL     1       2.733  -4.078  -1.624  0.00  0.00    +0.345 A 
ATOM     20  O   UNL     1       3.211  -5.041  -2.196  0.00  0.00    -0.245 OA
ATOM     21  N   UNL     1       1.958  -4.111  -0.521  0.00  0.00    -0.268 N 
BRANCH  21  22
ATOM     22  C   UNL     1       1.543  -5.316   0.200  0.00  0.00    +0.088 C 
ATOM     23  C   UNL     1       0.748  -6.225  -0.740  0.00  0.00    +0.031 C 
ATOM     24  C   UNL     1       2.781  -6.061   0.703  0.00  0.00    +0.031 C 
ENDBRANCH  21  22
ENDBRANCH  14  15
ENDBRANCH   1  14
TORSDOF 6
