REMARK  Name = ZINC32644036
REMARK  13 active torsions:
REMARK  status: ('A' for Active; 'I' for Inactive)
REMARK    1  A    between atoms: C_1  and  C_2
REMARK    2  A    between atoms: C_2  and  C_38
REMARK    3  A    between atoms: C_4  and  N_11
REMARK    4  A    between atoms: C_6  and  C_9
REMARK    5  A    between atoms: C_6  and  C_10
REMARK    6  A    between atoms: N_7  and  C_8
REMARK    7  A    between atoms: C_12  and  C_14
REMARK    8  A    between atoms: N_24  and  S_25
REMARK    9  A    between atoms: S_25  and  C_28
REMARK   10  A    between atoms: C_30  and  O_36
REMARK   11  A    between atoms: C_33  and  O_34
REMARK   12  A    between atoms: O_34  and  C_35
REMARK   13  A    between atoms: O_36  and  C_37
REMARK                            x       y       z     vdW  Elec       q    Type
REMARK                         _______ _______ _______ _____ _____    ______ ____
ROOT
ATOM      1  C   UNL     1      -3.449   1.803   4.747  0.00  0.00    +0.170 C 
ATOM      2  C   UNL     1      -2.716   3.068   5.191  0.00  0.00    +0.065 C 
ATOM      3  C   UNL     1      -3.075   3.425   6.610  0.00  0.00    -0.041 A 
ATOM      4  C   UNL     1      -2.852   4.734   7.021  0.00  0.00    +0.004 A 
ATOM      5  C   UNL     1      -3.149   5.125   8.310  0.00  0.00    +0.000 A 
ATOM      6  C   UNL     1      -3.673   4.208   9.203  0.00  0.00    +0.000 A 
ATOM      7  C   UNL     1      -3.899   2.909   8.796  0.00  0.00    +0.005 A 
ATOM      8  C   UNL     1      -3.605   2.516   7.498  0.00  0.00    -0.028 A 
ATOM      9  C   UNL     1      -3.900   1.089   7.111  0.00  0.00    +0.145 C 
ATOM     10  N   UNL     1      -3.294   0.794   5.808  0.00  0.00    -0.160 NA
ENDROOT
BRANCH   1  12
ATOM     11  N   UNL     1      -3.612   0.614   2.584  0.00  0.00    -0.311 N 
ATOM     12  C   UNL     1      -2.847   1.290   3.464  0.00  0.00    +0.232 C 
ATOM     13  O   UNL     1      -1.675   1.485   3.223  0.00  0.00    -0.274 OA
ATOM     14  H   UNL     1      -4.690   0.496   2.769  0.00  0.00    +0.149 HD
BRANCH  11  18
ATOM     15  C   UNL     1      -0.650   0.206  -0.652  0.00  0.00    -0.010 C 
ATOM     16  C   UNL     1      -2.118   0.570  -0.905  0.00  0.00    -0.069 C 
ATOM     17  C   UNL     1      -2.728   1.147   0.370  0.00  0.00    +0.010 C 
ATOM     18  C   UNL     1      -3.007   0.034   1.379  0.00  0.00    +0.070 C 
ATOM     19  C   UNL     1      -3.987  -0.956   0.750  0.00  0.00    +0.010 C 
ATOM     20  C   UNL     1      -3.390  -1.561  -0.519  0.00  0.00    -0.069 C 
ATOM     21  N   UNL     1      -2.856  -0.563  -1.422  0.00  0.00    +0.385 N 
ATOM     22  C   UNL     1      -2.200  -1.167  -2.589  0.00  0.00    -0.095 C 
ATOM     23  C   UNL     1      -4.521  -2.318  -1.250  0.00  0.00    -0.010 C 
ATOM     24  C   UNL     1      -2.322  -2.594  -0.141  0.00  0.00    -0.010 C 
ATOM     25  C   UNL     1      -2.134   1.685  -1.974  0.00  0.00    -0.010 C 
ATOM     26  H   UNL     1      -3.792  -0.054  -1.698  0.00  0.00    -0.081 HD
ENDBRANCH  11  18
ENDBRANCH   1  12
BRANCH  10  27
ATOM     27  S   UNL     1      -2.469  -0.617   5.542  0.00  0.00    +0.065 S 
ATOM     28  O   UNL     1      -1.612  -0.383   4.433  0.00  0.00    -0.153 OA
ATOM     29  O   UNL     1      -1.980  -1.046   6.805  0.00  0.00    -0.153 OA
BRANCH  27  30
ATOM     30  C   UNL     1      -3.647  -1.819   5.022  0.00  0.00    +0.150 A 
ATOM     31  C   UNL     1      -3.561  -2.371   3.759  0.00  0.00    +0.077 A 
ATOM     32  C   UNL     1      -4.488  -3.317   3.350  0.00  0.00    +0.122 A 
ATOM     33  C   UNL     1      -5.503  -3.711   4.211  0.00  0.00    +0.049 A 
ATOM     34  C   UNL     1      -5.589  -3.160   5.474  0.00  0.00    +0.051 A 
ATOM     35  C   UNL     1      -4.659  -2.217   5.885  0.00  0.00    +0.147 A 
BRANCH  35  36
ATOM     36  O   UNL     1      -4.740  -1.678   7.130  0.00  0.00    -0.493 OA
ATOM     37  C   UNL     1      -5.741  -2.208   8.002  0.00  0.00    +0.277 C 
ENDBRANCH  35  36
BRANCH  32  38
ATOM     38  O   UNL     1      -4.403  -3.860   2.107  0.00  0.00    -0.495 OA
ATOM     39  C   UNL     1      -5.391  -4.830   1.752  0.00  0.00    +0.277 C 
ENDBRANCH  32  38
ENDBRANCH  27  30
ENDBRANCH  10  27
TORSDOF 6
