REMARK  Name = ZINC48895965
REMARK  7 active torsions:
REMARK  status: ('A' for Active; 'I' for Inactive)
REMARK    1  A    between atoms: C_4  and  O_8
REMARK    2  A    between atoms: C_5  and  N_7
REMARK    3  A    between atoms: O_8  and  C_9
REMARK    4  A    between atoms: C_9  and  C_10
REMARK    5  A    between atoms: C_10  and  C_12
REMARK    6  A    between atoms: C_10  and  O_20
REMARK    7  A    between atoms: C_12  and  N_13
REMARK                            x       y       z     vdW  Elec       q    Type
REMARK                         _______ _______ _______ _____ _____    ______ ____
ROOT
ATOM      1  C   UNL     1       6.008  -0.735  -0.152  0.00  0.00    +0.135 C 
ENDROOT
BRANCH   1   2
ATOM      2  O   UNL     1       6.024  -1.550   1.021  0.00  0.00    -0.390 OA
ATOM      3  H   UNL     1       6.058  -1.050   1.848  0.00  0.00    +0.210 HD
ENDBRANCH   1   2
BRANCH   1   4
ATOM      4  C   UNL     1       4.778   0.175  -0.124  0.00  0.00    +0.258 C 
BRANCH   4   5
ATOM      5  O   UNL     1       3.594  -0.622  -0.201  0.00  0.00    -0.488 OA
BRANCH   5   9
ATOM      6  C   UNL     1      -0.019   1.380  -0.162  0.00  0.00    +0.002 A 
ATOM      7  C   UNL     1       1.166   2.087  -0.089  0.00  0.00    +0.004 A 
ATOM      8  C   UNL     1       2.377   1.419  -0.102  0.00  0.00    +0.047 A 
ATOM      9  C   UNL     1       2.404   0.037  -0.188  0.00  0.00    +0.141 A 
ATOM     10  C   UNL     1       1.210  -0.677  -0.261  0.00  0.00    +0.067 A 
ATOM     11  C   UNL     1      -0.001   0.000  -0.247  0.00  0.00    +0.026 A 
BRANCH  10  12
ATOM     12  N   UNL     1       1.232  -2.074  -0.348  0.00  0.00    -0.355 N 
ATOM     13  H   UNL     1       2.079  -2.546  -0.358  0.00  0.00    +0.142 HD
ATOM     14  H   UNL     1       0.400  -2.570  -0.399  0.00  0.00    +0.142 HD
ENDBRANCH  10  12
ENDBRANCH   5   9
ENDBRANCH   4   5
ENDBRANCH   1   4
BRANCH   1  15
ATOM     15  C   UNL     1       7.275   0.122  -0.194  0.00  0.00    -0.044 C 
BRANCH  15  16
ATOM     16  N   UNL     1       8.456  -0.751  -0.211  0.00  0.00    +0.382 N 
ATOM     17  C   UNL     1       9.639   0.074   0.057  0.00  0.00    -0.078 C 
ATOM     18  C   UNL     1      10.503  -0.779   0.975  0.00  0.00    -0.008 C 
ATOM     19  C   UNL     1      11.716  -1.283   0.158  0.00  0.00    +0.067 C 
ATOM     20  S   UNL     1      11.189  -1.697  -1.539  0.00  0.00    -0.163 S 
ATOM     21  C   UNL     1       9.593  -2.512  -1.413  0.00  0.00    +0.050 C 
ATOM     22  C   UNL     1       8.461  -1.454  -1.416  0.00  0.00    -0.068 C 
ATOM     23  H   UNL     1       8.363  -1.417   0.541  0.00  0.00    -0.082 HD
ENDBRANCH  15  16
ENDBRANCH   1  15
TORSDOF 7
