REMARK  Name = ZINC14276567
REMARK  8 active torsions:
REMARK  status: ('A' for Active; 'I' for Inactive)
REMARK    1  A    between atoms: C_1  and  C_2
REMARK    2  A    between atoms: C_5  and  C_9
REMARK    3  A    between atoms: C_12  and  C_14
REMARK    4  A    between atoms: N_16  and  C_17
REMARK    5  A    between atoms: C_17  and  N_19
REMARK    6  A    between atoms: N_19  and  C_20
REMARK    7  A    between atoms: C_21  and  C_31
REMARK    8  A    between atoms: C_26  and  C_30
REMARK                            x       y       z     vdW  Elec       q    Type
REMARK                         _______ _______ _______ _____ _____    ______ ____
ROOT
ATOM      1  C   UNL     1       5.894   1.104   4.066  0.00  0.00    +0.142 C 
ATOM      2  S   UNL     1       6.281   1.522   2.452  0.00  0.00    -0.018 S 
ENDROOT
BRANCH   1   5
ATOM      3  C   UNL     1       8.156   1.193   4.632  0.00  0.00    +0.285 C 
ATOM      4  O   UNL     1       8.432   1.490   3.484  0.00  0.00    -0.266 OA
ATOM      5  N   UNL     1       6.873   0.984   4.984  0.00  0.00    -0.261 N 
ATOM      6  H   UNL     1       6.653   0.748   5.899  0.00  0.00    +0.157 HD
BRANCH   3  10
ATOM      7  C   UNL     1      10.249   0.715   7.540  0.00  0.00    +0.136 A 
ATOM      8  C   UNL     1      11.214   1.025   6.625  0.00  0.00    +0.050 A 
ATOM      9  C   UNL     1      10.568   1.248   5.405  0.00  0.00    +0.055 A 
ATOM     10  C   UNL     1       9.220   1.063   5.630  0.00  0.00    +0.190 A 
ATOM     11  O   UNL     1       9.052   0.746   6.931  0.00  0.00    -0.450 OA
BRANCH   7  16
ATOM     12  C   UNL     1      11.154  -0.503  13.091  0.00  0.00    +0.045 C 
ATOM     13  C   UNL     1      10.918  -0.184  11.637  0.00  0.00    -0.032 A 
ATOM     14  C   UNL     1       9.630  -0.191  11.131  0.00  0.00    +0.005 A 
ATOM     15  C   UNL     1       9.405   0.100   9.802  0.00  0.00    +0.012 A 
ATOM     16  C   UNL     1      10.482   0.403   8.965  0.00  0.00    +0.019 A 
ATOM     17  C   UNL     1      11.780   0.403   9.479  0.00  0.00    +0.031 A 
ATOM     18  C   UNL     1      11.990   0.115  10.813  0.00  0.00    +0.045 A 
ATOM     19 CL   UNL     1      13.602   0.121  11.458  0.00  0.00    -0.083 Cl
ENDBRANCH   7  16
ENDBRANCH   3  10
ENDBRANCH   1   5
BRANCH   1  20
ATOM     20  N   UNL     1       4.610   0.895   4.419  0.00  0.00    -0.291 N 
ATOM     21  H   UNL     1       4.390   0.658   5.333  0.00  0.00    +0.154 HD
BRANCH  20  22
ATOM     22  C   UNL     1       3.603   1.018   3.474  0.00  0.00    +0.084 A 
ATOM     23  C   UNL     1       2.236   0.844   3.643  0.00  0.00    +0.068 A 
ATOM     24  C   UNL     1       1.387   1.034   2.479  0.00  0.00    -0.023 A 
ATOM     25  C   UNL     1       2.035   1.365   1.342  0.00  0.00    -0.004 A 
ATOM     26  S   UNL     1       3.745   1.426   1.796  0.00  0.00    -0.077 S 
ATOM     27  C   UNL     1       1.427   1.620  -0.003  0.00  0.00    +0.046 C 
ATOM     28  C   UNL     1      -0.013   1.086   0.008  0.00  0.00    -0.009 C 
ATOM     29  C   UNL     1      -0.714   1.583   1.276  0.00  0.00    +0.008 C 
ATOM     30  C   UNL     1      -0.129   0.881   2.503  0.00  0.00    +0.037 C 
ATOM     31  C   UNL     1      -0.758   1.595  -1.227  0.00  0.00    +0.008 C 
BRANCH  23  32
ATOM     32  C   UNL     1       1.671   0.483   4.946  0.00  0.00    +0.244 C 
ATOM     33  O   UNL     1       1.336   1.355   5.727  0.00  0.00    -0.270 OA
ATOM     34  N   UNL     1       1.522  -0.814   5.280  0.00  0.00    -0.325 N 
ATOM     35  H   UNL     1       1.788  -1.509   4.658  0.00  0.00    +0.145 HD
ATOM     36  H   UNL     1       1.147  -1.053   6.142  0.00  0.00    +0.145 HD
ENDBRANCH  23  32
ENDBRANCH  20  22
ENDBRANCH   1  20
TORSDOF 6
