REMARK  Name = ZINC09344740
REMARK  9 active torsions:
REMARK  status: ('A' for Active; 'I' for Inactive)
REMARK    1  A    between atoms: C_1  and  C_2
REMARK    2  A    between atoms: C_2  and  O_3
REMARK    3  A    between atoms: O_3  and  C_4
REMARK    4  A    between atoms: C_7  and  C_10
REMARK    5  A    between atoms: C_24  and  S_37
REMARK    6  A    between atoms: C_27  and  C_29
REMARK    7  A    between atoms: C_32  and  O_35
REMARK    8  A    between atoms: O_35  and  C_36
REMARK    9  A    between atoms: S_37  and  C_38
REMARK                            x       y       z     vdW  Elec       q    Type
REMARK                         _______ _______ _______ _____ _____    ______ ____
ROOT
ATOM      1  C   UNL     1       1.109  -6.040  -1.847  0.00  0.00    +0.234 C 
ATOM      2  C   UNL     1       0.051  -6.509  -2.802  0.00  0.00    +0.025 C 
ATOM      3  C   UNL     1       0.294  -6.557  -4.128  0.00  0.00    +0.058 C 
ATOM      4  C   UNL     1       1.642  -6.141  -4.592  0.00  0.00    +0.040 A 
ATOM      5  C   UNL     1       1.891  -5.843  -5.925  0.00  0.00    +0.013 A 
ATOM      6  C   UNL     1       3.160  -5.457  -6.312  0.00  0.00    +0.001 A 
ATOM      7  C   UNL     1       4.177  -5.369  -5.378  0.00  0.00    +0.004 A 
ATOM      8  C   UNL     1       3.937  -5.664  -4.049  0.00  0.00    +0.046 A 
ATOM      9  C   UNL     1       2.671  -6.053  -3.647  0.00  0.00    +0.131 A 
ATOM     10  O   UNL     1       2.408  -6.354  -2.354  0.00  0.00    -0.479 OA
ATOM     11  N   UNL     1      -0.650  -6.971  -5.008  0.00  0.00    -0.326 N 
ATOM     12  C   UNL     1      -1.860  -7.363  -4.668  0.00  0.00    +0.216 C 
ATOM     13  N   UNL     1      -2.898  -7.798  -5.404  0.00  0.00    -0.192 NA
ATOM     14  C   UNL     1      -3.923  -8.086  -4.627  0.00  0.00    +0.174 C 
ATOM     15  N   UNL     1      -3.578  -7.841  -3.323  0.00  0.00    -0.239 N 
ATOM     16  N   UNL     1      -2.261  -7.377  -3.346  0.00  0.00    -0.209 N 
ATOM     17  C   UNL     1      -1.313  -6.941  -2.312  0.00  0.00    +0.159 C 
ATOM     18  H   UNL     1      -0.420  -6.978  -5.950  0.00  0.00    +0.169 HD
ATOM     19  H   UNL     1      -4.138  -7.965  -2.541  0.00  0.00    +0.172 HD
ENDROOT
BRANCH   1  23
ATOM     20  C   UNL     1       0.777  -1.810  -1.336  0.00  0.00    +0.121 A 
ATOM     21  C   UNL     1       0.243  -2.669  -0.386  0.00  0.00    +0.046 A 
ATOM     22  C   UNL     1       0.351  -4.036  -0.554  0.00  0.00    +0.011 A 
ATOM     23  C   UNL     1       0.992  -4.548  -1.667  0.00  0.00    -0.003 A 
ATOM     24  C   UNL     1       1.525  -3.694  -2.615  0.00  0.00    +0.011 A 
ATOM     25  C   UNL     1       1.414  -2.327  -2.455  0.00  0.00    +0.046 A 
BRANCH  20  26
ATOM     26  O   UNL     1       0.671  -0.465  -1.174  0.00  0.00    -0.492 OA
BRANCH  26  28
ATOM     27  C   UNL     1      -0.019   1.526   0.010  0.00  0.00    +0.048 C 
ATOM     28  C   UNL     1       0.002  -0.004   0.002  0.00  0.00    +0.225 C 
ENDBRANCH  26  28
ENDBRANCH  20  26
ENDBRANCH   1  23
BRANCH  17  29
ATOM     29  C   UNL     1      -1.126  -8.076  -1.339  0.00  0.00    -0.021 A 
ATOM     30  C   UNL     1      -0.902  -9.357  -1.807  0.00  0.00    +0.009 A 
ATOM     31  C   UNL     1      -0.730 -10.399  -0.916  0.00  0.00    +0.046 A 
ATOM     32  C   UNL     1      -0.781 -10.159   0.449  0.00  0.00    +0.120 A 
ATOM     33  C   UNL     1      -1.006  -8.872   0.916  0.00  0.00    +0.046 A 
ATOM     34  C   UNL     1      -1.172  -7.832   0.022  0.00  0.00    +0.009 A 
BRANCH  32  35
ATOM     35  O   UNL     1      -0.613 -11.182   1.327  0.00  0.00    -0.495 OA
ATOM     36  C   UNL     1      -0.678 -10.861   2.718  0.00  0.00    +0.277 C 
ENDBRANCH  32  35
ENDBRANCH  17  29
BRANCH  14  37
ATOM     37  S   UNL     1      -5.485  -8.690  -5.175  0.00  0.00    -0.092 S 
ATOM     38  C   UNL     1      -5.305  -8.798  -6.977  0.00  0.00    +0.093 C 
ENDBRANCH  14  37
TORSDOF 6
