REMARK  Name = ZINC43287155
REMARK  7 active torsions:
REMARK  status: ('A' for Active; 'I' for Inactive)
REMARK    1  A    between atoms: C_1  and  C_2
REMARK    2  A    between atoms: C_2  and  C_4
REMARK    3  A    between atoms: C_2  and  N_23
REMARK    4  A    between atoms: C_4  and  C_6
REMARK    5  A    between atoms: C_4  and  N_12
REMARK    6  A    between atoms: C_17  and  C_19
REMARK    7  A    between atoms: N_21  and  C_22
REMARK                            x       y       z     vdW  Elec       q    Type
REMARK                         _______ _______ _______ _____ _____    ______ ____
ROOT
ATOM      1  C   UNL     1       0.472  -0.209   2.092  0.00  0.00    +0.080 C 
ENDROOT
BRANCH   1   2
ATOM      2  C   UNL     1      -0.469  -0.098   0.920  0.00  0.00    +0.006 A 
ATOM      3  C   UNL     1      -1.485  -0.919   0.561  0.00  0.00    +0.028 A 
ATOM      4  C   UNL     1      -2.225  -0.617  -0.568  0.00  0.00    +0.025 A 
ATOM      5  C   UNL     1      -1.911   0.493  -1.281  0.00  0.00    +0.060 A 
ATOM      6  S   UNL     1      -0.539   1.155  -0.350  0.00  0.00    -0.099 S 
ATOM      7 BR   UNL     1      -3.651  -1.734  -1.108  0.00  0.00    -0.050 Br
ENDBRANCH   1   2
BRANCH   1   8
ATOM      8  N   UNL     1       1.822   0.195   1.676  0.00  0.00    -0.286 NA
ATOM      9  C   UNL     1       1.948   1.658   1.649  0.00  0.00    +0.086 C 
ATOM     10  C   UNL     1       3.313   2.043   1.075  0.00  0.00    +0.015 C 
ATOM     11  C   UNL     1       4.418   1.433   1.943  0.00  0.00    +0.003 C 
ATOM     12  C   UNL     1       4.235  -0.086   1.994  0.00  0.00    +0.028 C 
ATOM     13  C   UNL     1       2.843  -0.410   2.541  0.00  0.00    +0.143 C 
BRANCH  13  14
ATOM     14  C   UNL     1       2.651  -1.904   2.574  0.00  0.00    +0.230 C 
ATOM     15  O   UNL     1       2.147  -2.472   1.628  0.00  0.00    -0.274 OA
ATOM     16  N   UNL     1       3.039  -2.610   3.655  0.00  0.00    -0.317 N 
ATOM     17  C   UNL     1       2.852  -4.062   3.687  0.00  0.00    +0.128 C 
ATOM     18  H   UNL     1       3.442  -2.156   4.412  0.00  0.00    +0.148 HD
ENDBRANCH  13  14
ENDBRANCH   1   8
BRANCH   1  20
ATOM     19  C   UNL     1       0.910   0.543   4.434  0.00  0.00    -0.012 C 
ATOM     20  C   UNL     1      -0.009   0.705   3.221  0.00  0.00    -0.056 C 
BRANCH  20  21
ATOM     21  N   UNL     1      -1.382   0.340   3.595  0.00  0.00    +0.381 N 
ATOM     22  H   UNL     1      -1.988   0.446   2.795  0.00  0.00    -0.090 HD
ATOM     23  H   UNL     1      -1.402  -0.620   3.907  0.00  0.00    -0.090 HD
ATOM     24  H   UNL     1      -1.699   0.942   4.339  0.00  0.00    -0.090 HD
ENDBRANCH  20  21
ENDBRANCH   1  20
TORSDOF 5
