REMARK  Name = ZINC08960003
REMARK  7 active torsions:
REMARK  status: ('A' for Active; 'I' for Inactive)
REMARK    1  A    between atoms: C_1  and  C_2
REMARK    2  A    between atoms: C_2  and  N_57
REMARK    3  A    between atoms: C_8  and  N_19
REMARK    4  A    between atoms: C_9  and  C_10
REMARK    5  A    between atoms: C_20  and  C_22
REMARK    6  A    between atoms: C_28  and  O_31
REMARK    7  A    between atoms: O_31  and  C_32
REMARK                            x       y       z     vdW  Elec       q    Type
REMARK                         _______ _______ _______ _____ _____    ______ ____
ROOT
ATOM      1  C   UNL     1     -11.475   5.264  -0.302  0.00  0.00    -0.074 C 
ATOM      2  C   UNL     1     -10.126   5.842   0.133  0.00  0.00    +0.018 C 
ATOM      3  C   UNL     1      -9.097   4.714   0.119  0.00  0.00    -0.029 A 
ATOM      4  C   UNL     1      -9.513   3.425   0.116  0.00  0.00    -0.021 A 
ATOM      5  S   UNL     1      -8.022   2.470   0.088  0.00  0.00    -0.079 S 
ATOM      6  C   UNL     1      -6.843   3.809   0.092  0.00  0.00    +0.082 A 
ATOM      7  C   UNL     1      -7.664   4.927   0.107  0.00  0.00    +0.039 A 
ATOM      8  C   UNL     1     -10.930   2.944   0.128  0.00  0.00    -0.035 C 
ATOM      9  N   UNL     1     -11.792   4.083   0.526  0.00  0.00    +0.383 N 
ATOM     10  H   UNL     1     -11.615   4.308   1.512  0.00  0.00    -0.081 HD
ENDROOT
BRANCH   7  11
ATOM     11  C   UNL     1      -7.098   6.286   0.109  0.00  0.00    +0.112 A 
ATOM     12  N   UNL     1      -7.727   7.444   0.116  0.00  0.00    -0.239 NA
ATOM     13  C   UNL     1      -7.072   8.623   0.122  0.00  0.00    +0.079 A 
ATOM     14  C   UNL     1      -7.621   9.927   0.134  0.00  0.00    +0.029 A 
ATOM     15  C   UNL     1      -6.808  11.029   0.132  0.00  0.00    +0.002 A 
ATOM     16  C   UNL     1      -5.425  10.910   0.119  0.00  0.00    +0.001 A 
ATOM     17  C   UNL     1      -4.853   9.651   0.107  0.00  0.00    +0.017 A 
ATOM     18  C   UNL     1      -5.660   8.541   0.108  0.00  0.00    +0.040 A 
ATOM     19  S   UNL     1      -5.381   6.786   0.096  0.00  0.00    -0.067 S 
ENDBRANCH   7  11
BRANCH   6  20
ATOM     20  N   UNL     1      -5.455   3.748   0.077  0.00  0.00    -0.273 N 
ATOM     21  C   UNL     1      -4.834   2.553   0.064  0.00  0.00    +0.284 C 
ATOM     22  O   UNL     1      -5.488   1.527   0.065  0.00  0.00    -0.266 OA
ATOM     23  H   UNL     1      -4.934   4.566   0.077  0.00  0.00    +0.156 HD
BRANCH  21  24
ATOM     24  C   UNL     1      -3.366   2.488   0.049  0.00  0.00    +0.191 A 
ATOM     25  C   UNL     1      -2.634   1.344   0.035  0.00  0.00    +0.063 A 
ATOM     26  C   UNL     1      -1.232   1.760   0.017  0.00  0.00    +0.025 A 
ATOM     27  C   UNL     1      -0.013   1.076   0.008  0.00  0.00    +0.012 A 
ATOM     28  C   UNL     1       1.160   1.777   0.001  0.00  0.00    +0.004 A 
ATOM     29  C   UNL     1       1.151   3.165   0.008  0.00  0.00    +0.049 A 
ATOM     30  C   UNL     1      -0.043   3.862   0.023  0.00  0.00    +0.163 A 
ATOM     31  C   UNL     1      -1.251   3.166   0.031  0.00  0.00    +0.177 A 
ATOM     32  O   UNL     1      -2.541   3.556   0.046  0.00  0.00    -0.447 OA
BRANCH  30  33
ATOM     33  O   UNL     1      -0.038   5.222   0.030  0.00  0.00    -0.491 OA
ATOM     34  C   UNL     1       1.237   5.867   0.021  0.00  0.00    +0.277 C 
ENDBRANCH  30  33
ENDBRANCH  21  24
ENDBRANCH   6  20
BRANCH   9  36
ATOM     35  C   UNL     1     -13.462   2.351   1.005  0.00  0.00    -0.017 C 
ATOM     36  C   UNL     1     -13.217   3.719   0.365  0.00  0.00    -0.082 C 
ENDBRANCH   9  36
TORSDOF 5
