REMARK  Name = ZINC08881056
REMARK  11 active torsions:
REMARK  status: ('A' for Active; 'I' for Inactive)
REMARK    1  A    between atoms: C_1  and  C_2
REMARK    2  A    between atoms: C_2  and  C_3
REMARK    3  A    between atoms: C_3  and  N_68
REMARK    4  A    between atoms: C_9  and  N_15
REMARK    5  A    between atoms: C_10  and  C_11
REMARK    6  A    between atoms: C_11  and  O_13
REMARK    7  A    between atoms: O_13  and  C_14
REMARK    8  A    between atoms: C_16  and  C_18
REMARK    9  A    between atoms: C_21  and  S_24
REMARK   10  A    between atoms: S_24  and  N_27
REMARK   11  A    between atoms: C_32  and  C_34
REMARK                            x       y       z     vdW  Elec       q    Type
REMARK                         _______ _______ _______ _____ _____    ______ ____
ROOT
ATOM      1  N   UNL     1       0.375  -4.960  -0.186  0.00  0.00    -0.275 N 
ATOM      2  C   UNL     1      -0.944  -4.822   0.054  0.00  0.00    +0.249 C 
ATOM      3  O   UNL     1      -1.452  -3.718   0.044  0.00  0.00    -0.270 OA
ATOM      4  H   UNL     1       0.780  -5.841  -0.178  0.00  0.00    +0.156 HD
ENDROOT
BRANCH   1  10
ATOM      5  C   UNL     1       4.683  -0.814  -1.867  0.00  0.00    -0.074 C 
ATOM      6  C   UNL     1       4.560  -2.215  -1.259  0.00  0.00    +0.018 C 
ATOM      7  C   UNL     1       3.090  -2.470  -0.949  0.00  0.00    -0.025 A 
ATOM      8  C   UNL     1       2.221  -1.437  -0.881  0.00  0.00    -0.021 A 
ATOM      9  S   UNL     1       0.660  -2.182  -0.510  0.00  0.00    -0.079 S 
ATOM     10  C   UNL     1       1.152  -3.842  -0.444  0.00  0.00    +0.086 A 
ATOM     11  C   UNL     1       2.515  -3.781  -0.711  0.00  0.00    +0.091 A 
ATOM     12  C   UNL     1       2.545   0.011  -1.082  0.00  0.00    -0.035 C 
ATOM     13  N   UNL     1       4.017   0.164  -0.984  0.00  0.00    +0.383 N 
ATOM     14  H   UNL     1       4.307  -0.009  -0.014  0.00  0.00    -0.081 HD
BRANCH  11  15
ATOM     15  C   UNL     1       3.337  -4.992  -0.751  0.00  0.00    +0.342 C 
ATOM     16  O   UNL     1       3.877  -5.394   0.262  0.00  0.00    -0.245 OA
BRANCH  15  17
ATOM     17  O   UNL     1       3.497  -5.660  -1.911  0.00  0.00    -0.464 OA
ATOM     18  C   UNL     1       4.325  -6.852  -1.877  0.00  0.00    +0.280 C 
ENDBRANCH  15  17
ENDBRANCH  11  15
BRANCH  13  19
ATOM     19  C   UNL     1       4.409   1.538  -1.364  0.00  0.00    -0.079 C 
BRANCH  19  21
ATOM     20  C   UNL     1       4.300   3.938  -0.678  0.00  0.00    +0.002 C 
ATOM     21  C   UNL     1       3.884   2.513  -0.308  0.00  0.00    -0.022 C 
ENDBRANCH  19  21
ENDBRANCH  13  19
ENDBRANCH   1  10
BRANCH   2  22
ATOM     22  C   UNL     1      -1.773  -6.015   0.329  0.00  0.00    +0.037 A 
ATOM     23  C   UNL     1      -1.194  -7.285   0.336  0.00  0.00    +0.015 A 
ATOM     24  C   UNL     1      -1.972  -8.393   0.598  0.00  0.00    +0.029 A 
ATOM     25  C   UNL     1      -3.326  -8.249   0.844  0.00  0.00    +0.106 A 
ATOM     26  C   UNL     1      -3.908  -6.993   0.833  0.00  0.00    +0.029 A 
ATOM     27  C   UNL     1      -3.140  -5.876   0.577  0.00  0.00    +0.015 A 
BRANCH  25  28
ATOM     28  S   UNL     1      -4.314  -9.670   1.172  0.00  0.00    +0.061 S 
ATOM     29  O   UNL     1      -3.417 -10.721   1.502  0.00  0.00    -0.153 OA
ATOM     30  O   UNL     1      -5.352  -9.251   2.047  0.00  0.00    -0.153 OA
BRANCH  28  31
ATOM     31  N   UNL     1      -5.042 -10.100  -0.253  0.00  0.00    -0.174 NA
ATOM     32  C   UNL     1      -6.436  -9.723  -0.525  0.00  0.00    +0.110 C 
ATOM     33  C   UNL     1      -7.224 -10.983  -0.895  0.00  0.00    +0.017 C 
ATOM     34  C   UNL     1      -6.527 -11.693  -2.058  0.00  0.00    +0.003 C 
ATOM     35  C   UNL     1      -5.119 -12.113  -1.630  0.00  0.00    +0.020 C 
ATOM     36  C   UNL     1      -4.304 -10.860  -1.270  0.00  0.00    +0.077 C 
ATOM     37  C   UNL     1      -2.941 -11.275  -0.713  0.00  0.00    +0.026 C 
ENDBRANCH  28  31
ENDBRANCH  25  28
ENDBRANCH   2  22
TORSDOF 8
