REMARK  Name = ZINC01962969
REMARK  12 active torsions:
REMARK  status: ('A' for Active; 'I' for Inactive)
REMARK    1  A    between atoms: C_1  and  C_2
REMARK    2  A    between atoms: C_9  and  N_15
REMARK    3  A    between atoms: C_10  and  C_11
REMARK    4  A    between atoms: C_11  and  O_13
REMARK    5  A    between atoms: O_13  and  C_14
REMARK    6  A    between atoms: C_16  and  C_18
REMARK    7  A    between atoms: C_18  and  O_19
REMARK    8  A    between atoms: O_19  and  C_20
REMARK    9  A    between atoms: C_23  and  C_26
REMARK   10  A    between atoms: N_28  and  C_29
REMARK   11  A    between atoms: C_34  and  O_35
REMARK   12  A    between atoms: O_35  and  C_36
REMARK                            x       y       z     vdW  Elec       q    Type
REMARK                         _______ _______ _______ _____ _____    ______ ____
ROOT
ATOM      1  C   UNL     1      -3.602  -2.680  -3.607  0.00  0.00    +0.324 C 
ENDROOT
BRANCH   1   3
ATOM      2  N   UNL     1      -1.466  -2.318  -2.413  0.00  0.00    -0.277 N 
ATOM      3  C   UNL     1      -2.342  -3.188  -2.956  0.00  0.00    +0.255 C 
ATOM      4  O   UNL     1      -2.116  -4.379  -2.920  0.00  0.00    -0.272 OA
ATOM      5  H   UNL     1      -1.647  -1.366  -2.442  0.00  0.00    +0.155 HD
BRANCH   2  13
ATOM      6  C   UNL     1       4.984  -5.356   0.806  0.00  0.00    +0.008 C 
ATOM      7  C   UNL     1       4.054  -4.415   0.037  0.00  0.00    -0.009 C 
ATOM      8  C   UNL     1       3.723  -3.195   0.902  0.00  0.00    +0.008 C 
ATOM      9  C   UNL     1       3.005  -2.140   0.059  0.00  0.00    +0.037 C 
ATOM     10  C   UNL     1       1.822  -2.795  -0.644  0.00  0.00    -0.021 A 
ATOM     11  C   UNL     1       1.752  -4.136  -0.782  0.00  0.00    -0.004 A 
ATOM     12  S   UNL     1       0.232  -4.424  -1.643  0.00  0.00    -0.077 S 
ATOM     13  C   UNL     1      -0.307  -2.786  -1.814  0.00  0.00    +0.086 A 
ATOM     14  C   UNL     1       0.706  -2.055  -1.207  0.00  0.00    +0.091 A 
ATOM     15  C   UNL     1       2.749  -5.147  -0.305  0.00  0.00    +0.046 C 
BRANCH  14  16
ATOM     16  C   UNL     1       0.648  -0.593  -1.132  0.00  0.00    +0.342 C 
ATOM     17  O   UNL     1       1.132   0.081  -2.021  0.00  0.00    -0.245 OA
BRANCH  16  18
ATOM     18  O   UNL     1       0.057   0.005  -0.078  0.00  0.00    -0.464 OA
ATOM     19  C   UNL     1       0.036   1.457  -0.070  0.00  0.00    +0.280 C 
ENDBRANCH  16  18
ENDBRANCH  14  16
ENDBRANCH   2  13
ENDBRANCH   1   3
BRANCH   1  20
ATOM     20  O   UNL     1      -4.361  -3.784  -4.103  0.00  0.00    -0.483 OA
BRANCH  20  21
ATOM     21  C   UNL     1      -5.534  -3.498  -4.723  0.00  0.00    +0.121 A 
ATOM     22  C   UNL     1      -5.948  -2.177  -4.846  0.00  0.00    +0.046 A 
ATOM     23  C   UNL     1      -7.135  -1.882  -5.478  0.00  0.00    +0.016 A 
ATOM     24  C   UNL     1      -7.928  -2.913  -5.988  0.00  0.00    +0.037 A 
ATOM     25  C   UNL     1      -7.511  -4.240  -5.858  0.00  0.00    +0.016 A 
ATOM     26  C   UNL     1      -6.320  -4.527  -5.228  0.00  0.00    +0.046 A 
BRANCH  24  27
ATOM     27  C   UNL     1      -9.203  -2.602  -6.663  0.00  0.00    +0.248 C 
ATOM     28  O   UNL     1      -9.892  -3.500  -7.106  0.00  0.00    -0.270 OA
ATOM     29  N   UNL     1      -9.604  -1.321  -6.787  0.00  0.00    -0.279 N 
ATOM     30  H   UNL     1      -9.097  -0.610  -6.364  0.00  0.00    +0.155 HD
BRANCH  29  31
ATOM     31  C   UNL     1     -10.754  -1.016  -7.527  0.00  0.00    +0.076 A 
ATOM     32  C   UNL     1     -11.186  -1.875  -8.527  0.00  0.00    +0.027 A 
ATOM     33  C   UNL     1     -12.323  -1.575  -9.252  0.00  0.00    +0.002 A 
ATOM     34  C   UNL     1     -13.026  -0.413  -8.992  0.00  0.00    +0.004 A 
ATOM     35  C   UNL     1     -12.599   0.451  -8.001  0.00  0.00    +0.047 A 
ATOM     36  C   UNL     1     -11.463   0.154  -7.266  0.00  0.00    +0.141 A 
BRANCH  36  37
ATOM     37  O   UNL     1     -11.041   1.004  -6.291  0.00  0.00    -0.493 OA
ATOM     38  C   UNL     1     -11.817   2.184  -6.078  0.00  0.00    +0.277 C 
ENDBRANCH  36  37
ENDBRANCH  29  31
ENDBRANCH  24  27
ENDBRANCH  20  21
ENDBRANCH   1  20
TORSDOF 9
