REMARK  Name = ZINC03332933
REMARK  8 active torsions:
REMARK  status: ('A' for Active; 'I' for Inactive)
REMARK    1  A    between atoms: C_1  and  C_2
REMARK    2  A    between atoms: C_2  and  C_4
REMARK    3  A    between atoms: C_2  and  N_51
REMARK    4  A    between atoms: N_6  and  C_7
REMARK    5  A    between atoms: C_18  and  C_19
REMARK    6  A    between atoms: C_18  and  N_51
REMARK    7  A    between atoms: C_22  and  S_25
REMARK    8  A    between atoms: S_25  and  N_28
REMARK                            x       y       z     vdW  Elec       q    Type
REMARK                         _______ _______ _______ _____ _____    ______ ____
ROOT
ATOM      1  C   UNL     1      -0.013   1.086   0.008  0.00  0.00    -0.004 C 
ATOM      2  C   UNL     1      -0.729   1.579   1.267  0.00  0.00    +0.013 C 
ENDROOT
BRANCH   2   3
ATOM      3  C   UNL     1      -2.143   1.058   1.278  0.00  0.00    +0.199 C 
ATOM      4  O   UNL     1      -3.075   1.833   1.291  0.00  0.00    -0.278 OA
ATOM      5  N   UNL     1      -2.371  -0.271   1.273  0.00  0.00    -0.310 N 
ATOM      6  H   UNL     1      -1.625  -0.891   1.262  0.00  0.00    +0.149 HD
BRANCH   5   7
ATOM      7  C   UNL     1      -3.745  -0.778   1.283  0.00  0.00    +0.103 C 
ATOM      8  C   UNL     1      -3.760  -2.181   1.885  0.00  0.00    +0.027 C 
ATOM      9  C   UNL     1      -5.159  -2.777   1.690  0.00  0.00    +0.007 C 
ATOM     10  C   UNL     1      -5.357  -3.064   0.203  0.00  0.00    +0.035 C 
ATOM     11  C   UNL     1      -5.020  -1.849  -0.621  0.00  0.00    -0.042 A 
ATOM     12  C   UNL     1      -4.277  -0.800  -0.126  0.00  0.00    -0.024 A 
ATOM     13  C   UNL     1      -3.997   0.289  -0.941  0.00  0.00    +0.006 A 
ATOM     14  C   UNL     1      -4.459   0.330  -2.240  0.00  0.00    +0.000 A 
ATOM     15  C   UNL     1      -5.208  -0.720  -2.736  0.00  0.00    +0.000 A 
ATOM     16  C   UNL     1      -5.486  -1.804  -1.929  0.00  0.00    +0.004 A 
ENDBRANCH   5   7
ENDBRANCH   2   3
BRANCH   2  17
ATOM     17  N   UNL     1      -0.757   3.054   1.271  0.00  0.00    +0.389 N 
ATOM     18  H   UNL     1      -1.553   3.376   1.834  0.00  0.00    -0.084 HD
ATOM     19  H   UNL     1      -0.859   3.394   0.308  0.00  0.00    -0.084 HD
BRANCH  17  20
ATOM     20  C   UNL     1       0.492   3.588   1.846  0.00  0.00    -0.046 C 
BRANCH  20  21
ATOM     21  C   UNL     1       0.435   5.094   1.837  0.00  0.00    -0.064 A 
ATOM     22  C   UNL     1       0.910   5.798   0.746  0.00  0.00    +0.003 A 
ATOM     23  C   UNL     1       0.853   7.179   0.736  0.00  0.00    +0.029 A 
ATOM     24  C   UNL     1       0.331   7.857   1.822  0.00  0.00    +0.105 A 
ATOM     25  C   UNL     1      -0.138   7.154   2.916  0.00  0.00    +0.029 A 
ATOM     26  C   UNL     1      -0.086   5.772   2.923  0.00  0.00    +0.003 A 
BRANCH  24  27
ATOM     27  S   UNL     1       0.264   9.618   1.812  0.00  0.00    +0.056 S 
ATOM     28  O   UNL     1       0.263  10.016   0.448  0.00  0.00    -0.153 OA
ATOM     29  O   UNL     1      -0.767   9.990   2.716  0.00  0.00    -0.153 OA
BRANCH  27  30
ATOM     30  N   UNL     1       1.685  10.165   2.464  0.00  0.00    -0.204 NA
ATOM     31  H   UNL     1       2.053  11.016   2.180  0.00  0.00    +0.144 HD
ATOM     32  H   UNL     1       2.149   9.634   3.131  0.00  0.00    +0.144 HD
ENDBRANCH  27  30
ENDBRANCH  24  27
ENDBRANCH  20  21
ENDBRANCH  17  20
ENDBRANCH   2  17
TORSDOF 7
