REMARK  Name = ZINC05530982
REMARK  3 active torsions:
REMARK  status: ('A' for Active; 'I' for Inactive)
REMARK    1  A    between atoms: C_6  and  C_7
REMARK    2  A    between atoms: C_18  and  N_22
REMARK    3  A    between atoms: C_19  and  C_20
REMARK                            x       y       z     vdW  Elec       q    Type
REMARK                         _______ _______ _______ _____ _____    ______ ____
ROOT
ATOM      1  C   UNL     1      -0.082   6.158   0.036  0.00  0.00    +0.105 C 
ATOM      2  C   UNL     1      -0.772   6.641   1.280  0.00  0.00    +0.091 A 
ATOM      3  C   UNL     1      -0.108   6.603   2.516  0.00  0.00    +0.259 A 
ATOM      4  O   UNL     1       1.034   6.180   2.597  0.00  0.00    -0.267 OA
ATOM      5  N   UNL     1      -0.760   7.044   3.613  0.00  0.00    -0.313 N 
ATOM      6  H   UNL     1      -0.305   7.027   4.504  0.00  0.00    +0.170 HD
ATOM      7  C   UNL     1      -2.021   7.507   3.510  0.00  0.00    +0.203 A 
ATOM      8  N   UNL     1      -2.648   7.545   2.366  0.00  0.00    -0.203 NA
ATOM      9  C   UNL     1      -2.062   7.124   1.234  0.00  0.00    +0.233 A 
ATOM     10  O   UNL     1      -2.740   7.179   0.068  0.00  0.00    -0.423 OA
ATOM     11  C   UNL     1      -2.074   7.128  -1.099  0.00  0.00    +0.200 C 
ATOM     12  C   UNL     1      -0.809   6.654  -1.184  0.00  0.00    +0.098 C 
ENDROOT
BRANCH   1  18
ATOM     13  C   UNL     1       1.145   3.977   0.013  0.00  0.00    +0.005 A 
ATOM     14  C   UNL     1       1.165   2.595   0.005  0.00  0.00    +0.015 A 
ATOM     15  C   UNL     1      -0.024   1.887   0.012  0.00  0.00    +0.018 A 
ATOM     16  C   UNL     1      -1.231   2.562   0.022  0.00  0.00    +0.015 A 
ATOM     17  C   UNL     1      -1.249   3.944   0.035  0.00  0.00    +0.005 A 
ATOM     18  C   UNL     1      -0.061   4.651   0.027  0.00  0.00    -0.034 A 
ATOM     19 BR   UNL     1       0.002  -0.004   0.002  0.00  0.00    -0.050 Br
ENDBRANCH   1  18
BRANCH  11  20
ATOM     20  N   UNL     1      -2.697   7.570  -2.240  0.00  0.00    -0.328 N 
ATOM     21  H   UNL     1      -2.230   7.539  -3.090  0.00  0.00    +0.145 HD
ATOM     22  H   UNL     1      -3.603   7.912  -2.196  0.00  0.00    +0.145 HD
ENDBRANCH  11  20
BRANCH  12  23
ATOM     23  C   UNL     1      -0.152   6.625  -2.456  0.00  0.00    +0.101 C 
ATOM     24  N   UNL     1       0.370   6.601  -3.465  0.00  0.00    -0.191 NA
ENDBRANCH  12  23
TORSDOF 3
