REMARK  Name = ZINC32594302
REMARK  13 active torsions:
REMARK  status: ('A' for Active; 'I' for Inactive)
REMARK    1  A    between atoms: C_1  and  C_2
REMARK    2  A    between atoms: C_5  and  C_8
REMARK    3  A    between atoms: N_10  and  C_18
REMARK    4  A    between atoms: N_13  and  C_14
REMARK    5  A    between atoms: C_14  and  C_15
REMARK    6  A    between atoms: C_15  and  C_16
REMARK    7  A    between atoms: C_15  and  C_17
REMARK    8  A    between atoms: C_20  and  N_33
REMARK    9  A    between atoms: C_22  and  O_32
REMARK   10  A    between atoms: C_24  and  O_31
REMARK   11  A    between atoms: C_26  and  C_29
REMARK   12  A    between atoms: C_29  and  O_30
REMARK   13  A    between atoms: C_34  and  C_36
REMARK                            x       y       z     vdW  Elec       q    Type
REMARK                         _______ _______ _______ _____ _____    ______ ____
ROOT
ATOM      1  C   UNL     1      -0.952  -1.346  -0.455  0.00  0.00    +0.262 C 
ATOM      2  C   UNL     1      -1.939  -1.387   0.714  0.00  0.00    +0.155 C 
ATOM      3  C   UNL     1      -3.066  -2.370   0.386  0.00  0.00    +0.170 C 
ATOM      4  C   UNL     1      -3.735  -1.946  -0.925  0.00  0.00    +0.176 C 
ATOM      5  C   UNL     1      -2.678  -1.884  -2.031  0.00  0.00    +0.177 C 
ATOM      6  O   UNL     1      -1.644  -0.975  -1.649  0.00  0.00    -0.345 OA
ENDROOT
BRANCH   1   9
ATOM      7  C   UNL     1       1.117   1.557   0.081  0.00  0.00    +0.163 A 
ATOM      8  N   UNL     1      -0.032   1.030  -0.236  0.00  0.00    -0.148 NA
ATOM      9  N   UNL     1       0.099  -0.364  -0.174  0.00  0.00    -0.209 N 
ATOM     10  C   UNL     1       1.368  -0.637   0.192  0.00  0.00    +0.181 A 
ATOM     11  S   UNL     1       2.043  -2.195   0.414  0.00  0.00    -0.011 S 
ATOM     12  N   UNL     1       2.009   0.538   0.353  0.00  0.00    -0.303 N 
BRANCH   7  17
ATOM     13  C   UNL     1       2.283   7.189   0.311  0.00  0.00    +0.044 C 
ATOM     14  C   UNL     1       1.978   5.715   0.251  0.00  0.00    -0.050 A 
ATOM     15  C   UNL     1       0.763   5.243   0.717  0.00  0.00    +0.004 A 
ATOM     16  C   UNL     1       0.478   3.894   0.664  0.00  0.00    +0.012 A 
ATOM     17  C   UNL     1       1.417   3.005   0.140  0.00  0.00    +0.019 A 
ATOM     18  C   UNL     1       2.642   3.487  -0.324  0.00  0.00    +0.012 A 
ATOM     19  C   UNL     1       2.913   4.838  -0.270  0.00  0.00    +0.004 A 
ENDBRANCH   7  17
BRANCH  12  20
ATOM     20  C   UNL     1       3.409   0.705   0.749  0.00  0.00    +0.128 C 
BRANCH  20  21
ATOM     21  C   UNL     1       3.485   0.990   2.250  0.00  0.00    +0.003 C 
ATOM     22  C   UNL     1       2.953  -0.217   3.026  0.00  0.00    +0.009 C 
ATOM     23  C   UNL     1       4.939   1.251   2.647  0.00  0.00    +0.009 C 
ENDBRANCH  20  21
ENDBRANCH  12  20
ENDBRANCH   1   9
BRANCH   2  24
ATOM     24  N   UNL     1      -1.244  -1.825   1.927  0.00  0.00    -0.306 N 
ATOM     25  C   UNL     1      -1.718  -1.475   3.139  0.00  0.00    +0.210 C 
ATOM     26  O   UNL     1      -2.720  -0.797   3.226  0.00  0.00    -0.276 OA
ATOM     27  C   UNL     1      -1.003  -1.925   4.387  0.00  0.00    +0.109 C 
ATOM     28  H   UNL     1      -0.335  -2.439   1.848  0.00  0.00    +0.149 HD
ENDBRANCH   2  24
BRANCH   4  29
ATOM     29  O   UNL     1      -4.741  -2.896  -1.279  0.00  0.00    -0.387 OA
ATOM     30  H   UNL     1      -5.331  -2.756  -2.197  0.00  0.00    +0.210 HD
ENDBRANCH   4  29
BRANCH   3  31
ATOM     31  O   UNL     1      -4.032  -2.360   1.440  0.00  0.00    -0.387 OA
ATOM     32  H   UNL     1      -4.919  -3.007   1.380  0.00  0.00    +0.210 HD
ENDBRANCH   3  31
BRANCH   5  33
ATOM     33  C   UNL     1      -3.326  -1.402  -3.330  0.00  0.00    +0.190 C 
BRANCH  33  34
ATOM     34  O   UNL     1      -2.368  -1.454  -4.389  0.00  0.00    -0.392 OA
ATOM     35  H   UNL     1      -2.653  -1.144  -5.405  0.00  0.00    +0.210 HD
ENDBRANCH  33  34
ENDBRANCH   5  33
TORSDOF 9
