REMARK  Name = ZINC00670764
REMARK  11 active torsions:
REMARK  status: ('A' for Active; 'I' for Inactive)
REMARK    1  A    between atoms: C_1  and  C_2
REMARK    2  A    between atoms: C_2  and  O_3
REMARK    3  A    between atoms: O_3  and  C_4
REMARK    4  A    between atoms: C_4  and  C_6
REMARK    5  A    between atoms: C_7  and  C_35
REMARK    6  A    between atoms: C_8  and  C_32
REMARK    7  A    between atoms: C_9  and  N_11
REMARK    8  A    between atoms: C_12  and  C_14
REMARK    9  A    between atoms: C_16  and  C_24
REMARK   10  A    between atoms: C_27  and  C_31
REMARK   11  A    between atoms: C_28  and  C_30
REMARK                            x       y       z     vdW  Elec       q    Type
REMARK                         _______ _______ _______ _____ _____    ______ ____
ROOT
ATOM      1  N   UNL     1      -2.462   1.478  -0.080  0.00  0.00    -0.275 N 
ATOM      2  C   UNL     1      -1.290   2.136   0.020  0.00  0.00    +0.249 C 
ATOM      3  O   UNL     1      -1.279   3.347   0.118  0.00  0.00    -0.270 OA
ATOM      4  H   UNL     1      -2.471   0.381  -0.169  0.00  0.00    +0.156 HD
ENDROOT
BRANCH   2   5
ATOM      5  C   UNL     1      -0.017   1.384   0.010  0.00  0.00    +0.048 A 
ATOM      6  C   UNL     1       0.002  -0.004   0.017  0.00  0.00    +0.042 A 
ATOM      7  C   UNL     1       1.233  -0.676   0.001  0.00  0.00    +0.072 A 
ATOM      8  N   UNL     1       2.384  -0.036  -0.021  0.00  0.00    -0.247 NA
ATOM      9  C   UNL     1       2.459   1.295  -0.029  0.00  0.00    +0.072 A 
ATOM     10  C   UNL     1       1.274   2.073  -0.014  0.00  0.00    +0.013 A 
ATOM     11  C   UNL     1       1.357   3.470  -0.023  0.00  0.00    +0.011 A 
ATOM     12  C   UNL     1       2.580   4.071  -0.046  0.00  0.00    +0.001 A 
ATOM     13  C   UNL     1       3.749   3.312  -0.061  0.00  0.00    +0.002 A 
ATOM     14  C   UNL     1       3.704   1.952  -0.052  0.00  0.00    +0.028 A 
BRANCH   7  15
ATOM     15  C   UNL     1       1.240  -2.159   0.008  0.00  0.00    +0.001 A 
ATOM     16  C   UNL     1       0.040  -2.864  -0.075  0.00  0.00    +0.010 A 
ATOM     17  C   UNL     1       0.051  -4.244  -0.068  0.00  0.00    +0.004 A 
ATOM     18  C   UNL     1       1.251  -4.927   0.021  0.00  0.00    -0.047 A 
ATOM     19  C   UNL     1       2.444  -4.233   0.104  0.00  0.00    -0.047 A 
ATOM     20  C   UNL     1       2.445  -2.853   0.092  0.00  0.00    +0.013 A 
ATOM     21  C   UNL     1       3.747  -4.985   0.201  0.00  0.00    +0.044 C 
ATOM     22  C   UNL     1       1.257  -6.434   0.028  0.00  0.00    +0.044 C 
ENDBRANCH   7  15
ENDBRANCH   2   5
BRANCH   1  26
ATOM     23  C   UNL     1      -5.673   3.925  -0.010  0.00  0.00    +0.102 A 
ATOM     24  C   UNL     1      -5.995   2.599  -0.130  0.00  0.00    -0.015 A 
ATOM     25  C   UNL     1      -4.955   1.685  -0.162  0.00  0.00    +0.069 A 
ATOM     26  C   UNL     1      -3.650   2.179  -0.070  0.00  0.00    +0.085 A 
ATOM     27  S   UNL     1      -3.893   3.890   0.066  0.00  0.00    -0.066 S 
ATOM     28  C   UNL     1      -7.431   2.150  -0.223  0.00  0.00    +0.046 C 
BRANCH  25  29
ATOM     29  C   UNL     1      -5.214   0.244  -0.289  0.00  0.00    +0.244 C 
ATOM     30  O   UNL     1      -5.363  -0.437   0.708  0.00  0.00    -0.270 OA
ATOM     31  N   UNL     1      -5.286  -0.322  -1.510  0.00  0.00    -0.325 N 
ATOM     32  H   UNL     1      -5.480  -1.401  -1.605  0.00  0.00    +0.145 HD
ATOM     33  H   UNL     1      -5.151   0.294  -2.411  0.00  0.00    +0.145 HD
ENDBRANCH  25  29
BRANCH  23  34
ATOM     34  C   UNL     1      -6.568   5.080   0.049  0.00  0.00    +0.346 C 
ATOM     35  O   UNL     1      -7.772   4.921  -0.011  0.00  0.00    -0.244 OA
BRANCH  34  36
ATOM     36  O   UNL     1      -6.057   6.323   0.169  0.00  0.00    -0.461 OA
BRANCH  36  38
ATOM     37  C   UNL     1      -6.229   8.726   0.357  0.00  0.00    +0.048 C 
ATOM     38  C   UNL     1      -6.989   7.405   0.221  0.00  0.00    +0.229 C 
ENDBRANCH  36  38
ENDBRANCH  34  36
ENDBRANCH  23  34
ENDBRANCH   1  26
TORSDOF 7
