REMARK  Name = ZINC55122484
REMARK  5 active torsions:
REMARK  status: ('A' for Active; 'I' for Inactive)
REMARK    1  A    between atoms: C_1  and  C_2
REMARK    2  A    between atoms: C_2  and  N_3
REMARK    3  A    between atoms: C_4  and  C_6
REMARK    4  A    between atoms: C_11  and  N_16
REMARK    5  A    between atoms: C_13  and  C_15
REMARK                            x       y       z     vdW  Elec       q    Type
REMARK                         _______ _______ _______ _____ _____    ______ ____
ROOT
ATOM      1  C   UNL     1       1.583  -2.313   2.615  0.00  0.00    +0.076 C 
ATOM      2  C   UNL     1       0.867  -1.820   3.873  0.00  0.00    +0.013 C 
ATOM      3  C   UNL     1       1.607  -2.326   5.113  0.00  0.00    -0.001 C 
ATOM      4  C   UNL     1       1.627  -3.856   5.104  0.00  0.00    -0.016 C 
ATOM      5  C   UNL     1       2.343  -4.350   3.846  0.00  0.00    -0.072 C 
ATOM      6  C   UNL     1       1.603  -3.843   2.606  0.00  0.00    -0.017 C 
ATOM      7  C   UNL     1       2.320  -4.336   1.347  0.00  0.00    +0.006 C 
ENDROOT
BRANCH   1   9
ATOM      8  N   UNL     1       0.711  -0.489   1.189  0.00  0.00    -0.315 N 
ATOM      9  C   UNL     1       0.854  -1.814   1.394  0.00  0.00    +0.216 C 
ATOM     10  O   UNL     1       0.396  -2.604   0.595  0.00  0.00    -0.276 OA
ATOM     11  H   UNL     1       1.077   0.142   1.827  0.00  0.00    +0.149 HD
BRANCH   8  13
ATOM     12  C   UNL     1      -0.019   1.526   0.010  0.00  0.00    +0.024 C 
ATOM     13  C   UNL     1       0.002  -0.004   0.002  0.00  0.00    +0.101 C 
ENDBRANCH   8  13
ENDBRANCH   1   9
BRANCH   5  14
ATOM     14  N   UNL     1       2.363  -5.819   3.838  0.00  0.00    +0.380 N 
ATOM     15  H   UNL     1       1.417  -6.168   3.845  0.00  0.00    -0.090 HD
ATOM     16  H   UNL     1       2.836  -6.144   3.007  0.00  0.00    -0.090 HD
ATOM     17  H   UNL     1       2.851  -6.153   4.655  0.00  0.00    -0.090 HD
ENDBRANCH   5  14
TORSDOF 3
