REMARK  Name = ZINC44780779
REMARK  10 active torsions:
REMARK  status: ('A' for Active; 'I' for Inactive)
REMARK    1  A    between atoms: C_1  and  C_2
REMARK    2  A    between atoms: C_2  and  C_4
REMARK    3  A    between atoms: C_2  and  N_9
REMARK    4  A    between atoms: C_4  and  C_5
REMARK    5  A    between atoms: C_5  and  N_6
REMARK    6  A    between atoms: N_6  and  C_7
REMARK    7  A    between atoms: N_6  and  C_8
REMARK    8  A    between atoms: C_10  and  C_12
REMARK    9  A    between atoms: C_12  and  C_18
REMARK   10  A    between atoms: C_18  and  N_20
REMARK                            x       y       z     vdW  Elec       q    Type
REMARK                         _______ _______ _______ _____ _____    ______ ____
ROOT
ATOM      1  N   UNL     1       0.719  -0.713   1.107  0.00  0.00    -0.312 N 
ATOM      2  C   UNL     1       2.059  -0.594   1.171  0.00  0.00    +0.226 C 
ATOM      3  O   UNL     1       2.677  -0.168   0.219  0.00  0.00    -0.275 OA
ATOM      4  H   UNL     1       0.232  -1.121   1.840  0.00  0.00    +0.149 HD
ENDROOT
BRANCH   2   5
ATOM      5  C   UNL     1       2.791  -0.991   2.428  0.00  0.00    +0.091 C 
ATOM      6  C   UNL     1       4.300  -0.929   2.180  0.00  0.00    +0.023 C 
ATOM      7  C   UNL     1       4.670  -1.891   1.049  0.00  0.00    +0.001 C 
ATOM      8  C   UNL     1       4.275  -3.316   1.441  0.00  0.00    +0.000 C 
ATOM      9  C   UNL     1       2.767  -3.377   1.689  0.00  0.00    +0.001 C 
ATOM     10  C   UNL     1       2.396  -2.416   2.820  0.00  0.00    +0.023 C 
BRANCH   5  11
ATOM     11  C   UNL     1       2.426  -0.043   3.542  0.00  0.00    +0.061 C 
ATOM     12  S   UNL     1       1.854  -0.615   4.921  0.00  0.00    -0.040 S 
BRANCH  11  13
ATOM     13  N   UNL     1       2.582   1.285   3.375  0.00  0.00    -0.355 N 
ATOM     14  H   UNL     1       2.997   1.627   2.568  0.00  0.00    +0.143 HD
ATOM     15  H   UNL     1       2.280   1.899   4.063  0.00  0.00    +0.143 HD
ENDBRANCH  11  13
ENDBRANCH   5  11
ENDBRANCH   2   5
BRANCH   1  17
ATOM     16  C   UNL     1      -0.291   1.269   0.089  0.00  0.00    +0.028 C 
ATOM     17  C   UNL     1      -0.004  -0.225  -0.071  0.00  0.00    +0.068 C 
BRANCH  17  18
ATOM     18  C   UNL     1      -1.324  -0.986  -0.210  0.00  0.00    +0.003 C 
BRANCH  18  19
ATOM     19  C   UNL     1      -1.035  -2.461  -0.495  0.00  0.00    -0.078 C 
BRANCH  19  20
ATOM     20  N   UNL     1      -2.303  -3.191  -0.629  0.00  0.00    +0.376 N 
ATOM     21  C   UNL     1      -3.027  -2.703  -1.810  0.00  0.00    -0.097 C 
ATOM     22  C   UNL     1      -2.027  -4.626  -0.783  0.00  0.00    -0.097 C 
ATOM     23  H   UNL     1      -2.865  -3.043   0.196  0.00  0.00    -0.083 HD
ENDBRANCH  19  20
ENDBRANCH  18  19
ENDBRANCH  17  18
ENDBRANCH   1  17
TORSDOF 7
