REMARK  Name = ZINC33031512
REMARK  11 active torsions:
REMARK  status: ('A' for Active; 'I' for Inactive)
REMARK    1  A    between atoms: C_1  and  C_2
REMARK    2  A    between atoms: C_2  and  C_3
REMARK    3  A    between atoms: C_3  and  N_4
REMARK    4  A    between atoms: N_7  and  C_10
REMARK    5  A    between atoms: C_10  and  C_11
REMARK    6  A    between atoms: C_11  and  C_12
REMARK    7  A    between atoms: C_12  and  N_13
REMARK    8  A    between atoms: C_22  and  C_23
REMARK    9  A    between atoms: C_22  and  C_24
REMARK   10  A    between atoms: N_26  and  C_27
REMARK   11  A    between atoms: C_30  and  C_33
REMARK                            x       y       z     vdW  Elec       q    Type
REMARK                         _______ _______ _______ _____ _____    ______ ____
ROOT
ATOM      1  N   UNL     1      -3.221   2.405  -0.031  0.00  0.00    -0.281 N 
ATOM      2  C   UNL     1      -2.208   1.534   0.185  0.00  0.00    +0.264 C 
ATOM      3  O   UNL     1      -2.405   0.418   0.629  0.00  0.00    -0.268 OA
ATOM      4  C   UNL     1      -0.859   2.006  -0.150  0.00  0.00    +0.109 A 
ATOM      5  C   UNL     1       0.327   1.337  -0.220  0.00  0.00    +0.079 A 
ATOM      6  C   UNL     1       1.316   2.267  -0.572  0.00  0.00    +0.153 A 
ATOM      7  C   UNL     1       0.699   3.511  -0.702  0.00  0.00    +0.088 A 
ATOM      8  N   UNL     1      -0.626   3.351  -0.431  0.00  0.00    -0.331 N 
ATOM      9  C   UNL     1      -1.708   4.340  -0.404  0.00  0.00    +0.157 C 
ATOM     10  C   UNL     1      -3.025   3.651  -0.763  0.00  0.00    +0.128 C 
ATOM     11  C   UNL     1      -3.032   3.349  -2.263  0.00  0.00    +0.043 C 
ATOM     12  C   UNL     1       1.722   4.421  -1.061  0.00  0.00    +0.067 A 
ATOM     13  C   UNL     1       2.870   3.724  -1.129  0.00  0.00    +0.198 A 
ATOM     14  O   UNL     1       2.630   2.436  -0.835  0.00  0.00    -0.461 OA
ENDROOT
BRANCH  10  15
ATOM     15  C   UNL     1      -4.165   4.584  -0.449  0.00  0.00    +0.238 C 
ATOM     16  O   UNL     1      -4.763   5.136  -1.348  0.00  0.00    -0.273 OA
ATOM     17  N   UNL     1      -4.521   4.805   0.833  0.00  0.00    -0.311 N 
ATOM     18  H   UNL     1      -3.927   4.373   1.651  0.00  0.00    +0.149 HD
BRANCH  17  19
ATOM     19  C   UNL     1      -5.699   5.622   1.135  0.00  0.00    +0.073 C 
ATOM     20  C   UNL     1      -5.325   7.104   1.060  0.00  0.00    +0.022 C 
ATOM     21  C   UNL     1      -4.222   7.404   2.076  0.00  0.00    +0.005 C 
ATOM     22  C   UNL     1      -4.723   7.075   3.484  0.00  0.00    -0.014 C 
ATOM     23  C   UNL     1      -5.096   5.593   3.559  0.00  0.00    +0.005 C 
ATOM     24  C   UNL     1      -6.200   5.293   2.543  0.00  0.00    +0.022 C 
ATOM     25  C   UNL     1      -3.619   7.375   4.501  0.00  0.00    +0.007 C 
ENDBRANCH  17  19
ENDBRANCH  10  15
BRANCH   1  26
ATOM     26  C   UNL     1      -4.554   2.087   0.486  0.00  0.00    +0.110 C 
BRANCH  26  27
ATOM     27  C   UNL     1      -5.380   1.414  -0.612  0.00  0.00    +0.034 C 
BRANCH  27  28
ATOM     28  C   UNL     1      -6.807   1.184  -0.108  0.00  0.00    +0.086 C 
BRANCH  28  32
ATOM     29  N   UNL     1      -9.766  -0.080  -2.845  0.00  0.00    +0.381 N 
ATOM     30  C   UNL     1      -9.578  -0.870  -1.621  0.00  0.00    -0.063 C 
ATOM     31  C   UNL     1      -8.857  -0.019  -0.573  0.00  0.00    +0.066 C 
ATOM     32  N   UNL     1      -7.564   0.426  -1.113  0.00  0.00    -0.306 NA
ATOM     33  C   UNL     1      -7.752   1.216  -2.338  0.00  0.00    +0.066 C 
ATOM     34  C   UNL     1      -8.474   0.365  -3.385  0.00  0.00    -0.063 C 
ATOM     35  H   UNL     1     -10.352   0.814  -2.586  0.00  0.00    -0.082 HD
BRANCH  29  36
ATOM     36  C   UNL     1     -10.524  -0.838  -3.850  0.00  0.00    -0.079 C 
BRANCH  36  38
ATOM     37  C   UNL     1     -11.703  -0.700  -6.048  0.00  0.00    +0.002 C 
ATOM     38  C   UNL     1     -10.914   0.090  -5.002  0.00  0.00    -0.022 C 
ENDBRANCH  36  38
ENDBRANCH  29  36
ENDBRANCH  28  32
ENDBRANCH  27  28
ENDBRANCH  26  27
ENDBRANCH   1  26
TORSDOF 8
