REMARK  Name = ZINC03995929
REMARK  12 active torsions:
REMARK  status: ('A' for Active; 'I' for Inactive)
REMARK    1  A    between atoms: C_1  and  C_2
REMARK    2  A    between atoms: C_4  and  O_42
REMARK    3  A    between atoms: C_6  and  N_67
REMARK    4  A    between atoms: C_9  and  O_12
REMARK    5  A    between atoms: O_12  and  C_13
REMARK    6  A    between atoms: C_16  and  C_38
REMARK    7  A    between atoms: C_16  and  O_41
REMARK    8  A    between atoms: C_20  and  O_37
REMARK    9  A    between atoms: C_23  and  O_24
REMARK   10  A    between atoms: C_31  and  O_35
REMARK   11  A    between atoms: O_35  and  C_36
REMARK   12  A    between atoms: C_38  and  C_40
REMARK                            x       y       z     vdW  Elec       q    Type
REMARK                         _______ _______ _______ _____ _____    ______ ____
ROOT
ATOM      1  C   UNL     1       2.172  -4.265   0.369  0.00  0.00    +0.158 C 
ATOM      2  C   UNL     1       3.563  -4.823   0.075  0.00  0.00    +0.079 C 
ATOM      3  C   UNL     1       4.591  -3.982   0.841  0.00  0.00    +0.130 C 
ATOM      4  C   UNL     1       4.654  -2.598   0.199  0.00  0.00    +0.082 C 
ATOM      5  C   UNL     1       3.272  -2.012   0.063  0.00  0.00    +0.007 A 
ATOM      6  C   UNL     1       2.135  -2.777   0.135  0.00  0.00    +0.030 A 
ATOM      7  C   UNL     1       0.876  -2.178  -0.007  0.00  0.00    +0.134 A 
ATOM      8  C   UNL     1       0.764  -0.806  -0.220  0.00  0.00    +0.078 A 
ATOM      9  C   UNL     1       1.932  -0.020  -0.290  0.00  0.00    +0.078 A 
ATOM     10  C   UNL     1       3.177  -0.630  -0.147  0.00  0.00    +0.132 A 
ATOM     11  C   UNL     1       1.832   1.433  -0.513  0.00  0.00    +0.198 C 
ATOM     12  O   UNL     1       2.839   2.111  -0.573  0.00  0.00    -0.286 OA
ATOM     13  C   UNL     1       0.504   2.064  -0.663  0.00  0.00    +0.037 A 
ATOM     14  C   UNL     1       0.400   3.435  -0.873  0.00  0.00    +0.012 A 
ATOM     15  C   UNL     1      -0.847   4.023  -1.012  0.00  0.00    +0.004 A 
ATOM     16  C   UNL     1      -1.994   3.258  -0.944  0.00  0.00    +0.046 A 
ATOM     17  C   UNL     1      -1.913   1.886  -0.730  0.00  0.00    +0.132 A 
ATOM     18  C   UNL     1      -0.661   1.278  -0.593  0.00  0.00    +0.075 A 
ATOM     19  C   UNL     1      -0.560  -0.176  -0.370  0.00  0.00    +0.202 C 
ATOM     20  O   UNL     1      -1.567  -0.854  -0.310  0.00  0.00    -0.286 OA
ENDROOT
BRANCH   3  21
ATOM     21  C   UNL     1       4.170  -3.854   2.283  0.00  0.00    +0.162 C 
ATOM     22  O   UNL     1       3.557  -2.881   2.648  0.00  0.00    -0.295 OA
ATOM     23  C   UNL     1       4.516  -4.941   3.268  0.00  0.00    +0.089 C 
ENDBRANCH   3  21
BRANCH  10  24
ATOM     24  O   UNL     1       4.305   0.119  -0.213  0.00  0.00    -0.506 OA
ATOM     25  H   UNL     1       4.668   0.206  -1.105  0.00  0.00    +0.292 HD
ENDBRANCH  10  24
BRANCH  17  26
ATOM     26  O   UNL     1      -3.043   1.140  -0.659  0.00  0.00    -0.494 OA
ATOM     27  C   UNL     1      -4.286   1.829  -0.807  0.00  0.00    +0.277 C 
ENDBRANCH  17  26
BRANCH   7  28
ATOM     28  O   UNL     1      -0.243  -2.941   0.063  0.00  0.00    -0.506 OA
ATOM     29  H   UNL     1      -0.577  -3.230  -0.797  0.00  0.00    +0.292 HD
ENDBRANCH   7  28
BRANCH   3  30
ATOM     30  O   UNL     1       5.874  -4.606   0.768  0.00  0.00    -0.381 OA
ATOM     31  H   UNL     1       6.573  -4.126   1.232  0.00  0.00    +0.211 HD
ENDBRANCH   3  30
BRANCH   1  32
ATOM     32  O   UNL     1       1.219  -4.901  -0.486  0.00  0.00    -0.343 OA
BRANCH  32  38
ATOM     33  C   UNL     1       2.108  -9.364   0.851  0.00  0.00    +0.040 C 
ATOM     34  C   UNL     1       1.008  -8.303   0.780  0.00  0.00    +0.145 C 
ATOM     35  C   UNL     1      -0.153  -8.828  -0.068  0.00  0.00    +0.129 C 
ATOM     36  C   UNL     1      -1.223  -7.738  -0.184  0.00  0.00    -0.039 C 
ATOM     37  C   UNL     1      -0.590  -6.477  -0.781  0.00  0.00    +0.048 C 
ATOM     38  C   UNL     1       0.589  -6.044   0.095  0.00  0.00    +0.250 C 
ATOM     39  O   UNL     1       1.532  -7.114   0.187  0.00  0.00    -0.346 OA
BRANCH  36  42
ATOM     40  H   UNL     1      -3.026  -7.503  -1.149  0.00  0.00    -0.090 HD
ATOM     41  H   UNL     1      -1.952  -8.479  -1.961  0.00  0.00    -0.090 HD
ATOM     42  N   UNL     1      -2.316  -8.225  -1.044  0.00  0.00    +0.382 N 
ATOM     43  H   UNL     1      -2.742  -9.053  -0.612  0.00  0.00    -0.090 HD
ENDBRANCH  36  42
BRANCH  35  44
ATOM     44  O   UNL     1      -0.715  -9.985   0.554  0.00  0.00    -0.391 OA
ATOM     45  H   UNL     1      -0.090 -10.715   0.664  0.00  0.00    +0.210 HD
ENDBRANCH  35  44
ENDBRANCH  32  38
ENDBRANCH   1  32
TORSDOF 9
