REMARK  Name = ZINC04185190
REMARK  10 active torsions:
REMARK  status: ('A' for Active; 'I' for Inactive)
REMARK    1  A    between atoms: C_4  and  S_7
REMARK    2  A    between atoms: S_7  and  C_8
REMARK    3  A    between atoms: C_10  and  N_17
REMARK    4  A    between atoms: C_12  and  N_14
REMARK    5  A    between atoms: N_17  and  C_18
REMARK    6  A    between atoms: C_20  and  O_33
REMARK    7  A    between atoms: C_22  and  O_32
REMARK    8  A    between atoms: C_24  and  O_31
REMARK    9  A    between atoms: C_26  and  C_29
REMARK   10  A    between atoms: C_29  and  O_30
REMARK                            x       y       z     vdW  Elec       q    Type
REMARK                         _______ _______ _______ _____ _____    ______ ____
ROOT
ATOM      1  N   UNL     1       2.045   1.526   1.176  0.00  0.00    -0.317 N 
ATOM      2  H   UNL     1       2.534   0.689   1.155  0.00  0.00    +0.149 HD
ENDROOT
BRANCH   1   5
ATOM      3  C   UNL     1       2.779   2.688   4.589  0.00  0.00    +0.017 A 
ATOM      4  C   UNL     1       2.765   1.898   3.447  0.00  0.00    +0.038 A 
ATOM      5  C   UNL     1       2.057   2.315   2.329  0.00  0.00    +0.032 A 
ATOM      6  C   UNL     1       1.356   3.515   2.358  0.00  0.00    +0.055 A 
ATOM      7  C   UNL     1       1.368   4.296   3.498  0.00  0.00    +0.129 A 
ATOM      8  C   UNL     1       2.076   3.887   4.612  0.00  0.00    +0.048 A 
BRANCH   7   9
ATOM      9  N   UNL     1       0.621   5.573   3.526  0.00  0.00    +0.057 N 
ATOM     10  O   UNL     1      -0.004   5.934   2.545  0.00  0.00    -0.126 OA
ATOM     11  O   UNL     1       0.630   6.262   4.530  0.00  0.00    -0.126 OA
ENDBRANCH   7   9
BRANCH   3  12
ATOM     12  S   UNL     1       3.681   2.167   6.010  0.00  0.00    -0.089 S 
BRANCH  12  16
ATOM     13  C   UNL     1       7.892   3.646   5.237  0.00  0.00    +0.000 A 
ATOM     14  C   UNL     1       7.629   2.859   6.344  0.00  0.00    +0.001 A 
ATOM     15  C   UNL     1       6.347   2.407   6.583  0.00  0.00    +0.015 A 
ATOM     16  C   UNL     1       5.319   2.742   5.709  0.00  0.00    +0.013 A 
ATOM     17  C   UNL     1       5.588   3.527   4.594  0.00  0.00    +0.015 A 
ATOM     18  C   UNL     1       6.872   3.981   4.365  0.00  0.00    +0.001 A 
ENDBRANCH  12  16
ENDBRANCH   3  12
ENDBRANCH   1   5
BRANCH   1  19
ATOM     19  C   UNL     1       1.292   1.964  -0.003  0.00  0.00    +0.235 C 
ATOM     20  C   UNL     1       2.037   1.538  -1.271  0.00  0.00    +0.192 C 
ATOM     21  C   UNL     1       2.123   0.010  -1.315  0.00  0.00    +0.178 C 
ATOM     22  C   UNL     1       0.707  -0.572  -1.250  0.00  0.00    +0.177 C 
ATOM     23  C   UNL     1       0.013  -0.065   0.017  0.00  0.00    +0.177 C 
ATOM     24  O   UNL     1      -0.005   1.364   0.010  0.00  0.00    -0.348 OA
BRANCH  22  25
ATOM     25  O   UNL     1      -0.034  -0.155  -2.399  0.00  0.00    -0.386 OA
ATOM     26  H   UNL     1       0.350  -0.442  -3.239  0.00  0.00    +0.210 HD
ENDBRANCH  22  25
BRANCH  21  27
ATOM     27  O   UNL     1       2.753  -0.401  -2.530  0.00  0.00    -0.386 OA
ATOM     28  H   UNL     1       3.654  -0.068  -2.638  0.00  0.00    +0.210 HD
ENDBRANCH  21  27
BRANCH  20  29
ATOM     29  O   UNL     1       1.332   2.011  -2.420  0.00  0.00    -0.385 OA
ATOM     30  H   UNL     1       1.240   2.973  -2.458  0.00  0.00    +0.210 HD
ENDBRANCH  20  29
BRANCH  23  31
ATOM     31  C   UNL     1      -1.422  -0.593   0.060  0.00  0.00    +0.190 C 
BRANCH  31  32
ATOM     32  O   UNL     1      -2.032  -0.217   1.296  0.00  0.00    -0.392 OA
ATOM     33  H   UNL     1      -2.945  -0.519   1.392  0.00  0.00    +0.210 HD
ENDBRANCH  31  32
ENDBRANCH  23  31
ENDBRANCH   1  19
TORSDOF 10
