REMARK  Name = ZINC40463781
REMARK  9 active torsions:
REMARK  status: ('A' for Active; 'I' for Inactive)
REMARK    1  A    between atoms: C_1  and  C_2
REMARK    2  A    between atoms: C_3  and  N_11
REMARK    3  A    between atoms: C_5  and  C_9
REMARK    4  A    between atoms: C_12  and  C_14
REMARK    5  A    between atoms: C_14  and  C_16
REMARK    6  A    between atoms: C_14  and  N_20
REMARK    7  A    between atoms: C_16  and  C_17
REMARK    8  A    between atoms: C_17  and  S_18
REMARK    9  A    between atoms: S_18  and  C_19
REMARK                            x       y       z     vdW  Elec       q    Type
REMARK                         _______ _______ _______ _____ _____    ______ ____
ROOT
ATOM      1  N   UNL     1      -0.010   0.019  -2.413  0.00  0.00    -0.287 N 
ATOM      2  C   UNL     1       0.096  -0.641  -3.584  0.00  0.00    +0.203 C 
ATOM      3  O   UNL     1       0.112  -1.853  -3.597  0.00  0.00    -0.277 OA
ATOM      4  H   UNL     1      -0.103   0.984  -2.407  0.00  0.00    +0.155 HD
ENDROOT
BRANCH   1   7
ATOM      5  C   UNL     1      -1.264   1.190  -0.148  0.00  0.00    +0.048 C 
ATOM      6  C   UNL     1      -0.584  -0.153  -0.074  0.00  0.00    +0.006 A 
ATOM      7  C   UNL     1       0.017  -0.689  -1.206  0.00  0.00    +0.040 A 
ATOM      8  C   UNL     1       0.642  -1.924  -1.141  0.00  0.00    +0.042 A 
ATOM      9  C   UNL     1       0.666  -2.627   0.064  0.00  0.00    +0.056 A 
ATOM     10  C   UNL     1       0.060  -2.082   1.198  0.00  0.00    +0.057 A 
ATOM     11  C   UNL     1      -0.556  -0.847   1.124  0.00  0.00    +0.129 A 
ATOM     12  F   UNL     1      -1.137  -0.317   2.223  0.00  0.00    -0.205 F 
BRANCH   9  13
ATOM     13  C   UNL     1       1.310  -3.904   0.138  0.00  0.00    +0.099 C 
ATOM     14  N   UNL     1       1.820  -4.917   0.197  0.00  0.00    -0.191 NA
ENDBRANCH   9  13
ENDBRANCH   1   7
BRANCH   2  15
ATOM     15  C   UNL     1       0.193   0.128  -4.876  0.00  0.00    +0.014 C 
BRANCH  15  16
ATOM     16  N   UNL     1       0.765  -0.735  -5.918  0.00  0.00    +0.386 N 
ATOM     17  H   UNL     1       1.686  -1.037  -5.636  0.00  0.00    -0.089 HD
ATOM     18  H   UNL     1       0.173  -1.541  -6.050  0.00  0.00    -0.089 HD
ATOM     19  H   UNL     1       0.830  -0.220  -6.783  0.00  0.00    -0.089 HD
ENDBRANCH  15  16
BRANCH  15  20
ATOM     20  C   UNL     1      -1.204   0.586  -5.303  0.00  0.00    +0.003 C 
BRANCH  20  21
ATOM     21  C   UNL     1      -1.092   1.471  -6.546  0.00  0.00    +0.068 C 
BRANCH  21  22
ATOM     22  S   UNL     1      -2.747   2.014  -7.053  0.00  0.00    -0.164 S 
ATOM     23  C   UNL     1      -2.444   3.039  -8.518  0.00  0.00    +0.084 C 
ENDBRANCH  21  22
ENDBRANCH  20  21
ENDBRANCH  15  20
ENDBRANCH   2  15
TORSDOF 7
