REMARK  Name = ZINC08960221
REMARK  11 active torsions:
REMARK  status: ('A' for Active; 'I' for Inactive)
REMARK    1  A    between atoms: C_1  and  C_2
REMARK    2  A    between atoms: C_2  and  O_3
REMARK    3  A    between atoms: O_3  and  C_4
REMARK    4  A    between atoms: N_13  and  C_14
REMARK    5  A    between atoms: C_14  and  C_15
REMARK    6  A    between atoms: C_15  and  C_16
REMARK    7  A    between atoms: C_16  and  N_67
REMARK    8  A    between atoms: C_22  and  C_24
REMARK    9  A    between atoms: C_30  and  O_33
REMARK   10  A    between atoms: O_33  and  C_34
REMARK   11  A    between atoms: C_34  and  C_35
REMARK                            x       y       z     vdW  Elec       q    Type
REMARK                         _______ _______ _______ _____ _____    ______ ____
ROOT
ATOM      1  C   UNL     1      -0.054   1.020  -0.403  0.00  0.00    +0.122 A 
ATOM      2  C   UNL     1       0.172   2.392  -0.453  0.00  0.00    +0.048 A 
ATOM      3  C   UNL     1       1.439   2.910  -0.404  0.00  0.00    +0.032 A 
ATOM      4  C   UNL     1       2.565   2.060  -0.301  0.00  0.00    +0.081 A 
ATOM      5  C   UNL     1       2.300   0.673  -0.253  0.00  0.00    +0.044 A 
ATOM      6  C   UNL     1       1.028   0.159  -0.302  0.00  0.00    +0.063 A 
ATOM      7  S   UNL     1       3.931  -0.020  -0.127  0.00  0.00    -0.052 S 
ATOM      8  C   UNL     1       4.833   1.523  -0.146  0.00  0.00    +0.168 A 
ATOM      9  N   UNL     1       3.870   2.409  -0.242  0.00  0.00    -0.224 NA
ATOM     10  N   UNL     1       6.200   1.730  -0.077  0.00  0.00    -0.244 N 
ATOM     11  C   UNL     1       7.037   0.679   0.020  0.00  0.00    +0.288 C 
ATOM     12  O   UNL     1       6.601  -0.455  -0.050  0.00  0.00    -0.266 OA
ENDROOT
BRANCH  11  13
ATOM     13  C   UNL     1       8.477   0.901   0.210  0.00  0.00    +0.191 A 
ATOM     14  C   UNL     1       9.425  -0.072   0.209  0.00  0.00    +0.063 A 
ATOM     15  C   UNL     1      10.702   0.607   0.428  0.00  0.00    +0.025 A 
ATOM     16  C   UNL     1      12.029   0.177   0.528  0.00  0.00    +0.012 A 
ATOM     17  C   UNL     1      13.023   1.088   0.748  0.00  0.00    +0.004 A 
ATOM     18  C   UNL     1      12.726   2.438   0.873  0.00  0.00    +0.049 A 
ATOM     19  C   UNL     1      11.422   2.885   0.778  0.00  0.00    +0.163 A 
ATOM     20  C   UNL     1      10.392   1.972   0.554  0.00  0.00    +0.177 A 
ATOM     21  O   UNL     1       9.057   2.102   0.417  0.00  0.00    -0.447 OA
BRANCH  19  22
ATOM     22  O   UNL     1      11.144   4.210   0.903  0.00  0.00    -0.489 OA
BRANCH  22  23
ATOM     23  C   UNL     1      12.250   5.086   1.131  0.00  0.00    +0.226 C 
ATOM     24  C   UNL     1      11.745   6.526   1.243  0.00  0.00    +0.048 C 
ENDBRANCH  22  23
ENDBRANCH  19  22
ENDBRANCH  11  13
BRANCH   1  25
ATOM     25  O   UNL     1      -1.321   0.529  -0.452  0.00  0.00    -0.492 OA
BRANCH  25  27
ATOM     26  C   UNL     1      -3.724   0.747  -0.599  0.00  0.00    +0.048 C 
ATOM     27  C   UNL     1      -2.382   1.481  -0.556  0.00  0.00    +0.225 C 
ENDBRANCH  25  27
ENDBRANCH   1  25
BRANCH  10  28
ATOM     28  C   UNL     1       6.737   3.093  -0.108  0.00  0.00    +0.114 C 
BRANCH  28  29
ATOM     29  C   UNL     1       6.835   3.636   1.319  0.00  0.00    +0.001 C 
BRANCH  29  30
ATOM     30  C   UNL     1       7.395   5.059   1.286  0.00  0.00    -0.077 C 
BRANCH  30  36
ATOM     31  C   UNL     1       6.155   5.751   3.248  0.00  0.00    -0.050 C 
ATOM     32  C   UNL     1       6.302   6.237   4.692  0.00  0.00    +0.141 C 
ATOM     33  O   UNL     1       7.060   7.450   4.707  0.00  0.00    -0.383 OA
ATOM     34  C   UNL     1       8.365   7.320   4.138  0.00  0.00    +0.141 C 
ATOM     35  C   UNL     1       8.239   6.845   2.688  0.00  0.00    -0.050 C 
ATOM     36  N   UNL     1       7.504   5.563   2.672  0.00  0.00    +0.383 N 
ATOM     37  H   UNL     1       8.016   4.876   3.238  0.00  0.00    -0.082 HD
ENDBRANCH  30  36
ENDBRANCH  29  30
ENDBRANCH  28  29
ENDBRANCH  10  28
TORSDOF 9
