REMARK  Name = ZINC39652742
REMARK  10 active torsions:
REMARK  status: ('A' for Active; 'I' for Inactive)
REMARK    1  A    between atoms: C_1  and  C_2
REMARK    2  A    between atoms: C_2  and  O_3
REMARK    3  A    between atoms: O_3  and  C_4
REMARK    4  A    between atoms: C_9  and  C_10
REMARK    5  A    between atoms: C_10  and  C_11
REMARK    6  A    between atoms: C_11  and  N_12
REMARK    7  A    between atoms: C_13  and  C_15
REMARK    8  A    between atoms: C_26  and  C_28
REMARK    9  A    between atoms: C_33  and  O_34
REMARK   10  A    between atoms: O_34  and  C_35
REMARK                            x       y       z     vdW  Elec       q    Type
REMARK                         _______ _______ _______ _____ _____    ______ ____
ROOT
ATOM      1  C   UNL     1       5.612   1.895  -5.066  0.00  0.00    +0.100 C 
ATOM      2  C   UNL     1       5.892   0.958  -6.262  0.00  0.00    +0.121 C 
ATOM      3  N   UNL     1       7.214   1.389  -6.774  0.00  0.00    -0.296 N 
ATOM      4  C   UNL     1       8.002   1.686  -5.554  0.00  0.00    +0.115 C 
ATOM      5  C   UNL     1       7.000   2.370  -4.603  0.00  0.00    -0.004 C 
ATOM      6  C   UNL     1       7.107   3.887  -4.726  0.00  0.00    -0.010 C 
ATOM      7  C   UNL     1       8.474   4.341  -4.207  0.00  0.00    -0.082 C 
ATOM      8  N   UNL     1       8.629   3.931  -2.806  0.00  0.00    +0.379 N 
ATOM      9  C   UNL     1       8.617   2.466  -2.709  0.00  0.00    -0.082 C 
ATOM     10  C   UNL     1       7.256   1.933  -3.164  0.00  0.00    -0.010 C 
ATOM     11  C   UNL     1       7.611   1.488  -8.058  0.00  0.00    +0.252 C 
ATOM     12  O   UNL     1       8.765   1.768  -8.318  0.00  0.00    -0.270 OA
ATOM     13  H   UNL     1       9.504   4.284  -2.449  0.00  0.00    -0.086 HD
ATOM     14  H   UNL     1       7.869   4.309  -2.261  0.00  0.00    -0.086 HD
ENDROOT
BRANCH  11  15
ATOM     15  C   UNL     1       6.644   1.257  -9.149  0.00  0.00    +0.099 A 
ATOM     16  C   UNL     1       5.629   0.303  -9.010  0.00  0.00    +0.020 A 
ATOM     17  C   UNL     1       4.748   0.124 -10.062  0.00  0.00    +0.021 A 
ATOM     18  C   UNL     1       4.894   0.885 -11.208  0.00  0.00    +0.114 A 
ATOM     19  N   UNL     1       5.858   1.778 -11.317  0.00  0.00    -0.220 NA
ATOM     20  C   UNL     1       6.723   1.993 -10.340  0.00  0.00    +0.233 A 
BRANCH  20  21
ATOM     21  O   UNL     1       7.694   2.924 -10.494  0.00  0.00    -0.437 OA
BRANCH  21  22
ATOM     22  C   UNL     1       7.796   3.547 -11.697  0.00  0.00    +0.130 A 
ATOM     23  C   UNL     1       8.771   3.154 -12.602  0.00  0.00    +0.046 A 
ATOM     24  C   UNL     1       8.873   3.789 -13.825  0.00  0.00    +0.004 A 
ATOM     25  C   UNL     1       8.004   4.815 -14.147  0.00  0.00    +0.000 A 
ATOM     26  C   UNL     1       7.031   5.209 -13.246  0.00  0.00    +0.004 A 
ATOM     27  C   UNL     1       6.922   4.574 -12.025  0.00  0.00    +0.046 A 
ENDBRANCH  21  22
ENDBRANCH  20  21
ENDBRANCH  11  15
BRANCH   1  29
ATOM     28  N   UNL     1       4.126   1.797  -3.091  0.00  0.00    -0.315 N 
ATOM     29  C   UNL     1       4.920   1.141  -3.960  0.00  0.00    +0.218 C 
ATOM     30  O   UNL     1       5.079  -0.057  -3.851  0.00  0.00    -0.275 OA
ATOM     31  H   UNL     1       3.999   2.755  -3.178  0.00  0.00    +0.149 HD
BRANCH  28  32
ATOM     32  C   UNL     1       3.453   1.064  -2.016  0.00  0.00    +0.109 C 
BRANCH  32  33
ATOM     33  C   UNL     1       2.619   2.036  -1.179  0.00  0.00    +0.057 C 
BRANCH  33  39
ATOM     34  C   UNL     1       2.591   1.035   1.119  0.00  0.00    +0.124 A 
ATOM     35  C   UNL     1       1.950   0.345   2.138  0.00  0.00    +0.046 A 
ATOM     36  C   UNL     1       0.654  -0.099   1.960  0.00  0.00    +0.004 A 
ATOM     37  C   UNL     1      -0.004   0.144   0.768  0.00  0.00    +0.000 A 
ATOM     38  C   UNL     1       0.633   0.831  -0.248  0.00  0.00    +0.007 A 
ATOM     39  C   UNL     1       1.927   1.282  -0.073  0.00  0.00    -0.004 A 
BRANCH  34  40
ATOM     40  O   UNL     1       3.866   1.472   1.292  0.00  0.00    -0.492 OA
BRANCH  40  42
ATOM     41  C   UNL     1       5.909   1.749   2.553  0.00  0.00    +0.048 C 
ATOM     42  C   UNL     1       4.488   1.182   2.545  0.00  0.00    +0.225 C 
ENDBRANCH  40  42
ENDBRANCH  34  40
ENDBRANCH  33  39
ENDBRANCH  32  33
ENDBRANCH  28  32
ENDBRANCH   1  29
TORSDOF 9
