REMARK  Name = ZINC09541383
REMARK  11 active torsions:
REMARK  status: ('A' for Active; 'I' for Inactive)
REMARK    1  A    between atoms: C_1  and  C_2
REMARK    2  A    between atoms: C_2  and  O_3
REMARK    3  A    between atoms: O_3  and  C_4
REMARK    4  A    between atoms: C_8  and  C_11
REMARK    5  A    between atoms: C_9  and  O_10
REMARK    6  A    between atoms: C_14  and  C_28
REMARK    7  A    between atoms: C_16  and  C_18
REMARK    8  A    between atoms: C_21  and  O_26
REMARK    9  A    between atoms: C_22  and  O_24
REMARK   10  A    between atoms: O_24  and  C_25
REMARK   11  A    between atoms: O_26  and  C_27
REMARK                            x       y       z     vdW  Elec       q    Type
REMARK                         _______ _______ _______ _____ _____    ______ ____
ROOT
ATOM      1  C   UNL     1       3.173   3.061  -2.132  0.00  0.00    -0.028 C 
ATOM      2  C   UNL     1       3.333   4.460  -2.735  0.00  0.00    +0.044 C 
ATOM      3  C   UNL     1       2.626   5.464  -1.866  0.00  0.00    +0.040 C 
ATOM      4  N   UNL     1       2.255   5.212  -0.667  0.00  0.00    -0.299 NA
ATOM      5  C   UNL     1       2.458   3.932  -0.000  0.00  0.00    +0.081 C 
ATOM      6  N   UNL     1       3.485   3.140  -0.693  0.00  0.00    +0.401 N 
ATOM      7  H   UNL     1       4.401   3.586  -0.567  0.00  0.00    -0.081 HD
ATOM      8  H   UNL     1       3.509   2.192  -0.297  0.00  0.00    -0.081 HD
ENDROOT
BRANCH   3   9
ATOM      9  C   UNL     1       2.347   6.802  -2.422  0.00  0.00    -0.004 A 
ATOM     10  C   UNL     1       2.741   7.117  -3.724  0.00  0.00    +0.011 A 
ATOM     11  C   UNL     1       2.472   8.367  -4.240  0.00  0.00    +0.016 A 
ATOM     12  C   UNL     1       1.823   9.313  -3.466  0.00  0.00    +0.018 A 
ATOM     13  C   UNL     1       1.434   9.010  -2.172  0.00  0.00    +0.016 A 
ATOM     14  C   UNL     1       1.692   7.761  -1.646  0.00  0.00    +0.011 A 
ATOM     15 BR   UNL     1       1.465  11.028  -4.178  0.00  0.00    -0.050 Br
ENDBRANCH   3   9
BRANCH   1  20
ATOM     16  C   UNL     1       4.692   0.688  -4.660  0.00  0.00    +0.162 A 
ATOM     17  C   UNL     1       5.883   0.352  -4.036  0.00  0.00    +0.049 A 
ATOM     18  C   UNL     1       6.192   0.892  -2.801  0.00  0.00    +0.004 A 
ATOM     19  C   UNL     1       5.318   1.772  -2.190  0.00  0.00    +0.006 A 
ATOM     20  C   UNL     1       4.126   2.107  -2.805  0.00  0.00    -0.016 A 
ATOM     21  C   UNL     1       3.810   1.569  -4.042  0.00  0.00    +0.160 A 
BRANCH  21  22
ATOM     22  O   UNL     1       2.641   1.902  -4.651  0.00  0.00    -0.503 OA
ATOM     23  H   UNL     1       2.703   2.678  -5.225  0.00  0.00    +0.292 HD
ENDBRANCH  21  22
BRANCH  16  24
ATOM     24  O   UNL     1       4.386   0.157  -5.874  0.00  0.00    -0.489 OA
BRANCH  24  26
ATOM     25  C   UNL     1       4.825  -1.231  -7.804  0.00  0.00    +0.048 C 
ATOM     26  C   UNL     1       5.339  -0.740  -6.449  0.00  0.00    +0.226 C 
ENDBRANCH  24  26
ENDBRANCH  16  24
ENDBRANCH   1  20
BRANCH   5  27
ATOM     27  C   UNL     1       1.160   3.166   0.008  0.00  0.00    -0.037 A 
ATOM     28  C   UNL     1       1.175   1.783   0.000  0.00  0.00    +0.007 A 
ATOM     29  C   UNL     1      -0.013   1.076   0.008  0.00  0.00    +0.049 A 
ATOM     30  C   UNL     1      -1.222   1.752   0.017  0.00  0.00    +0.161 A 
ATOM     31  C   UNL     1      -1.237   3.144   0.030  0.00  0.00    +0.162 A 
ATOM     32  C   UNL     1      -0.043   3.847   0.023  0.00  0.00    +0.053 A 
BRANCH  31  33
ATOM     33  O   UNL     1      -2.421   3.812   0.044  0.00  0.00    -0.491 OA
ATOM     34  C   UNL     1      -2.361   5.240   0.051  0.00  0.00    +0.277 C 
ENDBRANCH  31  33
BRANCH  30  35
ATOM     35  O   UNL     1      -2.391   1.058   0.019  0.00  0.00    -0.491 OA
ATOM     36  C   UNL     1      -2.299  -0.368   0.011  0.00  0.00    +0.277 C 
ENDBRANCH  30  35
ENDBRANCH   5  27
TORSDOF 8
