REMARK  Name = ZINC39481927
REMARK  8 active torsions:
REMARK  status: ('A' for Active; 'I' for Inactive)
REMARK    1  A    between atoms: C_4  and  C_7
REMARK    2  A    between atoms: C_10  and  N_27
REMARK    3  A    between atoms: C_11  and  N_13
REMARK    4  A    between atoms: C_17  and  C_20
REMARK    5  A    between atoms: C_25  and  O_26
REMARK    6  A    between atoms: N_27  and  S_28
REMARK    7  A    between atoms: S_28  and  C_31
REMARK    8  A    between atoms: C_36  and  O_37
REMARK                            x       y       z     vdW  Elec       q    Type
REMARK                         _______ _______ _______ _____ _____    ______ ____
ROOT
ATOM      1  C   UNL     1       3.886  -1.085   1.177  0.00  0.00    -0.016 A 
ATOM      2  C   UNL     1       4.982  -0.263   0.920  0.00  0.00    +0.010 A 
ATOM      3  C   UNL     1       6.199  -0.819   0.582  0.00  0.00    +0.027 A 
ATOM      4  C   UNL     1       6.335  -2.198   0.498  0.00  0.00    +0.069 A 
ATOM      5  C   UNL     1       5.241  -3.025   0.755  0.00  0.00    +0.053 A 
ATOM      6  C   UNL     1       4.021  -2.470   1.099  0.00  0.00    +0.033 A 
ENDROOT
BRANCH   5   7
ATOM      7  N   UNL     1       5.379  -4.416   0.669  0.00  0.00    -0.331 N 
ATOM      8  C   UNL     1       5.766  -5.212   1.844  0.00  0.00    +0.086 C 
ATOM      9  C   UNL     1       4.774  -6.370   1.995  0.00  0.00    -0.063 C 
ATOM     10  N   UNL     1       4.717  -7.131   0.740  0.00  0.00    +0.386 N 
ATOM     11  C   UNL     1       4.178  -6.286  -0.333  0.00  0.00    -0.020 C 
ATOM     12  C   UNL     1       5.134  -5.124  -0.597  0.00  0.00    +0.094 C 
ATOM     13  H   UNL     1       5.646  -7.436   0.491  0.00  0.00    -0.085 HD
ATOM     14  H   UNL     1       4.122  -7.936   0.864  0.00  0.00    -0.085 HD
BRANCH  11  15
ATOM     15  C   UNL     1       4.021  -7.106  -1.587  0.00  0.00    -0.018 A 
ATOM     16  C   UNL     1       4.721  -8.287  -1.733  0.00  0.00    +0.005 A 
ATOM     17  C   UNL     1       4.578  -9.040  -2.884  0.00  0.00    +0.000 A 
ATOM     18  C   UNL     1       3.733  -8.612  -3.892  0.00  0.00    +0.004 A 
ATOM     19  C   UNL     1       3.030  -7.432  -3.751  0.00  0.00    +0.045 A 
ATOM     20  C   UNL     1       3.168  -6.678  -2.594  0.00  0.00    +0.118 A 
BRANCH  20  21
ATOM     21  O   UNL     1       2.473  -5.519  -2.450  0.00  0.00    -0.507 OA
ATOM     22  H   UNL     1       2.937  -4.738  -2.783  0.00  0.00    +0.292 HD
ENDBRANCH  20  21
ENDBRANCH  11  15
ENDBRANCH   5   7
BRANCH   1  26
ATOM     23  C   UNL     1       0.137   0.632   2.216  0.00  0.00    +0.000 A 
ATOM     24  C   UNL     1       1.222   1.451   1.956  0.00  0.00    +0.001 A 
ATOM     25  C   UNL     1       2.441   0.899   1.619  0.00  0.00    +0.008 A 
ATOM     26  C   UNL     1       2.578  -0.486   1.540  0.00  0.00    -0.018 A 
ATOM     27  C   UNL     1       1.482  -1.305   1.803  0.00  0.00    +0.008 A 
ATOM     28  C   UNL     1       0.268  -0.743   2.140  0.00  0.00    +0.001 A 
ENDBRANCH   1  26
BRANCH   4  29
ATOM     29  N   UNL     1       7.570  -2.758   0.156  0.00  0.00    -0.214 N 
ATOM     30  H   UNL     1       7.605  -3.564  -0.383  0.00  0.00    +0.174 HD
BRANCH  29  31
ATOM     31  S   UNL     1       8.974  -2.046   0.670  0.00  0.00    +0.076 S 
ATOM     32  O   UNL     1       8.796  -1.746   2.048  0.00  0.00    -0.150 OA
ATOM     33  O   UNL     1      10.039  -2.860   0.199  0.00  0.00    -0.150 OA
BRANCH  31  34
ATOM     34  C   UNL     1       9.112  -0.502  -0.167  0.00  0.00    +0.150 A 
ATOM     35  C   UNL     1       9.094   0.678   0.551  0.00  0.00    +0.032 A 
ATOM     36  C   UNL     1       9.201   1.890  -0.105  0.00  0.00    +0.002 A 
ATOM     37  C   UNL     1       9.327   1.925  -1.482  0.00  0.00    +0.004 A 
ATOM     38  C   UNL     1       9.345   0.748  -2.205  0.00  0.00    +0.047 A 
ATOM     39  C   UNL     1       9.243  -0.470  -1.548  0.00  0.00    +0.143 A 
BRANCH  39  40
ATOM     40  O   UNL     1       9.267  -1.629  -2.256  0.00  0.00    -0.505 OA
ATOM     41  H   UNL     1       8.397  -1.922  -2.560  0.00  0.00    +0.292 HD
ENDBRANCH  39  40
ENDBRANCH  31  34
ENDBRANCH  29  31
ENDBRANCH   4  29
TORSDOF 8
