REMARK  Name = ZINC03644236
REMARK  8 active torsions:
REMARK  status: ('A' for Active; 'I' for Inactive)
REMARK    1  A    between atoms: C_1  and  C_2
REMARK    2  A    between atoms: C_3  and  C_4
REMARK    3  A    between atoms: C_4  and  O_5
REMARK    4  A    between atoms: O_5  and  C_6
REMARK    5  A    between atoms: C_6  and  C_8
REMARK    6  A    between atoms: C_9  and  C_24
REMARK    7  A    between atoms: C_13  and  N_14
REMARK    8  A    between atoms: C_19  and  O_23
REMARK                            x       y       z     vdW  Elec       q    Type
REMARK                         _______ _______ _______ _____ _____    ______ ____
ROOT
ATOM      1  C   UNL     1      -2.873  -4.940   0.007  0.00  0.00    +0.099 A 
ATOM      2  C   UNL     1      -3.525  -5.217  -1.202  0.00  0.00    +0.030 A 
ATOM      3  N   UNL     1      -4.676  -5.854  -1.203  0.00  0.00    -0.352 N 
ATOM      4  C   UNL     1      -5.253  -6.250  -0.084  0.00  0.00    +0.087 A 
ATOM      5  C   UNL     1      -4.694  -6.029   1.188  0.00  0.00    +0.031 A 
ATOM      6  C   UNL     1      -3.446  -5.347   1.219  0.00  0.00    +0.050 A 
ATOM      7  C   UNL     1      -5.469  -6.535   2.325  0.00  0.00    -0.026 A 
ATOM      8  C   UNL     1      -6.630  -7.158   2.044  0.00  0.00    -0.002 A 
ATOM      9  S   UNL     1      -6.765  -7.111   0.278  0.00  0.00    -0.075 S 
ATOM     10  C   UNL     1      -7.597  -7.759   3.019  0.00  0.00    +0.074 C 
ATOM     11  C   UNL     1      -6.894  -7.892   4.378  0.00  0.00    +0.120 C 
ATOM     12  C   UNL     1      -6.194  -6.569   4.701  0.00  0.00    +0.036 C 
ATOM     13  C   UNL     1      -4.998  -6.374   3.768  0.00  0.00    +0.039 C 
ATOM     14  C   UNL     1      -2.906  -4.784  -2.505  0.00  0.00    +0.064 C 
ATOM     15  H   UNL     1      -5.113  -6.036  -2.049  0.00  0.00    +0.166 HD
ENDROOT
BRANCH   6  16
ATOM     16  N   UNL     1      -2.813  -5.088   2.420  0.00  0.00    -0.357 N 
ATOM     17  H   UNL     1      -2.125  -4.407   2.468  0.00  0.00    +0.142 HD
ATOM     18  H   UNL     1      -3.058  -5.587   3.215  0.00  0.00    +0.142 HD
ENDBRANCH   6  16
BRANCH   1  19
ATOM     19  C   UNL     1      -1.586  -4.228   0.003  0.00  0.00    +0.344 C 
ATOM     20  O   UNL     1      -0.546  -4.852  -0.068  0.00  0.00    -0.245 OA
BRANCH  19  21
ATOM     21  O   UNL     1      -1.561  -2.882   0.077  0.00  0.00    -0.448 OA
BRANCH  21  22
ATOM     22  C   UNL     1      -0.276  -2.256   0.068  0.00  0.00    +0.321 C 
BRANCH  22  25
ATOM     23  C   UNL     1      -0.738   1.829   0.311  0.00  0.00    +0.106 C 
ATOM     24  C   UNL     1      -0.573   0.369   0.224  0.00  0.00    -0.102 C 
ATOM     25  C   UNL     1      -0.441  -0.796   0.155  0.00  0.00    -0.062 C 
ENDBRANCH  22  25
ENDBRANCH  21  22
ENDBRANCH  19  21
ENDBRANCH   1  19
BRANCH  11  26
ATOM     26  O   UNL     1      -7.860  -8.186   5.390  0.00  0.00    -0.391 OA
ATOM     27  H   UNL     1      -8.348  -9.007   5.241  0.00  0.00    +0.210 HD
ENDBRANCH  11  26
TORSDOF 6
