REMARK  Name = ZINC43307693
REMARK  11 active torsions:
REMARK  status: ('A' for Active; 'I' for Inactive)
REMARK    1  A    between atoms: C_1  and  C_2
REMARK    2  A    between atoms: C_4  and  C_28
REMARK    3  A    between atoms: N_5  and  C_7
REMARK    4  A    between atoms: C_7  and  C_8
REMARK    5  A    between atoms: N_10  and  N_11
REMARK    6  A    between atoms: N_14  and  C_15
REMARK    7  A    between atoms: C_15  and  C_16
REMARK    8  A    between atoms: C_16  and  C_18
REMARK    9  A    between atoms: C_16  and  N_25
REMARK   10  A    between atoms: N_25  and  C_26
REMARK   11  A    between atoms: N_25  and  C_27
REMARK                            x       y       z     vdW  Elec       q    Type
REMARK                         _______ _______ _______ _____ _____    ______ ____
ROOT
ATOM      1  N   UNL     1       3.666  -5.880   2.429  0.00  0.00    -0.218 N 
ATOM      2  C   UNL     1       3.744  -6.811   3.400  0.00  0.00    +0.316 C 
ATOM      3  O   UNL     1       4.830  -7.197   3.786  0.00  0.00    -0.251 OA
ATOM      4  N   UNL     1       2.618  -7.314   3.944  0.00  0.00    -0.299 N 
ATOM      5  H   UNL     1       4.476  -5.518   2.038  0.00  0.00    +0.174 HD
ATOM      6  H   UNL     1       1.751  -7.006   3.636  0.00  0.00    +0.150 HD
ENDROOT
BRANCH   1   9
ATOM      7  C   UNL     1       2.335  -4.505   1.012  0.00  0.00    +0.251 C 
ATOM      8  O   UNL     1       3.349  -4.052   0.523  0.00  0.00    -0.272 OA
ATOM      9  N   UNL     1       2.414  -5.436   1.984  0.00  0.00    -0.232 N 
ATOM     10  H   UNL     1       1.603  -5.798   2.375  0.00  0.00    +0.173 HD
BRANCH   7  11
ATOM     11  C   UNL     1       0.989  -4.026   0.534  0.00  0.00    +0.240 C 
BRANCH  11  16
ATOM     12  C   UNL     1       1.602   0.400  -1.752  0.00  0.00    +0.067 C 
ATOM     13  C   UNL     1       1.439  -1.076  -1.496  0.00  0.00    +0.060 A 
ATOM     14  C   UNL     1       1.425  -2.080  -2.470  0.00  0.00    +0.047 A 
ATOM     15  C   UNL     1       1.260  -3.267  -1.842  0.00  0.00    +0.037 A 
ATOM     16  N   UNL     1       1.172  -3.023  -0.517  0.00  0.00    -0.259 N 
ATOM     17  N   UNL     1       1.293  -1.640  -0.325  0.00  0.00    -0.176 NA
ATOM     18  C   UNL     1       1.186  -4.620  -2.502  0.00  0.00    +0.065 C 
ENDBRANCH  11  16
ENDBRANCH   7  11
ENDBRANCH   1   9
BRANCH   4  19
ATOM     19  C   UNL     1       2.703  -8.326   5.000  0.00  0.00    +0.095 C 
BRANCH  19  20
ATOM     20  C   UNL     1       1.299  -8.637   5.523  0.00  0.00    -0.020 C 
BRANCH  20  21
ATOM     21  C   UNL     1       0.729  -7.410   6.188  0.00  0.00    -0.041 A 
ATOM     22  C   UNL     1      -0.172  -6.612   5.508  0.00  0.00    +0.003 A 
ATOM     23  C   UNL     1      -0.696  -5.487   6.117  0.00  0.00    +0.000 A 
ATOM     24  C   UNL     1      -0.319  -5.160   7.407  0.00  0.00    +0.001 A 
ATOM     25  C   UNL     1       0.581  -5.958   8.087  0.00  0.00    +0.020 A 
ATOM     26  C   UNL     1       1.101  -7.087   7.480  0.00  0.00    +0.043 A 
ATOM     27 CL   UNL     1       2.227  -8.093   8.336  0.00  0.00    -0.083 Cl
ENDBRANCH  20  21
BRANCH  20  28
ATOM     28  N   UNL     1       0.436  -9.033   4.403  0.00  0.00    +0.382 N 
ATOM     29  C   UNL     1       1.059 -10.147   3.675  0.00  0.00    -0.096 C 
ATOM     30  C   UNL     1      -0.872  -9.457   4.919  0.00  0.00    -0.096 C 
ATOM     31  H   UNL     1       0.313  -8.250   3.779  0.00  0.00    -0.082 HD
ENDBRANCH  20  28
ENDBRANCH  19  20
ENDBRANCH   4  19
TORSDOF 7
