REMARK  Name = ZINC05538205
REMARK  5 active torsions:
REMARK  status: ('A' for Active; 'I' for Inactive)
REMARK    1  A    between atoms: C_7  and  N_27
REMARK    2  A    between atoms: C_10  and  C_14
REMARK    3  A    between atoms: N_16  and  C_17
REMARK    4  A    between atoms: C_20  and  S_23
REMARK    5  A    between atoms: S_23  and  N_26
REMARK                            x       y       z     vdW  Elec       q    Type
REMARK                         _______ _______ _______ _____ _____    ______ ____
ROOT
ATOM      1  C   UNL     1       3.305  10.453  -0.279  0.00  0.00    +0.001 A 
ATOM      2  C   UNL     1       2.011  10.887   0.006  0.00  0.00    +0.002 A 
ATOM      3  C   UNL     1       0.995  10.001   0.175  0.00  0.00    +0.026 A 
ATOM      4  C   UNL     1       1.242   8.617   0.064  0.00  0.00    +0.049 A 
ATOM      5  C   UNL     1       2.560   8.179  -0.226  0.00  0.00    +0.020 A 
ATOM      6  C   UNL     1       3.585   9.126  -0.395  0.00  0.00    +0.012 A 
ATOM      7  C   UNL     1       2.834   6.800  -0.343  0.00  0.00    +0.043 A 
ATOM      8  C   UNL     1       1.763   5.902  -0.161  0.00  0.00    +0.020 A 
ATOM      9  C   UNL     1       1.941   4.517  -0.258  0.00  0.00    +0.024 A 
ATOM     10  C   UNL     1       0.852   3.679  -0.070  0.00  0.00    +0.038 A 
ATOM     11  C   UNL     1      -0.424   4.200   0.210  0.00  0.00    +0.015 A 
ATOM     12  C   UNL     1      -0.639   5.533   0.317  0.00  0.00    +0.027 A 
ATOM     13  C   UNL     1       0.431   6.436   0.136  0.00  0.00    +0.049 A 
ATOM     14  N   UNL     1       0.169   7.776   0.248  0.00  0.00    -0.354 N 
ATOM     15  H   UNL     1      -0.771   8.132   0.457  0.00  0.00    +0.166 HD
ENDROOT
BRANCH  10  16
ATOM     16  C   UNL     1       1.034   2.218  -0.171  0.00  0.00    +0.248 C 
ATOM     17  O   UNL     1       2.132   1.758  -0.417  0.00  0.00    -0.270 OA
ATOM     18  N   UNL     1      -0.017   1.394   0.010  0.00  0.00    -0.282 N 
ATOM     19  H   UNL     1      -0.907   1.762   0.126  0.00  0.00    +0.155 HD
BRANCH  18  20
ATOM     20  C   UNL     1       0.175   0.009   0.024  0.00  0.00    +0.034 A 
ATOM     21  C   UNL     1      -0.812  -0.835  -0.467  0.00  0.00    +0.025 A 
ATOM     22  C   UNL     1      -0.618  -2.203  -0.456  0.00  0.00    +0.030 A 
ATOM     23  C   UNL     1       0.554  -2.732   0.053  0.00  0.00    +0.105 A 
ATOM     24  C   UNL     1       1.537  -1.894   0.548  0.00  0.00    +0.030 A 
ATOM     25  C   UNL     1       1.351  -0.525   0.535  0.00  0.00    +0.025 A 
BRANCH  23  26
ATOM     26  S   UNL     1       0.796  -4.477   0.072  0.00  0.00    +0.056 S 
ATOM     27  O   UNL     1      -0.039  -5.013  -0.946  0.00  0.00    -0.153 OA
ATOM     28  O   UNL     1       2.200  -4.692   0.097  0.00  0.00    -0.153 OA
BRANCH  26  29
ATOM     29  N   UNL     1       0.205  -5.038   1.513  0.00  0.00    -0.204 NA
ATOM     30  H   UNL     1      -0.182  -4.419   2.153  0.00  0.00    +0.144 HD
ATOM     31  H   UNL     1       0.245  -5.985   1.719  0.00  0.00    +0.144 HD
ENDBRANCH  26  29
ENDBRANCH  23  26
ENDBRANCH  18  20
ENDBRANCH  10  16
BRANCH   7  32
ATOM     32  N   UNL     1       4.103   6.348  -0.623  0.00  0.00    -0.357 N 
ATOM     33  H   UNL     1       4.272   5.396  -0.699  0.00  0.00    +0.142 HD
ATOM     34  H   UNL     1       4.828   6.981  -0.744  0.00  0.00    +0.142 HD
ENDBRANCH   7  32
TORSDOF 5
