REMARK  Name = ZINC44681410
REMARK  13 active torsions:
REMARK  status: ('A' for Active; 'I' for Inactive)
REMARK    1  A    between atoms: C_1  and  C_2
REMARK    2  A    between atoms: C_13  and  C_34
REMARK    3  A    between atoms: C_14  and  C_16
REMARK    4  A    between atoms: C_16  and  C_17
REMARK    5  A    between atoms: N_19  and  C_20
REMARK    6  A    between atoms: C_20  and  C_21
REMARK    7  A    between atoms: C_21  and  N_22
REMARK    8  A    between atoms: N_22  and  C_23
REMARK    9  A    between atoms: N_22  and  C_24
REMARK   10  A    between atoms: C_27  and  O_33
REMARK   11  A    between atoms: C_29  and  C_30
REMARK   12  A    between atoms: C_29  and  C_31
REMARK   13  A    between atoms: C_31  and  O_32
REMARK                            x       y       z     vdW  Elec       q    Type
REMARK                         _______ _______ _______ _____ _____    ______ ____
ROOT
ATOM      1  C   UNL     1       0.427   1.458  -0.666  0.00  0.00    +0.109 C 
ATOM      2  C   UNL     1       0.313  -0.037  -0.517  0.00  0.00    +0.216 C 
ATOM      3  O   UNL     1       1.314  -0.719  -0.462  0.00  0.00    -0.276 OA
ATOM      4  N   UNL     1      -0.902  -0.616  -0.444  0.00  0.00    -0.265 N 
ATOM      5  C   UNL     1      -1.007  -1.995  -0.305  0.00  0.00    +0.165 A 
ATOM      6  N   UNL     1      -2.098  -2.726  -0.218  0.00  0.00    -0.229 NA
ATOM      7  C   UNL     1      -2.042  -4.045  -0.082  0.00  0.00    +0.058 A 
ATOM      8  C   UNL     1      -0.794  -4.574  -0.048  0.00  0.00    +0.015 A 
ATOM      9  S   UNL     1       0.229  -3.136  -0.209  0.00  0.00    -0.057 S 
ATOM     10  C   UNL     1      -0.411  -6.003   0.087  0.00  0.00    +0.049 C 
ATOM     11  C   UNL     1      -1.634  -6.922   0.272  0.00  0.00    +0.011 C 
ATOM     12  C   UNL     1      -2.844  -6.370  -0.471  0.00  0.00    -0.019 C 
ATOM     13  C   UNL     1      -3.228  -4.980   0.048  0.00  0.00    +0.054 C 
ATOM     14  C   UNL     1      -2.549  -6.354  -1.966  0.00  0.00    +0.010 C 
ATOM     15  C   UNL     1      -2.319  -7.786  -2.449  0.00  0.00    +0.032 C 
ATOM     16  C   UNL     1      -1.177  -8.459  -1.710  0.00  0.00    +0.123 C 
ATOM     17  C   UNL     1      -1.221  -8.316  -0.199  0.00  0.00    +0.021 C 
ATOM     18  C   UNL     1      -2.101  -9.414   0.412  0.00  0.00    +0.016 C 
ATOM     19  C   UNL     1      -4.093  -7.229  -0.225  0.00  0.00    +0.012 C 
ATOM     20  H   UNL     1      -1.703  -0.070  -0.487  0.00  0.00    +0.157 HD
ENDROOT
BRANCH  16  21
ATOM     21  O   UNL     1       0.075  -7.980  -2.216  0.00  0.00    -0.391 OA
ATOM     22  H   UNL     1       0.209  -8.149  -3.158  0.00  0.00    +0.210 HD
ENDBRANCH  16  21
BRANCH  13  23
ATOM     23  C   UNL     1      -4.429  -4.432  -0.716  0.00  0.00    +0.106 C 
BRANCH  23  24
ATOM     24  C   UNL     1      -4.907  -3.163  -0.058  0.00  0.00    +0.214 C 
ATOM     25  O   UNL     1      -4.340  -2.740   0.927  0.00  0.00    -0.276 OA
ATOM     26  N   UNL     1      -5.965  -2.498  -0.564  0.00  0.00    -0.317 N 
ATOM     27  H   UNL     1      -6.418  -2.837  -1.351  0.00  0.00    +0.149 HD
BRANCH  26  28
ATOM     28  C   UNL     1      -6.429  -1.265   0.076  0.00  0.00    +0.085 C 
BRANCH  28  29
ATOM     29  C   UNL     1      -7.634  -0.715  -0.691  0.00  0.00    -0.061 C 
BRANCH  29  30
ATOM     30  N   UNL     1      -8.100   0.521  -0.049  0.00  0.00    +0.377 N 
ATOM     31  C   UNL     1      -9.179   1.113  -0.852  0.00  0.00    -0.097 C 
ATOM     32  C   UNL     1      -8.602   0.216   1.297  0.00  0.00    -0.097 C 
ATOM     33  H   UNL     1      -7.334   1.175   0.018  0.00  0.00    -0.083 HD
ENDBRANCH  29  30
ENDBRANCH  28  29
ENDBRANCH  26  28
ENDBRANCH  23  24
ENDBRANCH  13  23
BRANCH  17  34
ATOM     34  C   UNL     1       0.210  -8.602   0.328  0.00  0.00    +0.165 C 
BRANCH  34  35
ATOM     35  O   UNL     1       0.623  -9.902  -0.098  0.00  0.00    -0.394 OA
ATOM     36  H   UNL     1       1.511 -10.149   0.196  0.00  0.00    +0.209 HD
ENDBRANCH  34  35
ENDBRANCH  17  34
TORSDOF 8
