REMARK  Name = ZINC65301139
REMARK  8 active torsions:
REMARK  status: ('A' for Active; 'I' for Inactive)
REMARK    1  A    between atoms: C_1  and  C_2
REMARK    2  A    between atoms: C_4  and  N_19
REMARK    3  A    between atoms: C_5  and  C_11
REMARK    4  A    between atoms: C_22  and  C_25
REMARK    5  A    between atoms: N_27  and  C_28
REMARK    6  A    between atoms: C_31  and  C_34
REMARK    7  A    between atoms: C_34  and  C_35
REMARK    8  A    between atoms: C_34  and  C_36
REMARK                            x       y       z     vdW  Elec       q    Type
REMARK                         _______ _______ _______ _____ _____    ______ ____
ROOT
ATOM      1  C   UNL     1       0.649   1.924  -0.370  0.00  0.00    +0.067 C 
ATOM      2  C   UNL     1       0.534   0.432  -0.193  0.00  0.00    +0.058 A 
ATOM      3  C   UNL     1       0.096  -0.363  -1.265  0.00  0.00    +0.050 A 
ATOM      4  C   UNL     1      -0.287  -0.004  -2.585  0.00  0.00    +0.055 A 
ATOM      5  C   UNL     1      -0.688  -1.020  -3.464  0.00  0.00    +0.074 A 
ATOM      6  C   UNL     1      -0.702  -2.352  -3.031  0.00  0.00    +0.098 A 
ATOM      7  N   UNL     1      -0.343  -2.660  -1.804  0.00  0.00    -0.353 N 
ATOM      8  C   UNL     1       0.041  -1.739  -0.944  0.00  0.00    +0.107 A 
ATOM      9  S   UNL     1       0.585  -1.748   0.746  0.00  0.00    +0.030 S 
ATOM     10  N   UNL     1       0.845  -0.105   0.947  0.00  0.00    -0.213 NA
ATOM     11  H   UNL     1      -0.360  -3.589  -1.525  0.00  0.00    +0.166 HD
ENDROOT
BRANCH   5  12
ATOM     12  C   UNL     1      -1.093  -0.687  -4.839  0.00  0.00    +0.250 C 
ATOM     13  O   UNL     1      -0.301  -0.157  -5.595  0.00  0.00    -0.270 OA
ATOM     14  N   UNL     1      -2.341  -0.970  -5.261  0.00  0.00    -0.297 N 
ATOM     15  C   UNL     1      -3.274  -1.708  -4.398  0.00  0.00    +0.108 C 
ATOM     16  C   UNL     1      -4.570  -0.902  -4.271  0.00  0.00    +0.019 C 
ATOM     17  C   UNL     1      -5.115  -0.596  -5.668  0.00  0.00    +0.003 C 
ATOM     18  C   UNL     1      -4.097   0.246  -6.440  0.00  0.00    +0.019 C 
ATOM     19  C   UNL     1      -2.797  -0.542  -6.590  0.00  0.00    +0.108 C 
ENDBRANCH   5  12
BRANCH   4  20
ATOM     20  N   UNL     1      -0.267   1.314  -2.992  0.00  0.00    -0.329 N 
ATOM     21  C   UNL     1      -1.496   2.119  -2.984  0.00  0.00    +0.106 C 
ATOM     22  C   UNL     1      -1.693   2.732  -4.374  0.00  0.00    +0.031 C 
ATOM     23  C   UNL     1      -0.435   3.509  -4.768  0.00  0.00    +0.078 C 
ATOM     24  C   UNL     1       0.760   2.554  -4.826  0.00  0.00    +0.031 C 
ATOM     25  C   UNL     1       0.986   1.942  -3.435  0.00  0.00    +0.106 C 
BRANCH  23  26
ATOM     26  C   UNL     1      -0.638   4.141  -6.121  0.00  0.00    +0.220 C 
ATOM     27  O   UNL     1      -1.686   3.985  -6.712  0.00  0.00    -0.275 OA
ATOM     28  N   UNL     1       0.344   4.880  -6.674  0.00  0.00    -0.285 N 
ATOM     29  H   UNL     1       1.210   4.938  -6.241  0.00  0.00    +0.155 HD
BRANCH  28  30
ATOM     30  C   UNL     1       0.115   5.562  -7.874  0.00  0.00    +0.033 A 
ATOM     31  C   UNL     1       1.144   5.718  -8.793  0.00  0.00    +0.023 A 
ATOM     32  C   UNL     1       0.915   6.392  -9.977  0.00  0.00    +0.006 A 
ATOM     33  C   UNL     1      -0.338   6.913 -10.246  0.00  0.00    -0.045 A 
ATOM     34  C   UNL     1      -1.364   6.760  -9.332  0.00  0.00    +0.006 A 
ATOM     35  C   UNL     1      -1.143   6.081  -8.150  0.00  0.00    +0.023 A 
BRANCH  33  36
ATOM     36  C   UNL     1      -0.584   7.648 -11.538  0.00  0.00    +0.013 C 
ATOM     37  C   UNL     1      -1.682   6.934 -12.330  0.00  0.00    +0.012 C 
ATOM     38  C   UNL     1      -1.026   9.081 -11.233  0.00  0.00    +0.012 C 
ENDBRANCH  33  36
ENDBRANCH  28  30
ENDBRANCH  23  26
ENDBRANCH   4  20
TORSDOF 5
