REMARK  Name = ZINC09970428
REMARK  22 active torsions:
REMARK  status: ('A' for Active; 'I' for Inactive)
REMARK    1  A    between atoms: C_1  and  C_2
REMARK    2  A    between atoms: C_2  and  C_32
REMARK    3  A    between atoms: C_3  and  C_30
REMARK    4  A    between atoms: C_3  and  O_31
REMARK    5  A    between atoms: C_4  and  C_28
REMARK    6  A    between atoms: C_4  and  O_29
REMARK    7  A    between atoms: C_5  and  C_26
REMARK    8  A    between atoms: C_5  and  O_27
REMARK    9  A    between atoms: C_6  and  C_8
REMARK   10  A    between atoms: C_6  and  O_9
REMARK   11  A    between atoms: O_9  and  C_10
REMARK   12  A    between atoms: C_10  and  C_25
REMARK   13  A    between atoms: C_11  and  C_23
REMARK   14  A    between atoms: C_11  and  O_24
REMARK   15  A    between atoms: C_12  and  C_21
REMARK   16  A    between atoms: C_12  and  O_22
REMARK   17  A    between atoms: C_13  and  C_19
REMARK   18  A    between atoms: C_13  and  O_20
REMARK   19  A    between atoms: C_14  and  C_16
REMARK   20  A    between atoms: C_14  and  C_17
REMARK   21  A    between atoms: C_17  and  O_18
REMARK   22  A    between atoms: C_32  and  O_33
REMARK                            x       y       z     vdW  Elec       q    Type
REMARK                         _______ _______ _______ _____ _____    ______ ____
ROOT
ATOM      1  O   UNL     1      -0.833  -3.015   0.976  0.00  0.00    -0.312 OA
ENDROOT
BRANCH   1   7
ATOM      2  C   UNL     1      -2.379  -1.380  -2.982  0.00  0.00    +0.047 C 
ATOM      3  C   UNL     1      -1.074  -2.026  -2.499  0.00  0.00    +0.124 C 
ATOM      4  C   UNL     1      -0.902  -3.403  -3.124  0.00  0.00    +0.125 C 
ATOM      5  C   UNL     1      -1.596  -4.521  -2.364  0.00  0.00    +0.128 C 
ATOM      6  C   UNL     1      -1.382  -4.440  -0.861  0.00  0.00    +0.147 C 
ATOM      7  C   UNL     1      -1.544  -3.039  -0.288  0.00  0.00    +0.202 C 
ATOM      8  O   UNL     1      -0.998  -2.029  -1.096  0.00  0.00    -0.335 OA
ATOM      9  C   UNL     1      -3.016  -2.760   0.038  0.00  0.00    +0.077 C 
ATOM     10  C   UNL     1      -2.385  -5.377  -0.165  0.00  0.00    +0.050 C 
ATOM     11  C   UNL     1      -3.086  -4.584  -2.708  0.00  0.00    +0.047 C 
ATOM     12  C   UNL     1      -1.452  -3.364  -4.561  0.00  0.00    +0.047 C 
BRANCH   6  13
ATOM     13  O   UNL     1      -0.058  -4.912  -0.554  0.00  0.00    -0.381 OA
ATOM     14  H   UNL     1       0.133  -4.959   0.393  0.00  0.00    +0.211 HD
ENDBRANCH   6  13
BRANCH   5  15
ATOM     15  O   UNL     1      -1.014  -5.771  -2.813  0.00  0.00    -0.383 OA
ATOM     16  H   UNL     1      -1.405  -6.555  -2.405  0.00  0.00    +0.210 HD
ENDBRANCH   5  15
BRANCH   4  17
ATOM     17  O   UNL     1       0.504  -3.698  -3.204  0.00  0.00    -0.383 OA
ATOM     18  H   UNL     1       1.020  -3.030  -3.676  0.00  0.00    +0.210 HD
ENDBRANCH   4  17
BRANCH   3  19
ATOM     19  C   UNL     1       0.080  -1.137  -3.027  0.00  0.00    +0.193 C 
BRANCH  19  20
ATOM     20  O   UNL     1      -0.332   0.231  -3.022  0.00  0.00    -0.392 OA
ATOM     21  H   UNL     1       0.313   0.837  -3.412  0.00  0.00    +0.210 HD
ENDBRANCH  19  20
ENDBRANCH   3  19
ENDBRANCH   1   7
BRANCH   1  22
ATOM     22  C   UNL     1      -1.203  -1.931   1.830  0.00  0.00    +0.202 C 
ATOM     23  C   UNL     1      -0.300  -1.915   3.062  0.00  0.00    +0.147 C 
ATOM     24  C   UNL     1       1.106  -1.446   2.722  0.00  0.00    +0.128 C 
ATOM     25  C   UNL     1       1.168  -0.220   1.827  0.00  0.00    +0.125 C 
ATOM     26  C   UNL     1       0.114  -0.197   0.728  0.00  0.00    +0.124 C 
ATOM     27  O   UNL     1      -1.140  -0.692   1.148  0.00  0.00    -0.335 OA
ATOM     28  C   UNL     1       0.625  -0.972  -0.493  0.00  0.00    +0.047 C 
ATOM     29  C   UNL     1       1.070   1.064   2.660  0.00  0.00    +0.047 C 
ATOM     30  C   UNL     1       1.843  -1.128   4.038  0.00  0.00    +0.047 C 
ATOM     31  C   UNL     1      -0.927  -1.041   4.151  0.00  0.00    +0.050 C 
ATOM     32  C   UNL     1      -2.652  -2.165   2.295  0.00  0.00    +0.077 C 
BRANCH  25  33
ATOM     33  O   UNL     1       2.464  -0.208   1.187  0.00  0.00    -0.383 OA
ATOM     34  H   UNL     1       2.622   0.568   0.632  0.00  0.00    +0.210 HD
ENDBRANCH  25  33
BRANCH  24  35
ATOM     35  O   UNL     1       1.815  -2.526   2.088  0.00  0.00    -0.383 OA
ATOM     36  H   UNL     1       1.821  -3.346   2.599  0.00  0.00    +0.210 HD
ENDBRANCH  24  35
BRANCH  23  37
ATOM     37  O   UNL     1      -0.219  -3.261   3.571  0.00  0.00    -0.381 OA
ATOM     38  H   UNL     1      -1.074  -3.641   3.814  0.00  0.00    +0.211 HD
ENDBRANCH  23  37
BRANCH  26  39
ATOM     39  C   UNL     1      -0.078   1.272   0.290  0.00  0.00    +0.193 C 
BRANCH  39  40
ATOM     40  O   UNL     1      -1.081   1.340  -0.725  0.00  0.00    -0.392 OA
ATOM     41  H   UNL     1      -1.201   2.222  -1.102  0.00  0.00    +0.210 HD
ENDBRANCH  39  40
ENDBRANCH  26  39
ENDBRANCH   1  22
TORSDOF 12
