REMARK  Name = ZINC21263324
REMARK  15 active torsions:
REMARK  status: ('A' for Active; 'I' for Inactive)
REMARK    1  A    between atoms: C_1  and  C_2
REMARK    2  A    between atoms: C_2  and  C_32
REMARK    3  A    between atoms: C_4  and  N_10
REMARK    4  A    between atoms: C_6  and  C_8
REMARK    5  A    between atoms: C_6  and  C_9
REMARK    6  A    between atoms: N_10  and  C_11
REMARK    7  A    between atoms: C_11  and  N_13
REMARK    8  A    between atoms: N_13  and  C_14
REMARK    9  A    between atoms: N_13  and  C_21
REMARK   10  A    between atoms: C_14  and  C_15
REMARK   11  A    between atoms: C_21  and  C_22
REMARK   12  A    between atoms: C_26  and  O_30
REMARK   13  A    between atoms: C_27  and  O_28
REMARK   14  A    between atoms: O_28  and  C_29
REMARK   15  A    between atoms: O_30  and  C_31
REMARK                            x       y       z     vdW  Elec       q    Type
REMARK                         _______ _______ _______ _____ _____    ______ ____
ROOT
ATOM      1  N   UNL     1      -0.707   1.638   1.339  0.00  0.00    -0.304 N 
ENDROOT
BRANCH   1   2
ATOM      2  C   UNL     1      -0.212   2.666   2.057  0.00  0.00    +0.134 C 
ATOM      3  S   UNL     1      -0.907   3.068   3.569  0.00  0.00    -0.019 S 
BRANCH   2   4
ATOM      4  N   UNL     1       0.832   3.377   1.585  0.00  0.00    -0.324 N 
ATOM      5  H   UNL     1       1.278   3.118   0.614  0.00  0.00    +0.148 HD
BRANCH   4   9
ATOM      6  C   UNL     1       3.685   5.460   4.213  0.00  0.00    -0.010 C 
ATOM      7  C   UNL     1       3.416   5.893   2.767  0.00  0.00    -0.072 C 
ATOM      8  C   UNL     1       2.834   4.719   1.983  0.00  0.00    +0.009 C 
ATOM      9  C   UNL     1       1.372   4.496   2.367  0.00  0.00    +0.069 C 
ATOM     10  C   UNL     1       0.584   5.764   2.040  0.00  0.00    +0.009 C 
ATOM     11  C   UNL     1       1.139   6.952   2.823  0.00  0.00    -0.072 C 
ATOM     12  N   UNL     1       2.579   7.073   2.721  0.00  0.00    +0.386 N 
ATOM     13  C   UNL     1       0.694   6.853   4.287  0.00  0.00    -0.010 C 
ATOM     14  C   UNL     1       0.504   8.233   2.237  0.00  0.00    -0.010 C 
ATOM     15  C   UNL     1       4.781   6.244   2.134  0.00  0.00    -0.010 C 
ATOM     16  H   UNL     1       2.845   7.744   3.551  0.00  0.00    -0.084 HD
ATOM     17  H   UNL     1       2.732   7.594   1.765  0.00  0.00    -0.084 HD
ENDBRANCH   4   9
ENDBRANCH   2   4
ENDBRANCH   1   2
BRANCH   1  18
ATOM     18  C   UNL     1      -0.204   1.379  -0.012  0.00  0.00    +0.142 C 
BRANCH  18  19
ATOM     19  C   UNL     1      -1.031   2.147  -1.012  0.00  0.00    -0.030 A 
ATOM     20  C   UNL     1      -2.152   1.565  -1.573  0.00  0.00    +0.005 A 
ATOM     21  C   UNL     1      -2.913   2.271  -2.486  0.00  0.00    +0.000 A 
ATOM     22  C   UNL     1      -2.546   3.555  -2.845  0.00  0.00    +0.000 A 
ATOM     23  C   UNL     1      -1.422   4.134  -2.288  0.00  0.00    +0.000 A 
ATOM     24  C   UNL     1      -0.664   3.430  -1.371  0.00  0.00    +0.005 A 
ENDBRANCH  18  19
ENDBRANCH   1  18
BRANCH   1  25
ATOM     25  C   UNL     1      -1.749   0.781   1.910  0.00  0.00    +0.146 C 
BRANCH  25  26
ATOM     26  C   UNL     1      -1.120  -0.467   2.473  0.00  0.00    +0.015 A 
ATOM     27  C   UNL     1      -1.170  -1.650   1.758  0.00  0.00    +0.009 A 
ATOM     28  C   UNL     1      -0.594  -2.796   2.271  0.00  0.00    +0.004 A 
ATOM     29  C   UNL     1       0.035  -2.767   3.502  0.00  0.00    +0.049 A 
ATOM     30  C   UNL     1       0.089  -1.585   4.224  0.00  0.00    +0.162 A 
ATOM     31  C   UNL     1      -0.486  -0.429   3.704  0.00  0.00    +0.166 A 
BRANCH  31  32
ATOM     32  O   UNL     1      -0.430   0.734   4.406  0.00  0.00    -0.491 OA
ATOM     33  C   UNL     1      -1.502   0.995   5.315  0.00  0.00    +0.277 C 
ENDBRANCH  31  32
BRANCH  30  34
ATOM     34  O   UNL     1       0.707  -1.554   5.434  0.00  0.00    -0.491 OA
ATOM     35  C   UNL     1       1.280  -2.777   5.902  0.00  0.00    +0.277 C 
ENDBRANCH  30  34
ENDBRANCH  25  26
ENDBRANCH   1  25
TORSDOF 9
