REMARK  Name = ZINC63526313
REMARK  8 active torsions:
REMARK  status: ('A' for Active; 'I' for Inactive)
REMARK    1  A    between atoms: C_1  and  O_2
REMARK    2  A    between atoms: O_2  and  C_3
REMARK    3  A    between atoms: C_10  and  C_18
REMARK    4  A    between atoms: C_21  and  O_26
REMARK    5  A    between atoms: C_22  and  O_24
REMARK    6  A    between atoms: O_24  and  C_25
REMARK    7  A    between atoms: O_26  and  C_27
REMARK    8  A    between atoms: C_27  and  C_28
REMARK                            x       y       z     vdW  Elec       q    Type
REMARK                         _______ _______ _______ _____ _____    ______ ____
ROOT
ATOM      1  C   UNL     1       0.299  -4.108  -5.269  0.00  0.00    -0.024 A 
ATOM      2  C   UNL     1      -0.843  -4.270  -4.506  0.00  0.00    +0.009 A 
ATOM      3  C   UNL     1      -2.020  -3.649  -4.877  0.00  0.00    +0.050 A 
ATOM      4  C   UNL     1      -2.058  -2.861  -6.016  0.00  0.00    +0.162 A 
ATOM      5  C   UNL     1      -0.909  -2.697  -6.784  0.00  0.00    +0.162 A 
ATOM      6  C   UNL     1       0.269  -3.319  -6.403  0.00  0.00    +0.054 A 
ENDROOT
BRANCH   1  13
ATOM      7  C   UNL     1      -0.968  -2.969  -0.054  0.00  0.00    +0.121 A 
ATOM      8  C   UNL     1      -0.382  -1.745  -0.419  0.00  0.00    +0.047 A 
ATOM      9  C   UNL     1       0.537  -1.646  -1.403  0.00  0.00    +0.029 A 
ATOM     10  C   UNL     1       0.958  -2.845  -2.132  0.00  0.00    +0.043 A 
ATOM     11  N   UNL     1       1.800  -3.016  -3.125  0.00  0.00    -0.376 N 
ATOM     12  C   UNL     1       1.903  -4.445  -3.402  0.00  0.00    +0.128 C 
ATOM     13  C   UNL     1       1.580  -4.788  -4.859  0.00  0.00    +0.111 C 
ATOM     14  N   UNL     1       1.424  -6.247  -4.968  0.00  0.00    -0.307 NA
ATOM     15  C   UNL     1       0.253  -6.759  -4.250  0.00  0.00    +0.086 C 
ATOM     16  C   UNL     1       0.425  -6.542  -2.735  0.00  0.00    +0.048 C 
ATOM     17  C   UNL     1       0.835  -5.099  -2.540  0.00  0.00    -0.035 C 
ATOM     18  C   UNL     1       0.334  -4.139  -1.754  0.00  0.00    +0.003 A 
ATOM     19  C   UNL     1      -0.648  -4.135  -0.664  0.00  0.00    +0.055 A 
ATOM     20  H   UNL     1       1.413  -6.539  -5.933  0.00  0.00    +0.123 HD
ATOM     21  H   UNL     1       2.273  -2.312  -3.596  0.00  0.00    +0.160 HD
BRANCH   7  23
ATOM     22  C   UNL     1      -2.191  -1.732   1.567  0.00  0.00    +0.277 C 
ATOM     23  O   UNL     1      -1.883  -2.985   0.951  0.00  0.00    -0.495 OA
ENDBRANCH   7  23
ENDBRANCH   1  13
BRANCH   5  24
ATOM     24  O   UNL     1      -0.941  -1.925  -7.903  0.00  0.00    -0.491 OA
ATOM     25  C   UNL     1       0.276  -1.802  -8.642  0.00  0.00    +0.277 C 
ENDBRANCH   5  24
BRANCH   4  26
ATOM     26  O   UNL     1      -3.216  -2.249  -6.383  0.00  0.00    -0.484 OA
BRANCH  26  27
ATOM     27  C   UNL     1      -4.356  -2.462  -5.548  0.00  0.00    +0.264 C 
BRANCH  27  28
ATOM     28  C   UNL     1      -5.536  -1.712  -6.108  0.00  0.00    -0.009 A 
ATOM     29  C   UNL     1      -5.775  -0.408  -5.716  0.00  0.00    +0.008 A 
ATOM     30  C   UNL     1      -6.858   0.282  -6.229  0.00  0.00    +0.022 A 
ATOM     31  C   UNL     1      -7.703  -0.333  -7.135  0.00  0.00    +0.059 A 
ATOM     32  C   UNL     1      -7.464  -1.639  -7.527  0.00  0.00    +0.060 A 
ATOM     33  C   UNL     1      -6.377  -2.326  -7.018  0.00  0.00    +0.028 A 
ATOM     34 CL   UNL     1      -8.524  -2.413  -8.664  0.00  0.00    -0.082 Cl
ATOM     35 CL   UNL     1      -9.064   0.532  -7.778  0.00  0.00    -0.082 Cl
ENDBRANCH  27  28
ENDBRANCH  26  27
ENDBRANCH   4  26
TORSDOF 6
