REMARK  Name = ZINC37030247
REMARK  5 active torsions:
REMARK  status: ('A' for Active; 'I' for Inactive)
REMARK    1  A    between atoms: C_3  and  S_18
REMARK    2  A    between atoms: C_6  and  N_7
REMARK    3  A    between atoms: C_8  and  C_10
REMARK    4  A    between atoms: C_13  and  O_17
REMARK    5  A    between atoms: S_18  and  C_19
REMARK                            x       y       z     vdW  Elec       q    Type
REMARK                         _______ _______ _______ _____ _____    ______ ____
ROOT
ATOM      1  N   UNL     1      -1.202  -0.721   0.010  0.00  0.00    -0.287 N 
ATOM      2  C   UNL     1      -1.187  -2.064  -0.099  0.00  0.00    +0.203 C 
ATOM      3  O   UNL     1      -0.131  -2.660  -0.113  0.00  0.00    -0.277 OA
ATOM      4  H   UNL     1      -2.046  -0.250   0.088  0.00  0.00    +0.155 HD
ENDROOT
BRANCH   2   5
ATOM      5  C   UNL     1      -2.483  -2.826  -0.205  0.00  0.00    +0.019 C 
ATOM      6  C   UNL     1      -3.006  -2.801  -1.657  0.00  0.00    +0.023 C 
ATOM      7  C   UNL     1      -3.619  -4.198  -1.886  0.00  0.00    +0.097 C 
ATOM      8  C   UNL     1      -3.415  -4.949  -0.553  0.00  0.00    -0.050 C 
ATOM      9  N   UNL     1      -2.264  -4.265   0.093  0.00  0.00    +0.388 N 
ATOM     10  H   UNL     1      -1.395  -4.580  -0.311  0.00  0.00    -0.085 HD
ATOM     11  H   UNL     1      -2.270  -4.424   1.089  0.00  0.00    -0.085 HD
BRANCH   7  12
ATOM     12  O   UNL     1      -5.011  -4.086  -2.187  0.00  0.00    -0.394 OA
ATOM     13  H   UNL     1      -5.450  -4.934  -2.341  0.00  0.00    +0.210 HD
ENDBRANCH   7  12
ENDBRANCH   2   5
BRANCH   1  19
ATOM     14  C   UNL     1       0.065   1.248  -0.586  0.00  0.00    +0.024 A 
ATOM     15  C   UNL     1       1.252   1.954  -0.586  0.00  0.00    +0.017 A 
ATOM     16  C   UNL     1       2.383   1.411   0.011  0.00  0.00    +0.016 A 
ATOM     17  C   UNL     1       2.319   0.158   0.607  0.00  0.00    +0.017 A 
ATOM     18  C   UNL     1       1.133  -0.548   0.607  0.00  0.00    +0.024 A 
ATOM     19  C   UNL     1       0.003  -0.005   0.010  0.00  0.00    +0.033 A 
BRANCH  16  20
ATOM     20  S   UNL     1       3.897   2.311   0.011  0.00  0.00    -0.016 S 
BRANCH  20  21
ATOM     21  C   UNL     1       5.056   1.222   0.884  0.00  0.00    +0.448 C 
ATOM     22  F   UNL     1       5.164   0.009   0.196  0.00  0.00    -0.160 F 
ATOM     23  F   UNL     1       6.312   1.834   0.950  0.00  0.00    -0.160 F 
ATOM     24  F   UNL     1       4.585   0.983   2.179  0.00  0.00    -0.160 F 
ENDBRANCH  20  21
ENDBRANCH  16  20
ENDBRANCH   1  19
TORSDOF 5
