REMARK  Name = ZINC18764578
REMARK  12 active torsions:
REMARK  status: ('A' for Active; 'I' for Inactive)
REMARK    1  A    between atoms: C_1  and  C_2
REMARK    2  A    between atoms: C_6  and  C_35
REMARK    3  A    between atoms: C_7  and  O_8
REMARK    4  A    between atoms: O_8  and  C_9
REMARK    5  A    between atoms: C_9  and  C_10
REMARK    6  A    between atoms: C_13  and  S_16
REMARK    7  A    between atoms: N_14  and  N_15
REMARK    8  A    between atoms: S_16  and  C_17
REMARK    9  A    between atoms: C_17  and  C_18
REMARK   10  A    between atoms: N_20  and  C_21
REMARK   11  A    between atoms: C_21  and  C_23
REMARK   12  A    between atoms: C_21  and  C_30
REMARK                            x       y       z     vdW  Elec       q    Type
REMARK                         _______ _______ _______ _____ _____    ______ ____
ROOT
ATOM      1  S   UNL     1      -3.856   0.249  -3.285  0.00  0.00    -0.075 S 
ENDROOT
BRANCH   1   5
ATOM      2  C   UNL     1      -5.724   1.564  -6.447  0.00  0.00    +0.189 A 
ATOM      3  N   UNL     1      -4.793   2.459  -6.277  0.00  0.00    -0.128 NA
ATOM      4  N   UNL     1      -4.077   2.162  -5.252  0.00  0.00    -0.121 NA
ATOM      5  C   UNL     1      -4.516   1.051  -4.708  0.00  0.00    +0.209 A 
ATOM      6  N   UNL     1      -5.578   0.632  -5.457  0.00  0.00    -0.225 N 
BRANCH   6   7
ATOM      7  N   UNL     1      -6.338  -0.485  -5.257  0.00  0.00    -0.295 N 
ATOM      8  H   UNL     1      -7.123  -0.286  -4.655  0.00  0.00    +0.163 HD
ATOM      9  H   UNL     1      -6.646  -0.875  -6.135  0.00  0.00    +0.163 HD
ENDBRANCH   6   7
BRANCH   2  10
ATOM     10  C   UNL     1      -6.766   1.555  -7.535  0.00  0.00    +0.306 C 
BRANCH  10  11
ATOM     11  O   UNL     1      -6.266   0.839  -8.667  0.00  0.00    -0.484 OA
BRANCH  11  18
ATOM     12  C   UNL     1      -7.995  -1.393  -8.778  0.00  0.00    +0.047 C 
ATOM     13  C   UNL     1      -7.959  -0.339  -9.854  0.00  0.00    -0.009 A 
ATOM     14  C   UNL     1      -8.797  -0.438 -10.948  0.00  0.00    +0.007 A 
ATOM     15  C   UNL     1      -8.761   0.527 -11.938  0.00  0.00    +0.001 A 
ATOM     16  C   UNL     1      -7.890   1.595 -11.833  0.00  0.00    +0.007 A 
ATOM     17  C   UNL     1      -7.053   1.702 -10.739  0.00  0.00    -0.009 A 
ATOM     18  C   UNL     1      -7.088   0.736  -9.744  0.00  0.00    +0.127 A 
ATOM     19  C   UNL     1      -6.105   2.867 -10.626  0.00  0.00    +0.047 C 
ENDBRANCH  11  18
ENDBRANCH  10  11
ENDBRANCH   2  10
ENDBRANCH   1   5
BRANCH   1  20
ATOM     20  C   UNL     1      -2.502   1.382  -2.885  0.00  0.00    +0.173 C 
BRANCH  20  21
ATOM     21  C   UNL     1      -1.773   0.883  -1.664  0.00  0.00    +0.224 C 
ATOM     22  O   UNL     1      -2.134  -0.139  -1.118  0.00  0.00    -0.275 OA
ATOM     23  N   UNL     1      -0.721   1.571  -1.179  0.00  0.00    -0.303 N 
ATOM     24  H   UNL     1      -0.433   2.388  -1.615  0.00  0.00    +0.150 HD
BRANCH  23  25
ATOM     25  C   UNL     1      -0.013   1.086   0.008  0.00  0.00    +0.140 C 
BRANCH  25  26
ATOM     26  C   UNL     1       1.401   1.607  -0.003  0.00  0.00    -0.022 A 
ATOM     27  C   UNL     1       1.656   2.903  -0.413  0.00  0.00    +0.008 A 
ATOM     28  C   UNL     1       2.952   3.384  -0.419  0.00  0.00    +0.038 A 
ATOM     29  C   UNL     1       3.996   2.564  -0.023  0.00  0.00    +0.123 A 
ATOM     30  C   UNL     1       3.739   1.266   0.383  0.00  0.00    +0.038 A 
ATOM     31  C   UNL     1       2.442   0.789   0.393  0.00  0.00    +0.008 A 
ATOM     32  F   UNL     1       5.263   3.032  -0.033  0.00  0.00    -0.205 F 
ENDBRANCH  25  26
BRANCH  25  33
ATOM     33  C   UNL     1      -0.718   1.572   1.248  0.00  0.00    +0.014 A 
ATOM     34  C   UNL     1      -0.954   0.914   2.409  0.00  0.00    +0.013 A 
ATOM     35  C   UNL     1      -1.627   1.566   3.425  0.00  0.00    +0.008 A 
ATOM     36  C   UNL     1      -2.033   2.845   3.229  0.00  0.00    +0.045 A 
ATOM     37  S   UNL     1      -1.454   3.166   1.571  0.00  0.00    -0.099 S 
ENDBRANCH  25  33
ENDBRANCH  23  25
ENDBRANCH  20  21
ENDBRANCH   1  20
TORSDOF 10
