REMARK  Name = ZINC12579394
REMARK  6 active torsions:
REMARK  status: ('A' for Active; 'I' for Inactive)
REMARK    1  A    between atoms: C_1  and  C_2
REMARK    2  A    between atoms: C_2  and  C_4
REMARK    3  A    between atoms: C_2  and  S_18
REMARK    4  A    between atoms: N_6  and  C_7
REMARK    5  A    between atoms: C_8  and  C_15
REMARK    6  A    between atoms: S_18  and  C_19
REMARK                            x       y       z     vdW  Elec       q    Type
REMARK                         _______ _______ _______ _____ _____    ______ ____
ROOT
ATOM      1  C   UNL     1      -1.412  -0.526   0.013  0.00  0.00    +0.231 C 
ATOM      2  O   UNL     1      -1.939  -0.827   1.062  0.00  0.00    -0.274 OA
ATOM      3  N   UNL     1      -2.090  -0.657  -1.144  0.00  0.00    -0.278 N 
ATOM      4  H   UNL     1      -1.669  -0.416  -1.984  0.00  0.00    +0.155 HD
ENDROOT
BRANCH   3   5
ATOM      5  C   UNL     1      -3.391  -1.137  -1.135  0.00  0.00    +0.084 A 
ATOM      6  C   UNL     1      -4.230  -1.342  -2.214  0.00  0.00    +0.068 A 
ATOM      7  C   UNL     1      -5.567  -1.862  -1.934  0.00  0.00    -0.023 A 
ATOM      8  C   UNL     1      -5.810  -2.077  -0.629  0.00  0.00    -0.004 A 
ATOM      9  S   UNL     1      -4.306  -1.610   0.189  0.00  0.00    -0.077 S 
ATOM     10  C   UNL     1      -7.199  -2.607  -0.397  0.00  0.00    +0.043 C 
ATOM     11  C   UNL     1      -7.960  -2.296  -1.705  0.00  0.00    +0.010 C 
ATOM     12  C   UNL     1      -6.811  -2.247  -2.733  0.00  0.00    +0.037 C 
BRANCH   6  13
ATOM     13  C   UNL     1      -3.796  -1.048  -3.584  0.00  0.00    +0.244 C 
ATOM     14  O   UNL     1      -3.253  -1.912  -4.248  0.00  0.00    -0.270 OA
ATOM     15  N   UNL     1      -3.999   0.177  -4.107  0.00  0.00    -0.325 N 
ATOM     16  H   UNL     1      -4.432   0.865  -3.577  0.00  0.00    +0.145 HD
ATOM     17  H   UNL     1      -3.712   0.371  -5.013  0.00  0.00    +0.145 HD
ENDBRANCH   6  13
ENDBRANCH   3   5
BRANCH   1  19
ATOM     18  C   UNL     1      -0.019   1.526   0.010  0.00  0.00    +0.029 C 
ATOM     19  C   UNL     1       0.002  -0.004   0.002  0.00  0.00    +0.137 C 
BRANCH  19  20
ATOM     20  S   UNL     1       0.879  -0.605   1.472  0.00  0.00    -0.073 S 
BRANCH  20  21
ATOM     21  C   UNL     1       2.533  -0.042   1.241  0.00  0.00    +0.192 A 
ATOM     22  N   UNL     1       3.567  -0.267   2.105  0.00  0.00    -0.219 NA
ATOM     23  C   UNL     1       4.689   0.336   1.563  0.00  0.00    +0.112 A 
ATOM     24  C   UNL     1       6.012   0.452   1.963  0.00  0.00    +0.053 A 
ATOM     25  C   UNL     1       6.887   1.149   1.143  0.00  0.00    +0.061 A 
ATOM     26  C   UNL     1       6.418   1.701  -0.038  0.00  0.00    +0.133 A 
ATOM     27  N   UNL     1       5.158   1.579  -0.400  0.00  0.00    -0.233 NA
ATOM     28  C   UNL     1       4.279   0.921   0.352  0.00  0.00    +0.181 A 
ATOM     29  N   UNL     1       2.957   0.650   0.210  0.00  0.00    -0.201 NA
ATOM     30 CL   UNL     1       8.554   1.327   1.592  0.00  0.00    -0.082 Cl
ENDBRANCH  20  21
ENDBRANCH  19  20
ENDBRANCH   1  19
TORSDOF 5
