REMARK  Name = ZINC45070330
REMARK  6 active torsions:
REMARK  status: ('A' for Active; 'I' for Inactive)
REMARK    1  A    between atoms: C_10  and  N_12
REMARK    2  A    between atoms: N_12  and  C_13
REMARK    3  A    between atoms: C_13  and  C_14
REMARK    4  A    between atoms: C_14  and  C_15
REMARK    5  A    between atoms: C_15  and  S_16
REMARK    6  A    between atoms: S_16  and  N_19
REMARK                            x       y       z     vdW  Elec       q    Type
REMARK                         _______ _______ _______ _____ _____    ______ ____
ROOT
ATOM      1  N   UNL     1       3.918   3.057  -0.974  0.00  0.00    +0.384 N 
ATOM      2  H   UNL     1       4.872   3.385  -0.989  0.00  0.00    -0.085 HD
ATOM      3  H   UNL     1       3.657   2.742  -1.897  0.00  0.00    -0.085 HD
ENDROOT
BRANCH   1  13
ATOM      4  C   UNL     1       5.515  -0.906  -1.977  0.00  0.00    +0.015 A 
ATOM      5  C   UNL     1       4.709   0.196  -1.770  0.00  0.00    +0.003 A 
ATOM      6  C   UNL     1       4.601   0.753  -0.507  0.00  0.00    -0.058 A 
ATOM      7  C   UNL     1       5.303   0.204   0.550  0.00  0.00    -0.045 A 
ATOM      8  C   UNL     1       6.111  -0.900   0.342  0.00  0.00    +0.019 A 
ATOM      9  C   UNL     1       6.218  -1.456  -0.919  0.00  0.00    +0.018 A 
ATOM     10 BR   UNL     1       7.323  -2.965  -1.199  0.00  0.00    -0.050 Br
ATOM     11  C   UNL     1       5.020   0.988   1.814  0.00  0.00    +0.034 C 
ATOM     12  C   UNL     1       4.420   2.327   1.334  0.00  0.00    -0.007 C 
ATOM     13  C   UNL     1       3.797   1.942  -0.025  0.00  0.00    -0.040 C 
ENDBRANCH   1  13
BRANCH   1  14
ATOM     14  C   UNL     1       3.029   4.151  -0.560  0.00  0.00    -0.080 C 
BRANCH  14  15
ATOM     15  C   UNL     1       3.059   5.259  -1.615  0.00  0.00    +0.005 C 
BRANCH  15  16
ATOM     16  C   UNL     1       2.134   6.399  -1.183  0.00  0.00    +0.183 C 
BRANCH  16  17
ATOM     17  S   UNL     1       2.169   7.713  -2.433  0.00  0.00    +0.027 S 
ATOM     18  O   UNL     1       3.446   8.336  -2.452  0.00  0.00    -0.158 OA
ATOM     19  O   UNL     1       1.567   7.259  -3.638  0.00  0.00    -0.158 OA
BRANCH  17  20
ATOM     20  N   UNL     1       1.140   8.875  -1.858  0.00  0.00    -0.208 NA
ATOM     21  H   UNL     1       1.293   9.808  -2.074  0.00  0.00    +0.144 HD
ATOM     22  H   UNL     1       0.384   8.623  -1.305  0.00  0.00    +0.144 HD
ENDBRANCH  17  20
ENDBRANCH  16  17
ENDBRANCH  15  16
ENDBRANCH  14  15
ENDBRANCH   1  14
TORSDOF 6
