REMARK  Name = ZINC23335264
REMARK  9 active torsions:
REMARK  status: ('A' for Active; 'I' for Inactive)
REMARK    1  A    between atoms: C_1  and  C_2
REMARK    2  A    between atoms: C_6  and  C_8
REMARK    3  A    between atoms: C_8  and  O_9
REMARK    4  A    between atoms: O_9  and  C_10
REMARK    5  A    between atoms: C_10  and  C_12
REMARK    6  A    between atoms: C_10  and  C_33
REMARK    7  A    between atoms: C_12  and  N_13
REMARK    8  A    between atoms: N_21  and  C_22
REMARK    9  A    between atoms: C_25  and  C_27
REMARK                            x       y       z     vdW  Elec       q    Type
REMARK                         _______ _______ _______ _____ _____    ______ ____
ROOT
ATOM      1  N   UNL     1       4.288   0.181   1.403  0.00  0.00    +0.384 N 
ATOM      2  C   UNL     1       4.111  -1.203   0.944  0.00  0.00    -0.059 C 
ATOM      3  C   UNL     1       5.485  -1.858   0.767  0.00  0.00    +0.091 C 
ATOM      4  N   UNL     1       6.239  -1.711   2.021  0.00  0.00    -0.289 N 
ATOM      5  C   UNL     1       6.343  -0.370   2.616  0.00  0.00    +0.091 C 
ATOM      6  C   UNL     1       4.936   0.227   2.721  0.00  0.00    -0.059 C 
ATOM      7  C   UNL     1       6.819  -2.776   2.608  0.00  0.00    +0.302 C 
ATOM      8  O   UNL     1       7.514  -2.623   3.594  0.00  0.00    -0.253 OA
ATOM      9  N   UNL     1       6.629  -4.011   2.104  0.00  0.00    -0.296 N 
ATOM     10  H   UNL     1       6.070  -4.141   1.165  0.00  0.00    +0.151 HD
ATOM     11  H   UNL     1       4.952   0.689   0.688  0.00  0.00    -0.082 HD
ENDROOT
BRANCH   9  12
ATOM     12  C   UNL     1       7.166  -5.180   2.805  0.00  0.00    +0.082 C 
ATOM     13  C   UNL     1       7.854  -6.255   1.961  0.00  0.00    +0.033 C 
ATOM     14  C   UNL     1       6.476  -6.524   2.568  0.00  0.00    +0.041 C 
BRANCH  14  15
ATOM     15  C   UNL     1       6.402  -7.482   3.729  0.00  0.00    -0.042 A 
ATOM     16  C   UNL     1       7.564  -7.946   4.317  0.00  0.00    +0.004 A 
ATOM     17  C   UNL     1       7.497  -8.822   5.385  0.00  0.00    +0.000 A 
ATOM     18  C   UNL     1       6.267  -9.240   5.859  0.00  0.00    +0.000 A 
ATOM     19  C   UNL     1       5.106  -8.780   5.268  0.00  0.00    +0.000 A 
ATOM     20  C   UNL     1       5.173  -7.902   4.203  0.00  0.00    +0.004 A 
ENDBRANCH  14  15
ENDBRANCH   9  12
BRANCH   1  21
ATOM     21  C   UNL     1       3.006   0.898   1.422  0.00  0.00    -0.042 C 
BRANCH  21  22
ATOM     22  C   UNL     1       2.484   1.045  -0.009  0.00  0.00    +0.132 C 
BRANCH  22  23
ATOM     23  C   UNL     1       1.169   1.780   0.010  0.00  0.00    -0.021 A 
ATOM     24  C   UNL     1      -0.019   1.073   0.019  0.00  0.00    +0.007 A 
ATOM     25  C   UNL     1      -1.225   1.746   0.030  0.00  0.00    +0.020 A 
ATOM     26  C   UNL     1      -1.245   3.130   0.043  0.00  0.00    +0.041 A 
ATOM     27  C   UNL     1      -0.056   3.838   0.034  0.00  0.00    +0.020 A 
ATOM     28  C   UNL     1       1.150   3.163   0.017  0.00  0.00    +0.007 A 
ATOM     29 CL   UNL     1      -2.760   3.977   0.064  0.00  0.00    -0.084 Cl
ENDBRANCH  22  23
BRANCH  22  30
ATOM     30  O   UNL     1       3.430   1.780  -0.788  0.00  0.00    -0.369 OA
BRANCH  30  31
ATOM     31  C   UNL     1       3.437   1.432  -2.174  0.00  0.00    +0.195 C 
BRANCH  31  37
ATOM     32  C   UNL     1       4.664   5.574  -4.701  0.00  0.00    +0.044 C 
ATOM     33  C   UNL     1       5.053   4.245  -4.104  0.00  0.00    -0.050 A 
ATOM     34  C   UNL     1       6.353   3.789  -4.220  0.00  0.00    +0.003 A 
ATOM     35  C   UNL     1       6.709   2.571  -3.674  0.00  0.00    +0.001 A 
ATOM     36  C   UNL     1       5.766   1.808  -3.011  0.00  0.00    +0.006 A 
ATOM     37  C   UNL     1       4.466   2.264  -2.896  0.00  0.00    -0.022 A 
ATOM     38  C   UNL     1       4.108   3.480  -3.447  0.00  0.00    +0.009 A 
ENDBRANCH  31  37
ENDBRANCH  30  31
ENDBRANCH  22  30
ENDBRANCH  21  22
ENDBRANCH   1  21
TORSDOF 8
