REMARK  Name = ZINC59169661
REMARK  13 active torsions:
REMARK  status: ('A' for Active; 'I' for Inactive)
REMARK    1  A    between atoms: C_1  and  C_2
REMARK    2  A    between atoms: C_7  and  C_8
REMARK    3  A    between atoms: C_8  and  N_9
REMARK    4  A    between atoms: N_9  and  C_10
REMARK    5  A    between atoms: N_9  and  C_20
REMARK    6  A    between atoms: C_12  and  C_18
REMARK    7  A    between atoms: C_12  and  C_19
REMARK    8  A    between atoms: C_14  and  C_16
REMARK    9  A    between atoms: C_14  and  C_17
REMARK   10  A    between atoms: C_20  and  N_22
REMARK   11  A    between atoms: N_22  and  C_23
REMARK   12  A    between atoms: C_26  and  O_29
REMARK   13  A    between atoms: O_29  and  C_30
REMARK                            x       y       z     vdW  Elec       q    Type
REMARK                         _______ _______ _______ _____ _____    ______ ____
ROOT
ATOM      1  N   UNL     1      -1.527   0.251   2.776  0.00  0.00    -0.305 N 
ENDROOT
BRANCH   1   2
ATOM      2  C   UNL     1      -2.215  -0.704   3.655  0.00  0.00    +0.073 C 
ATOM      3  C   UNL     1      -3.513  -1.159   2.985  0.00  0.00    +0.009 C 
ATOM      4  C   UNL     1      -4.247  -2.144   3.893  0.00  0.00    -0.072 C 
ATOM      5  N   UNL     1      -4.468  -1.601   5.226  0.00  0.00    +0.386 N 
ATOM      6  C   UNL     1      -3.345  -0.953   5.885  0.00  0.00    -0.072 C 
ATOM      7  C   UNL     1      -2.572  -0.010   4.969  0.00  0.00    +0.009 C 
ATOM      8  C   UNL     1      -2.391  -1.973   6.512  0.00  0.00    -0.010 C 
ATOM      9  C   UNL     1      -3.917  -0.100   7.043  0.00  0.00    -0.010 C 
ATOM     10  C   UNL     1      -3.507  -3.480   3.932  0.00  0.00    -0.010 C 
ATOM     11  C   UNL     1      -5.633  -2.405   3.260  0.00  0.00    -0.010 C 
ATOM     12  H   UNL     1      -5.241  -0.932   5.175  0.00  0.00    -0.084 HD
ATOM     13  H   UNL     1      -4.804  -2.355   5.828  0.00  0.00    -0.084 HD
ENDBRANCH   1   2
BRANCH   1  14
ATOM     14  C   UNL     1      -2.163   1.364   2.361  0.00  0.00    +0.138 C 
ATOM     15  S   UNL     1      -3.731   1.723   2.947  0.00  0.00    -0.018 S 
BRANCH  14  16
ATOM     16  N   UNL     1      -1.564   2.196   1.486  0.00  0.00    -0.297 N 
ATOM     17  H   UNL     1      -1.879   2.245   0.570  0.00  0.00    +0.154 HD
BRANCH  16  18
ATOM     18  C   UNL     1      -0.485   2.989   1.899  0.00  0.00    +0.033 A 
ATOM     19  C   UNL     1       0.002   2.879   3.194  0.00  0.00    +0.027 A 
ATOM     20  C   UNL     1       1.065   3.661   3.601  0.00  0.00    +0.048 A 
ATOM     21  C   UNL     1       1.646   4.557   2.715  0.00  0.00    +0.129 A 
ATOM     22  C   UNL     1       1.160   4.667   1.420  0.00  0.00    +0.048 A 
ATOM     23  C   UNL     1       0.100   3.882   1.011  0.00  0.00    +0.027 A 
BRANCH  21  24
ATOM     24  O   UNL     1       2.692   5.327   3.116  0.00  0.00    -0.456 OA
BRANCH  24  25
ATOM     25  C   UNL     1       3.208   5.108   4.354  0.00  0.00    +0.128 A 
ATOM     26  C   UNL     1       4.016   4.005   4.586  0.00  0.00    +0.046 A 
ATOM     27  C   UNL     1       4.538   3.785   5.846  0.00  0.00    +0.004 A 
ATOM     28  C   UNL     1       4.257   4.665   6.875  0.00  0.00    +0.000 A 
ATOM     29  C   UNL     1       3.452   5.765   6.647  0.00  0.00    +0.004 A 
ATOM     30  C   UNL     1       2.931   5.992   5.387  0.00  0.00    +0.046 A 
ENDBRANCH  24  25
ENDBRANCH  21  24
ENDBRANCH  16  18
ENDBRANCH  14  16
ENDBRANCH   1  14
BRANCH   1  31
ATOM     31  C   UNL     1      -0.149  -0.009   2.349  0.00  0.00    +0.142 C 
BRANCH  31  38
ATOM     32  C   UNL     1      -0.627  -2.848   2.116  0.00  0.00    +0.044 C 
ATOM     33  C   UNL     1      -0.387  -2.021   0.879  0.00  0.00    -0.046 A 
ATOM     34  C   UNL     1      -0.401  -2.619  -0.367  0.00  0.00    +0.003 A 
ATOM     35  C   UNL     1      -0.181  -1.860  -1.501  0.00  0.00    +0.000 A 
ATOM     36  C   UNL     1       0.052  -0.502  -1.389  0.00  0.00    +0.000 A 
ATOM     37  C   UNL     1       0.065   0.097  -0.143  0.00  0.00    +0.005 A 
ATOM     38  C   UNL     1      -0.159  -0.662   0.991  0.00  0.00    -0.027 A 
ENDBRANCH  31  38
ENDBRANCH   1  31
TORSDOF 8
