REMARK  Name = ZINC04558760
REMARK  10 active torsions:
REMARK  status: ('A' for Active; 'I' for Inactive)
REMARK    1  A    between atoms: C_1  and  O_2
REMARK    2  A    between atoms: O_2  and  C_3
REMARK    3  A    between atoms: C_6  and  N_19
REMARK    4  A    between atoms: C_8  and  N_9
REMARK    5  A    between atoms: N_10  and  C_11
REMARK    6  A    between atoms: C_14  and  N_18
REMARK    7  A    between atoms: C_16  and  N_17
REMARK    8  A    between atoms: N_20  and  C_21
REMARK    9  A    between atoms: C_24  and  N_28
REMARK   10  A    between atoms: C_26  and  N_27
REMARK                            x       y       z     vdW  Elec       q    Type
REMARK                         _______ _______ _______ _____ _____    ______ ____
ROOT
ATOM      1  C   UNL     1       1.665  -1.177  -1.019  0.00  0.00    +0.147 A 
ATOM      2  C   UNL     1       2.711  -0.790  -1.845  0.00  0.00    +0.050 A 
ATOM      3  C   UNL     1       3.433  -1.734  -2.541  0.00  0.00    +0.033 A 
ATOM      4  C   UNL     1       3.117  -3.093  -2.421  0.00  0.00    +0.088 A 
ATOM      5  C   UNL     1       2.068  -3.494  -1.594  0.00  0.00    +0.062 A 
ATOM      6  C   UNL     1       1.342  -2.537  -0.885  0.00  0.00    +0.130 A 
ENDROOT
BRANCH   1   8
ATOM      7  C   UNL     1       1.342   1.122  -0.518  0.00  0.00    +0.277 C 
ATOM      8  O   UNL     1       0.959  -0.242  -0.335  0.00  0.00    -0.493 OA
ENDBRANCH   1   8
BRANCH   6   9
ATOM      9  N   UNL     1       0.317  -2.921  -0.069  0.00  0.00    -0.145 NA
ATOM     10  N   UNL     1      -0.460  -3.889  -0.420  0.00  0.00    -0.147 NA
BRANCH  10  11
ATOM     11  C   UNL     1      -0.418  -4.367  -1.695  0.00  0.00    +0.107 A 
ATOM     12  C   UNL     1      -0.256  -3.486  -2.770  0.00  0.00    +0.033 A 
ATOM     13  C   UNL     1      -0.215  -3.972  -4.057  0.00  0.00    +0.025 A 
ATOM     14  C   UNL     1      -0.335  -5.340  -4.295  0.00  0.00    +0.026 A 
ATOM     15  C   UNL     1      -0.496  -6.224  -3.236  0.00  0.00    +0.047 A 
ATOM     16  C   UNL     1      -0.533  -5.748  -1.936  0.00  0.00    +0.054 A 
BRANCH  16  17
ATOM     17  N   UNL     1      -0.688  -6.631  -0.872  0.00  0.00    -0.356 N 
ATOM     18  H   UNL     1      -0.718  -6.296   0.037  0.00  0.00    +0.142 HD
ATOM     19  H   UNL     1      -0.767  -7.584  -1.040  0.00  0.00    +0.142 HD
ENDBRANCH  16  17
BRANCH  14  20
ATOM     20  N   UNL     1      -0.292  -5.823  -5.601  0.00  0.00    -0.358 N 
ATOM     21  H   UNL     1      -0.179  -5.207  -6.342  0.00  0.00    +0.142 HD
ATOM     22  H   UNL     1      -0.375  -6.774  -5.769  0.00  0.00    +0.142 HD
ENDBRANCH  14  20
ENDBRANCH  10  11
ENDBRANCH   6   9
BRANCH   4  23
ATOM     23  N   UNL     1       3.836  -4.026  -3.114  0.00  0.00    -0.149 NA
ATOM     24  N   UNL     1       4.805  -3.655  -3.880  0.00  0.00    -0.147 NA
BRANCH  24  25
ATOM     25  C   UNL     1       5.521  -4.585  -4.571  0.00  0.00    +0.107 A 
ATOM     26  C   UNL     1       5.204  -5.943  -4.457  0.00  0.00    +0.033 A 
ATOM     27  C   UNL     1       5.929  -6.879  -5.156  0.00  0.00    +0.025 A 
ATOM     28  C   UNL     1       6.981  -6.481  -5.979  0.00  0.00    +0.026 A 
ATOM     29  C   UNL     1       7.306  -5.137  -6.101  0.00  0.00    +0.047 A 
ATOM     30  C   UNL     1       6.579  -4.183  -5.406  0.00  0.00    +0.054 A 
BRANCH  30  31
ATOM     31  N   UNL     1       6.898  -2.835  -5.530  0.00  0.00    -0.356 N 
ATOM     32  H   UNL     1       6.391  -2.169  -5.040  0.00  0.00    +0.142 HD
ATOM     33  H   UNL     1       7.628  -2.560  -6.107  0.00  0.00    +0.142 HD
ENDBRANCH  30  31
BRANCH  28  34
ATOM     34  N   UNL     1       7.710  -7.437  -6.684  0.00  0.00    -0.358 N 
ATOM     35  H   UNL     1       7.485  -8.377  -6.601  0.00  0.00    +0.142 HD
ATOM     36  H   UNL     1       8.443  -7.162  -7.257  0.00  0.00    +0.142 HD
ENDBRANCH  28  34
ENDBRANCH  24  25
ENDBRANCH   4  23
TORSDOF 9
