REMARK  Name = ZINC14971505
REMARK  10 active torsions:
REMARK  status: ('A' for Active; 'I' for Inactive)
REMARK    1  A    between atoms: C_1  and  O_2
REMARK    2  A    between atoms: O_2  and  C_3
REMARK    3  A    between atoms: C_8  and  C_9
REMARK    4  A    between atoms: C_9  and  C_10
REMARK    5  A    between atoms: C_10  and  C_11
REMARK    6  A    between atoms: N_13  and  C_14
REMARK    7  A    between atoms: N_13  and  C_33
REMARK    8  A    between atoms: C_14  and  C_15
REMARK    9  A    between atoms: C_23  and  N_24
REMARK   10  A    between atoms: C_33  and  C_34
REMARK                            x       y       z     vdW  Elec       q    Type
REMARK                         _______ _______ _______ _____ _____    ______ ____
ROOT
ATOM      1  C   UNL     1      -4.771   4.139  -1.310  0.00  0.00    +0.146 C 
ENDROOT
BRANCH   1   2
ATOM      2  C   UNL     1      -5.421   3.093  -0.442  0.00  0.00    +0.008 A 
ATOM      3  C   UNL     1      -5.421   1.787  -0.831  0.00  0.00    +0.018 A 
ATOM      4  C   UNL     1      -6.039   0.840   0.011  0.00  0.00    -0.001 A 
ATOM      5  C   UNL     1      -6.074  -0.521  -0.325  0.00  0.00    +0.014 A 
ATOM      6  C   UNL     1      -6.680  -1.415   0.511  0.00  0.00    -0.043 A 
ATOM      7  C   UNL     1      -7.267  -0.988   1.702  0.00  0.00    -0.042 A 
ATOM      8  C   UNL     1      -7.249   0.330   2.055  0.00  0.00    +0.030 A 
ATOM      9  C   UNL     1      -6.634   1.275   1.220  0.00  0.00    +0.048 A 
ATOM     10  C   UNL     1      -6.022   3.461   0.770  0.00  0.00    +0.104 A 
ATOM     11  C   UNL     1      -7.860  -2.179   2.428  0.00  0.00    +0.036 C 
ATOM     12  C   UNL     1      -7.196  -3.416   1.789  0.00  0.00    +0.009 C 
ATOM     13  C   UNL     1      -6.845  -2.914   0.373  0.00  0.00    +0.036 C 
ATOM     14  N   UNL     1      -6.636   2.595   1.615  0.00  0.00    -0.343 N 
ATOM     15  H   UNL     1      -7.073   2.903   2.491  0.00  0.00    +0.167 HD
BRANCH  10  16
ATOM     16  N   UNL     1      -6.009   4.793   1.155  0.00  0.00    -0.312 N 
ATOM     17  C   UNL     1      -5.816   4.920   2.607  0.00  0.00    +0.134 C 
ATOM     18  C   UNL     1      -5.749   6.403   2.980  0.00  0.00    +0.178 C 
ATOM     19  O   UNL     1      -6.940   7.057   2.533  0.00  0.00    -0.377 OA
ATOM     20  C   UNL     1      -7.159   6.954   1.123  0.00  0.00    +0.178 C 
ATOM     21  C   UNL     1      -7.240   5.476   0.732  0.00  0.00    +0.134 C 
ENDBRANCH  10  16
ENDBRANCH   1   2
BRANCH   1  24
ATOM     22  C   UNL     1      -3.134   5.405  -0.024  0.00  0.00    +0.216 C 
ATOM     23  O   UNL     1      -4.019   6.172   0.293  0.00  0.00    -0.276 OA
ATOM     24  N   UNL     1      -3.400   4.373  -0.849  0.00  0.00    -0.295 N 
BRANCH  22  25
ATOM     25  C   UNL     1      -1.738   5.606   0.506  0.00  0.00    +0.101 C 
BRANCH  25  26
ATOM     26  C   UNL     1      -1.713   6.826   1.429  0.00  0.00    +0.048 C 
BRANCH  26  32
ATOM     27  C   UNL     1       0.667   7.613   1.367  0.00  0.00    +0.123 A 
ATOM     28  C   UNL     1       1.923   7.737   1.944  0.00  0.00    +0.046 A 
ATOM     29  C   UNL     1       2.163   7.198   3.193  0.00  0.00    +0.004 A 
ATOM     30  C   UNL     1       1.153   6.540   3.870  0.00  0.00    +0.000 A 
ATOM     31  C   UNL     1      -0.100   6.420   3.299  0.00  0.00    +0.007 A 
ATOM     32  C   UNL     1      -0.346   6.957   2.050  0.00  0.00    -0.005 A 
BRANCH  27  34
ATOM     33  C   UNL     1       1.520   8.799  -0.509  0.00  0.00    +0.277 C 
ATOM     34  O   UNL     1       0.429   8.137   0.136  0.00  0.00    -0.495 OA
ENDBRANCH  27  34
ENDBRANCH  26  32
ENDBRANCH  25  26
ENDBRANCH  22  25
BRANCH  24  35
ATOM     35  C   UNL     1      -2.319   3.487  -1.285  0.00  0.00    +0.139 C 
BRANCH  35  36
ATOM     36  C   UNL     1      -2.180   2.327  -0.297  0.00  0.00    +0.136 C 
ATOM     37  C   UNL     1      -1.044   1.378  -0.738  0.00  0.00    +0.035 C 
ATOM     38  C   UNL     1      -0.386   0.938   0.589  0.00  0.00    +0.031 C 
ATOM     39  C   UNL     1      -1.200   1.674   1.677  0.00  0.00    +0.160 C 
ATOM     40  O   UNL     1      -1.771   2.817   0.998  0.00  0.00    -0.375 OA
ENDBRANCH  35  36
ENDBRANCH  24  35
ENDBRANCH   1  24
TORSDOF 9
