REMARK  Name = ZINC63819161
REMARK  7 active torsions:
REMARK  status: ('A' for Active; 'I' for Inactive)
REMARK    1  A    between atoms: C_7  and  C_10
REMARK    2  A    between atoms: C_10  and  C_12
REMARK    3  A    between atoms: C_10  and  C_31
REMARK    4  A    between atoms: C_12  and  N_13
REMARK    5  A    between atoms: C_14  and  C_16
REMARK    6  A    between atoms: C_20  and  S_22
REMARK    7  A    between atoms: S_22  and  N_25
REMARK                            x       y       z     vdW  Elec       q    Type
REMARK                         _______ _______ _______ _____ _____    ______ ____
ROOT
ATOM      1  N   UNL     1      -0.153  -4.933  -1.504  0.00  0.00    -0.311 N 
ATOM      2  C   UNL     1      -0.205  -5.668  -2.633  0.00  0.00    +0.244 C 
ATOM      3  O   UNL     1       0.473  -5.356  -3.592  0.00  0.00    -0.270 OA
ATOM      4  H   UNL     1      -0.694  -5.181  -0.738  0.00  0.00    +0.149 HD
ENDROOT
BRANCH   2   5
ATOM      5  C   UNL     1      -1.087  -6.852  -2.704  0.00  0.00    +0.039 A 
ATOM      6  C   UNL     1      -1.871  -7.209  -1.606  0.00  0.00    +0.013 A 
ATOM      7  C   UNL     1      -2.692  -8.315  -1.679  0.00  0.00    +0.003 A 
ATOM      8  C   UNL     1      -2.739  -9.070  -2.838  0.00  0.00    +0.028 A 
ATOM      9  C   UNL     1      -1.964  -8.722  -3.930  0.00  0.00    +0.106 A 
ATOM     10  C   UNL     1      -1.143  -7.615  -3.871  0.00  0.00    +0.041 A 
BRANCH   9  11
ATOM     11  S   UNL     1      -2.030  -9.691  -5.400  0.00  0.00    +0.061 S 
ATOM     12  O   UNL     1      -0.804  -9.474  -6.085  0.00  0.00    -0.153 OA
ATOM     13  O   UNL     1      -2.468 -10.986  -5.013  0.00  0.00    -0.153 OA
BRANCH  11  14
ATOM     14  N   UNL     1      -3.224  -9.053  -6.353  0.00  0.00    -0.172 NA
ATOM     15  C   UNL     1      -4.615  -9.522  -6.242  0.00  0.00    +0.137 C 
ATOM     16  C   UNL     1      -5.527  -8.300  -6.090  0.00  0.00    +0.177 C 
ATOM     17  O   UNL     1      -5.252  -7.373  -7.143  0.00  0.00    -0.377 OA
ATOM     18  C   UNL     1      -3.922  -6.851  -7.130  0.00  0.00    +0.177 C 
ATOM     19  C   UNL     1      -2.928  -7.995  -7.332  0.00  0.00    +0.137 C 
ENDBRANCH  11  14
ENDBRANCH   9  11
ENDBRANCH   2   5
BRANCH   1  20
ATOM     20  C   UNL     1       0.721  -3.759  -1.433  0.00  0.00    +0.113 C 
BRANCH  20  21
ATOM     21  C   UNL     1       0.498  -3.037  -0.103  0.00  0.00    +0.048 C 
BRANCH  21  28
ATOM     22  C   UNL     1      -3.034  -3.781   2.730  0.00  0.00    +0.001 A 
ATOM     23  C   UNL     1      -4.182  -3.048   2.402  0.00  0.00    +0.002 A 
ATOM     24  C   UNL     1      -4.233  -2.205   1.349  0.00  0.00    +0.026 A 
ATOM     25  C   UNL     1      -3.094  -2.027   0.515  0.00  0.00    +0.043 A 
ATOM     26  N   UNL     1      -2.896  -1.282  -0.545  0.00  0.00    -0.380 N 
ATOM     27  C   UNL     1      -1.521  -1.488  -1.012  0.00  0.00    +0.145 C 
ATOM     28  C   UNL     1      -0.905  -2.488  -0.059  0.00  0.00    -0.036 C 
ATOM     29  C   UNL     1      -1.868  -2.790   0.841  0.00  0.00    -0.001 A 
ATOM     30  C   UNL     1      -1.897  -3.686   2.004  0.00  0.00    +0.010 A 
ATOM     31  H   UNL     1      -3.550  -0.693  -0.953  0.00  0.00    +0.160 HD
ENDBRANCH  21  28
BRANCH  21  32
ATOM     32  C   UNL     1       1.500  -1.888   0.027  0.00  0.00    +0.063 C 
ATOM     33  C   UNL     1       2.947  -2.413   0.213  0.00  0.00    +0.042 C 
ATOM     34  C   UNL     1       3.696  -1.567   1.192  0.00  0.00    -0.019 C 
ATOM     35  C   UNL     1       3.036  -0.779   2.018  0.00  0.00    +0.036 C 
ATOM     36  S   UNL     1       1.308  -1.003   1.632  0.00  0.00    -0.129 S 
ENDBRANCH  21  32
ENDBRANCH  20  21
ENDBRANCH   1  20
TORSDOF 7
