REMARK  Name = ZINC36514541
REMARK  21 active torsions:
REMARK  status: ('A' for Active; 'I' for Inactive)
REMARK    1  A    between atoms: C_1  and  C_2
REMARK    2  A    between atoms: C_2  and  C_3
REMARK    3  A    between atoms: C_3  and  C_4
REMARK    4  A    between atoms: C_4  and  C_5
REMARK    5  A    between atoms: C_5  and  C_6
REMARK    6  A    between atoms: C_6  and  N_7
REMARK    7  A    between atoms: N_7  and  C_8
REMARK    8  A    between atoms: C_8  and  C_10
REMARK    9  A    between atoms: C_8  and  C_17
REMARK   10  A    between atoms: C_15  and  O_16
REMARK   11  A    between atoms: N_19  and  C_20
REMARK   12  A    between atoms: C_20  and  C_21
REMARK   13  A    between atoms: C_20  and  C_22
REMARK   14  A    between atoms: C_20  and  C_23
REMARK   15  A    between atoms: C_23  and  C_24
REMARK   16  A    between atoms: C_24  and  C_25
REMARK   17  A    between atoms: C_24  and  C_26
REMARK   18  A    between atoms: C_24  and  C_27
REMARK   19  A    between atoms: C_28  and  C_30
REMARK   20  A    between atoms: C_31  and  O_37
REMARK   21  A    between atoms: C_35  and  O_36
REMARK                            x       y       z     vdW  Elec       q    Type
REMARK                         _______ _______ _______ _____ _____    ______ ____
ROOT
ATOM      1  C   UNL     1       3.797  -6.627  -2.163  0.00  0.00    +0.196 C 
ENDROOT
BRANCH   1   2
ATOM      2  C   UNL     1       3.352  -6.213  -3.542  0.00  0.00    +0.023 A 
ATOM      3  C   UNL     1       3.434  -7.107  -4.592  0.00  0.00    +0.009 A 
ATOM      4  C   UNL     1       3.026  -6.728  -5.857  0.00  0.00    +0.001 A 
ATOM      5  C   UNL     1       2.534  -5.454  -6.075  0.00  0.00    +0.004 A 
ATOM      6  C   UNL     1       2.448  -4.557  -5.028  0.00  0.00    +0.046 A 
ATOM      7  C   UNL     1       2.852  -4.937  -3.756  0.00  0.00    +0.122 A 
BRANCH   7   8
ATOM      8  O   UNL     1       2.764  -4.058  -2.723  0.00  0.00    -0.506 OA
ATOM      9  H   UNL     1       3.522  -3.462  -2.647  0.00  0.00    +0.292 HD
ENDBRANCH   7   8
ENDBRANCH   1   2
BRANCH   1  10
ATOM     10  C   UNL     1       4.888  -7.660  -2.276  0.00  0.00    +0.239 C 
ATOM     11  O   UNL     1       4.652  -8.822  -2.018  0.00  0.00    -0.273 OA
ATOM     12  N   UNL     1       6.125  -7.294  -2.665  0.00  0.00    -0.308 N 
ATOM     13  H   UNL     1       6.329  -6.358  -2.816  0.00  0.00    +0.149 HD
BRANCH  12  14
ATOM     14  C   UNL     1       7.163  -8.310  -2.860  0.00  0.00    +0.030 C 
ATOM     15  C   UNL     1       7.533  -8.927  -1.509  0.00  0.00    +0.031 C 
ATOM     16  C   UNL     1       6.637  -9.404  -3.792  0.00  0.00    +0.031 C 
BRANCH  14  17
ATOM     17  C   UNL     1       8.402  -7.662  -3.481  0.00  0.00    +0.031 C 
BRANCH  17  18
ATOM     18  C   UNL     1       7.974  -6.732  -4.619  0.00  0.00    -0.036 C 
ATOM     19  C   UNL     1       7.403  -5.439  -4.033  0.00  0.00    +0.010 C 
ATOM     20  C   UNL     1       9.187  -6.405  -5.492  0.00  0.00    +0.010 C 
ATOM     21  C   UNL     1       6.905  -7.423  -5.468  0.00  0.00    +0.010 C 
ENDBRANCH  17  18
ENDBRANCH  14  17
ENDBRANCH  12  14
ENDBRANCH   1  10
BRANCH   1  22
ATOM     22  N   UNL     1       2.661  -7.194  -1.432  0.00  0.00    -0.282 N 
ATOM     23  C   UNL     1       2.015  -8.271  -1.921  0.00  0.00    +0.255 C 
ATOM     24  O   UNL     1       2.321  -8.721  -3.009  0.00  0.00    -0.270 OA
BRANCH  23  25
ATOM     25  C   UNL     1       0.937  -8.900  -1.140  0.00  0.00    +0.119 A 
ATOM     26  C   UNL     1      -0.391  -8.478  -1.300  0.00  0.00    +0.133 A 
ATOM     27  C   UNL     1      -1.397  -9.078  -0.560  0.00  0.00    +0.046 A 
ATOM     28  C   UNL     1      -1.095 -10.090   0.333  0.00  0.00    +0.007 A 
ATOM     29  C   UNL     1       0.210 -10.513   0.499  0.00  0.00    +0.046 A 
ATOM     30  C   UNL     1       1.231  -9.931  -0.235  0.00  0.00    +0.133 A 
BRANCH  30  31
ATOM     31  O   UNL     1       2.510 -10.352  -0.075  0.00  0.00    -0.506 OA
ATOM     32  H   UNL     1       2.998  -9.878   0.613  0.00  0.00    +0.292 HD
ENDBRANCH  30  31
BRANCH  26  33
ATOM     33  O   UNL     1      -0.689  -7.486  -2.176  0.00  0.00    -0.506 OA
ATOM     34  H   UNL     1      -0.888  -7.797  -3.070  0.00  0.00    +0.292 HD
ENDBRANCH  26  33
ENDBRANCH  23  25
BRANCH  22  35
ATOM     35  C   UNL     1       2.228  -6.591  -0.169  0.00  0.00    +0.109 C 
BRANCH  35  36
ATOM     36  C   UNL     1       1.108  -5.585  -0.442  0.00  0.00    +0.019 C 
BRANCH  36  37
ATOM     37  C   UNL     1       0.563  -5.057   0.887  0.00  0.00    +0.002 C 
BRANCH  37  38
ATOM     38  C   UNL     1      -0.557  -4.051   0.614  0.00  0.00    -0.000 C 
BRANCH  38  40
ATOM     39  C   UNL     1      -2.223  -2.516   1.670  0.00  0.00    +0.004 C 
ATOM     40  C   UNL     1      -1.103  -3.522   1.942  0.00  0.00    -0.003 C 
ENDBRANCH  38  40
ENDBRANCH  37  38
ENDBRANCH  36  37
ENDBRANCH  35  36
ENDBRANCH  22  35
ENDBRANCH   1  22
TORSDOF 15
