REMARK  Name = ZINC19946552
REMARK  11 active torsions:
REMARK  status: ('A' for Active; 'I' for Inactive)
REMARK    1  A    between atoms: C_1  and  C_2
REMARK    2  A    between atoms: C_5  and  C_7
REMARK    3  A    between atoms: C_9  and  C_31
REMARK    4  A    between atoms: C_10  and  S_26
REMARK    5  A    between atoms: C_12  and  C_25
REMARK    6  A    between atoms: C_13  and  C_14
REMARK    7  A    between atoms: N_16  and  C_17
REMARK    8  A    between atoms: C_22  and  O_23
REMARK    9  A    between atoms: O_23  and  C_24
REMARK   10  A    between atoms: S_26  and  C_27
REMARK   11  A    between atoms: C_27  and  C_28
REMARK                            x       y       z     vdW  Elec       q    Type
REMARK                         _______ _______ _______ _____ _____    ______ ____
ROOT
ATOM      1  C   UNL     1      -3.176   0.831   5.481  0.00  0.00    +0.134 C 
ATOM      2  C   UNL     1      -3.415   0.268   6.853  0.00  0.00    +0.072 C 
ATOM      3  C   UNL     1      -3.989   1.016   7.833  0.00  0.00    +0.080 C 
ATOM      4  N   UNL     1      -4.360   2.320   7.590  0.00  0.00    -0.312 N 
ATOM      5  C   UNL     1      -3.844   2.991   6.515  0.00  0.00    +0.015 C 
ATOM      6  C   UNL     1      -3.276   2.330   5.494  0.00  0.00    +0.047 C 
ATOM      7  C   UNL     1      -3.920   4.496   6.473  0.00  0.00    +0.061 C 
ATOM      8  H   UNL     1      -5.072   2.823   8.260  0.00  0.00    +0.152 HD
ENDROOT
BRANCH   1  13
ATOM      9  C   UNL     1       1.845   0.434   5.211  0.00  0.00    +0.086 C 
ATOM     10  C   UNL     1       0.382   0.257   4.895  0.00  0.00    +0.102 A 
ATOM     11  C   UNL     1      -0.121  -0.473   3.884  0.00  0.00    +0.044 A 
ATOM     12  C   UNL     1      -1.529  -0.366   3.963  0.00  0.00    +0.046 A 
ATOM     13  C   UNL     1      -1.801   0.430   5.012  0.00  0.00    +0.118 A 
ATOM     14  O   UNL     1      -0.640   0.802   5.575  0.00  0.00    -0.464 OA
ENDBRANCH   1  13
BRANCH   6  15
ATOM     15  C   UNL     1      -2.751   3.065   4.403  0.00  0.00    +0.247 C 
ATOM     16  O   UNL     1      -3.393   3.168   3.374  0.00  0.00    -0.270 OA
ATOM     17  N   UNL     1      -1.541   3.650   4.505  0.00  0.00    -0.279 N 
ATOM     18  H   UNL     1      -0.945   3.526   5.421  0.00  0.00    +0.155 HD
BRANCH  17  19
ATOM     19  C   UNL     1      -1.043   4.417   3.444  0.00  0.00    +0.076 A 
ATOM     20  C   UNL     1      -1.473   4.173   2.148  0.00  0.00    +0.027 A 
ATOM     21  C   UNL     1      -0.976   4.928   1.102  0.00  0.00    +0.002 A 
ATOM     22  C   UNL     1      -0.054   5.930   1.345  0.00  0.00    +0.004 A 
ATOM     23  C   UNL     1       0.375   6.181   2.635  0.00  0.00    +0.047 A 
ATOM     24  C   UNL     1      -0.118   5.430   3.688  0.00  0.00    +0.141 A 
BRANCH  24  25
ATOM     25  O   UNL     1       0.303   5.676   4.957  0.00  0.00    -0.493 OA
ATOM     26  C   UNL     1       1.257   6.726   5.132  0.00  0.00    +0.277 C 
ENDBRANCH  24  25
ENDBRANCH  17  19
ENDBRANCH   6  15
BRANCH   2  27
ATOM     27  C   UNL     1      -3.030  -1.082   7.134  0.00  0.00    +0.098 C 
ATOM     28  N   UNL     1      -2.724  -2.153   7.358  0.00  0.00    -0.191 NA
ENDBRANCH   2  27
BRANCH   3  29
ATOM     29  S   UNL     1      -4.261   0.312   9.425  0.00  0.00    -0.100 S 
BRANCH  29  30
ATOM     30  C   UNL     1      -5.019   1.723  10.267  0.00  0.00    +0.171 C 
BRANCH  30  31
ATOM     31  C   UNL     1      -5.347   1.343  11.688  0.00  0.00    +0.221 C 
ATOM     32  O   UNL     1      -5.093   0.228  12.092  0.00  0.00    -0.275 OA
ATOM     33  N   UNL     1      -5.923   2.242  12.511  0.00  0.00    -0.329 N 
ATOM     34  H   UNL     1      -6.162   1.964  13.548  0.00  0.00    +0.145 HD
ATOM     35  H   UNL     1      -6.153   3.253  12.145  0.00  0.00    +0.145 HD
ENDBRANCH  30  31
ENDBRANCH  29  30
ENDBRANCH   3  29
TORSDOF 8
