REMARK  Name = ZINC22402768
REMARK  11 active torsions:
REMARK  status: ('A' for Active; 'I' for Inactive)
REMARK    1  A    between atoms: C_1  and  C_2
REMARK    2  A    between atoms: C_7  and  C_8
REMARK    3  A    between atoms: N_10  and  C_11
REMARK    4  A    between atoms: C_11  and  C_13
REMARK    5  A    between atoms: C_11  and  C_16
REMARK    6  A    between atoms: C_13  and  C_14
REMARK    7  A    between atoms: C_13  and  C_15
REMARK    8  A    between atoms: N_18  and  C_19
REMARK    9  A    between atoms: C_19  and  C_20
REMARK   10  A    between atoms: C_20  and  C_22
REMARK   11  A    between atoms: C_20  and  N_27
REMARK                            x       y       z     vdW  Elec       q    Type
REMARK                         _______ _______ _______ _____ _____    ______ ____
ROOT
ATOM      1  C   UNL     1      -3.575  -0.064   1.977  0.00  0.00    +0.234 C 
ATOM      2  O   UNL     1      -4.382  -0.745   1.381  0.00  0.00    -0.274 OA
ATOM      3  N   UNL     1      -2.284  -0.054   1.589  0.00  0.00    -0.315 N 
ATOM      4  H   UNL     1      -1.552   0.564   2.130  0.00  0.00    +0.149 HD
ENDROOT
BRANCH   1   5
ATOM      5  C   UNL     1      -4.015   0.772   3.152  0.00  0.00    +0.162 C 
BRANCH   5   8
ATOM      6  C   UNL     1      -5.979   0.796   4.593  0.00  0.00    +0.245 C 
ATOM      7  O   UNL     1      -5.263   1.135   5.514  0.00  0.00    -0.270 OA
ATOM      8  N   UNL     1      -5.452   0.589   3.370  0.00  0.00    -0.300 N 
ATOM      9  H   UNL     1      -6.100   0.282   2.536  0.00  0.00    +0.150 HD
BRANCH   6  16
ATOM     10  C   UNL     1      -7.057   0.996   7.270  0.00  0.00    +0.044 C 
ATOM     11  C   UNL     1      -7.961   0.705   6.100  0.00  0.00    -0.038 A 
ATOM     12  C   UNL     1      -9.315   0.532   6.298  0.00  0.00    +0.004 A 
ATOM     13  C   UNL     1     -10.146   0.267   5.225  0.00  0.00    +0.000 A 
ATOM     14  C   UNL     1      -9.626   0.172   3.946  0.00  0.00    +0.001 A 
ATOM     15  C   UNL     1      -8.275   0.347   3.733  0.00  0.00    +0.013 A 
ATOM     16  C   UNL     1      -7.430   0.611   4.813  0.00  0.00    +0.040 A 
ENDBRANCH   6  16
ENDBRANCH   5   8
BRANCH   5  17
ATOM     17  C   UNL     1      -3.726   2.247   2.865  0.00  0.00    +0.012 C 
ATOM     18  C   UNL     1      -4.586   2.715   1.690  0.00  0.00    +0.009 C 
ATOM     19  C   UNL     1      -4.057   3.081   4.104  0.00  0.00    +0.009 C 
ENDBRANCH   5  17
ENDBRANCH   1   5
BRANCH   3  20
ATOM     20  C   UNL     1      -1.856  -0.866   0.448  0.00  0.00    +0.096 C 
BRANCH  20  21
ATOM     21  C   UNL     1      -0.355  -0.675   0.220  0.00  0.00    +0.016 C 
BRANCH  21  22
ATOM     22  N   UNL     1      -0.062   0.756   0.063  0.00  0.00    +0.387 N 
ATOM     23  C   UNL     1      -0.842   1.335  -1.038  0.00  0.00    -0.078 C 
ATOM     24  C   UNL     1      -0.623   2.849  -1.078  0.00  0.00    -0.019 C 
ATOM     25  C   UNL     1       0.868   3.139  -1.276  0.00  0.00    -0.004 C 
ATOM     26  C   UNL     1       1.662   2.484  -0.143  0.00  0.00    -0.019 C 
ATOM     27  C   UNL     1       1.376   0.980  -0.130  0.00  0.00    -0.078 C 
ATOM     28  H   UNL     1      -0.360   1.267   0.991  0.00  0.00    -0.081 HD
ENDBRANCH  21  22
BRANCH  21  29
ATOM     29  C   UNL     1       0.062  -1.413  -1.027  0.00  0.00    +0.093 A 
ATOM     30  C   UNL     1       0.800  -2.536  -1.066  0.00  0.00    +0.043 A 
ATOM     31  C   UNL     1       0.949  -2.881  -2.429  0.00  0.00    +0.041 A 
ATOM     32  C   UNL     1       0.298  -1.943  -3.142  0.00  0.00    +0.195 A 
ATOM     33  O   UNL     1      -0.237  -1.056  -2.287  0.00  0.00    -0.469 OA
ENDBRANCH  21  29
ENDBRANCH  20  21
ENDBRANCH   3  20
TORSDOF 8
