REMARK  Name = ZINC66836738
REMARK  9 active torsions:
REMARK  status: ('A' for Active; 'I' for Inactive)
REMARK    1  A    between atoms: C_1  and  N_2
REMARK    2  A    between atoms: N_2  and  C_3
REMARK    3  A    between atoms: N_2  and  C_16
REMARK    4  A    between atoms: C_3  and  C_4
REMARK    5  A    between atoms: C_4  and  C_5
REMARK    6  A    between atoms: N_7  and  C_8
REMARK    7  A    between atoms: C_9  and  C_13
REMARK    8  A    between atoms: C_16  and  C_17
REMARK    9  A    between atoms: N_19  and  C_20
REMARK                            x       y       z     vdW  Elec       q    Type
REMARK                         _______ _______ _______ _____ _____    ______ ____
ROOT
ATOM      1  C   UNL     1      -0.025   1.462   0.003  0.00  0.00    -0.096 C 
ATOM      2  N   UNL     1       0.003  -0.007   0.003  0.00  0.00    +0.384 N 
ATOM      3  H   UNL     1       0.493  -0.334   0.822  0.00  0.00    -0.082 HD
ENDROOT
BRANCH   2   4
ATOM      4  C   UNL     1      -1.373  -0.522   0.018  0.00  0.00    -0.069 C 
BRANCH   4   5
ATOM      5  C   UNL     1      -2.051  -0.130   1.332  0.00  0.00    +0.077 C 
BRANCH   5   6
ATOM      6  C   UNL     1      -3.462  -0.658   1.347  0.00  0.00    +0.216 C 
ATOM      7  O   UNL     1      -3.884  -1.287   0.400  0.00  0.00    -0.276 OA
ATOM      8  N   UNL     1      -4.255  -0.432   2.414  0.00  0.00    -0.279 N 
ATOM      9  H   UNL     1      -3.917   0.071   3.171  0.00  0.00    +0.155 HD
BRANCH   8  10
ATOM     10  C   UNL     1      -5.553  -0.918   2.428  0.00  0.00    +0.084 A 
ATOM     11  C   UNL     1      -6.505  -0.780   3.427  0.00  0.00    +0.065 A 
ATOM     12  C   UNL     1      -7.792  -1.391   3.183  0.00  0.00    +0.022 A 
ATOM     13  C   UNL     1      -7.924  -2.030   2.006  0.00  0.00    +0.048 A 
ATOM     14  S   UNL     1      -6.336  -1.804   1.237  0.00  0.00    -0.081 S 
BRANCH  11  15
ATOM     15  C   UNL     1      -6.220  -0.051   4.667  0.00  0.00    +0.244 C 
ATOM     16  O   UNL     1      -5.125   0.452   4.840  0.00  0.00    -0.270 OA
ATOM     17  N   UNL     1      -7.171   0.063   5.615  0.00  0.00    -0.325 N 
ATOM     18  H   UNL     1      -8.044  -0.337   5.477  0.00  0.00    +0.145 HD
ATOM     19  H   UNL     1      -6.983   0.545   6.436  0.00  0.00    +0.145 HD
ENDBRANCH  11  15
ENDBRANCH   8  10
ENDBRANCH   5   6
ENDBRANCH   4   5
ENDBRANCH   2   4
BRANCH   2  20
ATOM     20  C   UNL     1       0.691  -0.484  -1.204  0.00  0.00    +0.018 C 
BRANCH  20  21
ATOM     21  C   UNL     1       2.136  -0.058  -1.159  0.00  0.00    +0.201 C 
ATOM     22  O   UNL     1       2.551   0.580  -0.214  0.00  0.00    -0.278 OA
ATOM     23  N   UNL     1       2.967  -0.387  -2.168  0.00  0.00    -0.287 N 
ATOM     24  H   UNL     1       2.653  -0.953  -2.890  0.00  0.00    +0.155 HD
BRANCH  23  25
ATOM     25  C   UNL     1       4.283   0.090  -2.174  0.00  0.00    +0.039 A 
ATOM     26  C   UNL     1       4.896   0.421  -3.374  0.00  0.00    +0.061 A 
ATOM     27  C   UNL     1       6.197   0.892  -3.378  0.00  0.00    +0.128 A 
ATOM     28  C   UNL     1       6.887   1.032  -2.186  0.00  0.00    +0.076 A 
ATOM     29  C   UNL     1       6.277   0.702  -0.988  0.00  0.00    +0.128 A 
ATOM     30  C   UNL     1       4.974   0.237  -0.979  0.00  0.00    +0.061 A 
ATOM     31  F   UNL     1       6.953   0.839   0.174  0.00  0.00    -0.205 F 
ATOM     32  F   UNL     1       6.795   1.215  -4.546  0.00  0.00    -0.205 F 
ENDBRANCH  23  25
ENDBRANCH  20  21
ENDBRANCH   2  20
TORSDOF 8
