REMARK  Name = ZINC09242877
REMARK  7 active torsions:
REMARK  status: ('A' for Active; 'I' for Inactive)
REMARK    1  A    between atoms: C_1  and  C_2
REMARK    2  A    between atoms: C_2  and  O_3
REMARK    3  A    between atoms: O_3  and  C_4
REMARK    4  A    between atoms: C_9  and  C_10
REMARK    5  A    between atoms: C_10  and  C_12
REMARK    6  A    between atoms: C_33  and  C_40
REMARK    7  A    between atoms: C_34  and  C_39
REMARK                            x       y       z     vdW  Elec       q    Type
REMARK                         _______ _______ _______ _____ _____    ______ ____
ROOT
ATOM      1  C   UNL     1       4.555   4.335  -0.757  0.00  0.00    +0.066 C 
ATOM      2  C   UNL     1       4.355   4.527   0.759  0.00  0.00    -0.055 C 
ATOM      3  C   UNL     1       5.354   3.622   1.505  0.00  0.00    -0.016 C 
ATOM      4  C   UNL     1       4.489   2.544   2.198  0.00  0.00    -0.020 C 
ATOM      5  C   UNL     1       3.178   2.567   1.371  0.00  0.00    -0.076 C 
ATOM      6  C   UNL     1       2.190   4.213  -0.153  0.00  0.00    +0.060 C 
ATOM      7  C   UNL     1       3.149   4.132  -1.334  0.00  0.00    +0.085 C 
ATOM      8  C   UNL     1       2.833   5.163  -2.382  0.00  0.00    -0.011 A 
ATOM      9  C   UNL     1       2.765   6.538  -2.367  0.00  0.00    +0.006 A 
ATOM     10  C   UNL     1       2.440   7.228  -3.521  0.00  0.00    +0.000 A 
ATOM     11  C   UNL     1       2.182   6.533  -4.689  0.00  0.00    +0.002 A 
ATOM     12  C   UNL     1       2.249   5.155  -4.709  0.00  0.00    +0.023 A 
ATOM     13  C   UNL     1       2.577   4.453  -3.551  0.00  0.00    +0.038 A 
ATOM     14  N   UNL     1       2.707   3.082  -3.322  0.00  0.00    -0.285 N 
ATOM     15  C   UNL     1       3.041   2.809  -2.047  0.00  0.00    +0.228 C 
ATOM     16  O   UNL     1       3.220   1.711  -1.565  0.00  0.00    -0.275 OA
ATOM     17  C   UNL     1       1.099   3.181  -0.258  0.00  0.00    -0.026 A 
ATOM     18  C   UNL     1       1.104   1.806  -0.324  0.00  0.00    +0.005 A 
ATOM     19  C   UNL     1      -0.091   1.114  -0.422  0.00  0.00    +0.004 A 
ATOM     20  C   UNL     1      -1.287   1.808  -0.458  0.00  0.00    -0.046 A 
ATOM     21  C   UNL     1      -1.296   3.185  -0.385  0.00  0.00    -0.026 A 
ATOM     22  C   UNL     1      -0.098   3.889  -0.286  0.00  0.00    +0.039 A 
ATOM     23  N   UNL     1       0.151   5.261  -0.205  0.00  0.00    -0.286 N 
ATOM     24  C   UNL     1       1.466   5.535  -0.125  0.00  0.00    +0.212 C 
ATOM     25  O   UNL     1       1.971   6.635  -0.046  0.00  0.00    -0.277 OA
ATOM     26  C   UNL     1      -2.605   3.931  -0.416  0.00  0.00    +0.046 C 
ATOM     27  C   UNL     1      -2.587   1.055  -0.571  0.00  0.00    +0.044 C 
ATOM     28  H   UNL     1       2.571   2.404  -4.003  0.00  0.00    +0.155 HD
ATOM     29  H   UNL     1      -0.544   5.938  -0.206  0.00  0.00    +0.155 HD
ATOM     30  N   UNL     1       3.036   4.014   1.052  0.00  0.00    +0.395 N 
ATOM     31  H   UNL     1       2.625   4.509   1.852  0.00  0.00    -0.079 HD
ENDROOT
BRANCH   1  32
ATOM     32  C   UNL     1       5.407   3.120  -1.021  0.00  0.00    +0.169 C 
ATOM     33  O   UNL     1       5.172   2.078  -0.445  0.00  0.00    -0.292 OA
BRANCH  32  39
ATOM     34  C   UNL     1       7.317   2.067  -2.223  0.00  0.00    +0.131 A 
ATOM     35  C   UNL     1       8.366   2.152  -3.126  0.00  0.00    +0.046 A 
ATOM     36  C   UNL     1       8.624   3.342  -3.777  0.00  0.00    +0.004 A 
ATOM     37  C   UNL     1       7.841   4.460  -3.535  0.00  0.00    +0.001 A 
ATOM     38  C   UNL     1       6.792   4.395  -2.646  0.00  0.00    +0.015 A 
ATOM     39  C   UNL     1       6.520   3.196  -1.974  0.00  0.00    +0.059 A 
BRANCH  34  40
ATOM     40  O   UNL     1       7.062   0.899  -1.584  0.00  0.00    -0.492 OA
BRANCH  40  42
ATOM     41  C   UNL     1       7.475  -1.428  -1.077  0.00  0.00    +0.048 C 
ATOM     42  C   UNL     1       7.914  -0.207  -1.888  0.00  0.00    +0.226 C 
ENDBRANCH  40  42
ENDBRANCH  34  40
ENDBRANCH  32  39
ENDBRANCH   1  32
TORSDOF 4
