REMARK  Name = ZINC44468417
REMARK  5 active torsions:
REMARK  status: ('A' for Active; 'I' for Inactive)
REMARK    1  A    between atoms: C_15  and  C_17
REMARK    2  A    between atoms: C_17  and  CA_18
REMARK    3  A    between atoms: CA_18  and  C_20
REMARK    4  A    between atoms: CA_18  and  N_22
REMARK    5  A    between atoms: C_20  and  O_21
REMARK                            x       y       z     vdW  Elec       q    Type
REMARK                         _______ _______ _______ _____ _____    ______ ____
ROOT
ATOM      1  C   UNL     1      -0.375   1.413  -0.142  0.00  0.00    +0.033 C 
ATOM      2  C   UNL     1       0.954   2.092  -0.040  0.00  0.00    -0.031 C 
ATOM      3  C   UNL     1       2.044   1.474   0.273  0.00  0.00    -0.028 C 
ATOM      4  C   UNL     1       2.143   0.010   0.531  0.00  0.00    +0.058 C 
ATOM      5  C   UNL     1       0.788  -0.640   0.827  0.00  0.00    +0.126 C 
ATOM      6  C   UNL     1      -0.282  -0.083  -0.143  0.00  0.00    +0.028 C 
ATOM      7  C   UNL     1       0.194  -0.721  -1.439  0.00  0.00    +0.031 C 
ATOM      8  C   UNL     1      -0.689  -0.601  -2.632  0.00  0.00    +0.033 C 
ATOM      9  C   UNL     1      -1.730  -1.671  -2.728  0.00  0.00    -0.031 C 
ATOM     10  C   UNL     1      -1.739  -2.717  -1.971  0.00  0.00    -0.028 C 
ATOM     11  C   UNL     1      -0.765  -2.986  -0.878  0.00  0.00    +0.062 C 
ATOM     12  C   UNL     1       0.502  -2.158  -0.984  0.00  0.00    +0.075 C 
ATOM     13  O   UNL     1       0.938  -2.021   0.399  0.00  0.00    -0.369 OA
ENDROOT
BRANCH  12  14
ATOM     14  C   UNL     1       1.551  -2.830  -1.872  0.00  0.00    +0.021 C 
BRANCH  14  15
ATOM     15  CA  UNL     1       1.784  -4.263  -1.390  0.00  0.00    -0.047 C 
BRANCH  15  16
ATOM     16  N   UNL     1       2.392  -4.238  -0.053  0.00  0.00    +0.382 N 
ATOM     17  H1  UNL     1       3.274  -3.749  -0.094  0.00  0.00    -0.090 HD
ATOM     18  H2  UNL     1       1.774  -3.764   0.588  0.00  0.00    -0.090 HD
ATOM     19  H3  UNL     1       2.546  -5.183   0.265  0.00  0.00    -0.090 HD
ENDBRANCH  15  16
BRANCH  15  20
ATOM     20  C   UNL     1       2.722  -4.982  -2.363  0.00  0.00    +0.140 C 
BRANCH  20  21
ATOM     21  O   UNL     1       2.847  -6.353  -1.978  0.00  0.00    -0.397 OA
ATOM     22  H   UNL     1       3.428  -6.870  -2.552  0.00  0.00    +0.209 HD
ENDBRANCH  20  21
ENDBRANCH  15  20
ENDBRANCH  14  15
ENDBRANCH  12  14
TORSDOF 5
