REMARK  Name = ZINC03205106
REMARK  10 active torsions:
REMARK  status: ('A' for Active; 'I' for Inactive)
REMARK    1  A    between atoms: C_4  and  C_7
REMARK    2  A    between atoms: C_7  and  C_8
REMARK    3  A    between atoms: C_7  and  O_14
REMARK    4  A    between atoms: O_14  and  C_15
REMARK    5  A    between atoms: C_15  and  C_16
REMARK    6  A    between atoms: C_16  and  C_18
REMARK    7  A    between atoms: C_16  and  O_31
REMARK    8  A    between atoms: C_18  and  N_61
REMARK    9  A    between atoms: N_21  and  C_24
REMARK   10  A    between atoms: C_29  and  O_30
REMARK                            x       y       z     vdW  Elec       q    Type
REMARK                         _______ _______ _______ _____ _____    ______ ____
ROOT
ATOM      1  C   UNL     1      -2.091   3.600   2.309  0.00  0.00    +0.124 C 
ENDROOT
BRANCH   1   2
ATOM      2  O   UNL     1      -3.147   2.679   2.590  0.00  0.00    -0.391 OA
ATOM      3  H   UNL     1      -3.834   2.648   1.910  0.00  0.00    +0.210 HD
ENDBRANCH   1   2
BRANCH   1   4
ATOM      4  C   UNL     1      -1.410   3.208   0.996  0.00  0.00    +0.190 C 
BRANCH   4   5
ATOM      5  O   UNL     1      -0.773   1.939   1.151  0.00  0.00    -0.365 OA
BRANCH   5   6
ATOM      6  C   UNL     1      -0.102   1.478  -0.024  0.00  0.00    +0.178 C 
BRANCH   6  10
ATOM      7  C   UNL     1      -0.148  -2.793  -0.108  0.00  0.00    +0.000 A 
ATOM      8  C   UNL     1      -0.242  -2.077  -1.287  0.00  0.00    +0.000 A 
ATOM      9  C   UNL     1      -0.228  -0.695  -1.260  0.00  0.00    +0.006 A 
ATOM     10  C   UNL     1      -0.118  -0.029  -0.054  0.00  0.00    -0.015 A 
ATOM     11  C   UNL     1      -0.018  -0.744   1.125  0.00  0.00    +0.006 A 
ATOM     12  C   UNL     1      -0.038  -2.126   1.098  0.00  0.00    +0.000 A 
ENDBRANCH   6  10
BRANCH   6  13
ATOM     13  C   UNL     1       1.324   1.965  -0.012  0.00  0.00    -0.015 A 
ATOM     14  C   UNL     1       2.041   1.974   1.169  0.00  0.00    +0.006 A 
ATOM     15  C   UNL     1       3.351   2.416   1.179  0.00  0.00    +0.000 A 
ATOM     16  C   UNL     1       3.940   2.858   0.009  0.00  0.00    +0.000 A 
ATOM     17  C   UNL     1       3.221   2.855  -1.171  0.00  0.00    +0.000 A 
ATOM     18  C   UNL     1       1.913   2.408  -1.182  0.00  0.00    +0.006 A 
ENDBRANCH   6  13
ENDBRANCH   5   6
ENDBRANCH   4   5
ENDBRANCH   1   4
BRANCH   1  19
ATOM     19  C   UNL     1      -2.666   5.012   2.183  0.00  0.00    -0.045 C 
BRANCH  19  25
ATOM     20  C   UNL     1      -4.252   6.505   3.242  0.00  0.00    -0.060 C 
ATOM     21  C   UNL     1      -4.965   6.816   4.560  0.00  0.00    +0.086 C 
ATOM     22  N   UNL     1      -3.968   7.148   5.588  0.00  0.00    -0.331 N 
ATOM     23  C   UNL     1      -3.033   6.033   5.790  0.00  0.00    +0.086 C 
ATOM     24  C   UNL     1      -2.320   5.723   4.472  0.00  0.00    -0.060 C 
ATOM     25  N   UNL     1      -3.331   5.369   3.455  0.00  0.00    +0.383 N 
ATOM     26  H   UNL     1      -3.870   4.560   3.787  0.00  0.00    -0.082 HD
BRANCH  22  27
ATOM     27  C   UNL     1      -4.588   7.508   6.790  0.00  0.00    +0.072 A 
ATOM     28  C   UNL     1      -5.952   7.316   6.954  0.00  0.00    +0.027 A 
ATOM     29  C   UNL     1      -6.560   7.668   8.144  0.00  0.00    +0.002 A 
ATOM     30  C   UNL     1      -5.815   8.221   9.169  0.00  0.00    +0.004 A 
ATOM     31  C   UNL     1      -4.455   8.420   9.010  0.00  0.00    +0.047 A 
ATOM     32  C   UNL     1      -3.837   8.066   7.823  0.00  0.00    +0.138 A 
BRANCH  32  33
ATOM     33  O   UNL     1      -2.501   8.262   7.665  0.00  0.00    -0.505 OA
ATOM     34  H   UNL     1      -2.274   9.095   7.227  0.00  0.00    +0.292 HD
ENDBRANCH  32  33
ENDBRANCH  22  27
ENDBRANCH  19  25
ENDBRANCH   1  19
TORSDOF 10
