REMARK  Name = ZINC63020617
REMARK  10 active torsions:
REMARK  status: ('A' for Active; 'I' for Inactive)
REMARK    1  A    between atoms: C_1  and  C_2
REMARK    2  A    between atoms: C_2  and  O_3
REMARK    3  A    between atoms: O_3  and  C_4
REMARK    4  A    between atoms: C_9  and  S_10
REMARK    5  A    between atoms: S_10  and  N_13
REMARK    6  A    between atoms: N_13  and  C_14
REMARK    7  A    between atoms: C_14  and  C_15
REMARK    8  A    between atoms: C_14  and  C_16
REMARK    9  A    between atoms: C_14  and  C_17
REMARK   10  A    between atoms: C_17  and  N_18
REMARK                            x       y       z     vdW  Elec       q    Type
REMARK                         _______ _______ _______ _____ _____    ______ ____
ROOT
ATOM      1  S   UNL     1      -4.237  -1.229   0.274  0.00  0.00    +0.062 S 
ATOM      2  O   UNL     1      -4.391  -0.264  -0.758  0.00  0.00    -0.153 OA
ATOM      3  O   UNL     1      -5.232  -2.203   0.560  0.00  0.00    -0.153 OA
ENDROOT
BRANCH   1   9
ATOM      4  C   UNL     1      -1.588  -1.421  -0.371  0.00  0.00    +0.147 A 
ATOM      5  C   UNL     1      -0.420  -2.119  -0.643  0.00  0.00    +0.049 A 
ATOM      6  C   UNL     1      -0.422  -3.501  -0.627  0.00  0.00    +0.019 A 
ATOM      7  C   UNL     1      -1.588  -4.188  -0.340  0.00  0.00    +0.020 A 
ATOM      8  C   UNL     1      -2.754  -3.494  -0.070  0.00  0.00    +0.047 A 
ATOM      9  C   UNL     1      -2.754  -2.113  -0.079  0.00  0.00    +0.148 A 
ATOM     10 BR   UNL     1      -1.588  -6.079  -0.318  0.00  0.00    -0.050 Br
BRANCH   4  11
ATOM     11  O   UNL     1      -1.587  -0.062  -0.387  0.00  0.00    -0.490 OA
BRANCH  11  13
ATOM     12  C   UNL     1      -0.526   2.101  -0.568  0.00  0.00    +0.048 C 
ATOM     13  C   UNL     1      -0.328   0.584  -0.580  0.00  0.00    +0.226 C 
ENDBRANCH  11  13
ENDBRANCH   4  11
ENDBRANCH   1   9
BRANCH   1  14
ATOM     14  N   UNL     1      -3.983  -0.386   1.677  0.00  0.00    -0.186 NA
ATOM     15  H   UNL     1      -3.938   0.583   1.659  0.00  0.00    +0.149 HD
BRANCH  14  16
ATOM     16  C   UNL     1      -3.825  -1.103   2.944  0.00  0.00    +0.019 C 
ATOM     17  C   UNL     1      -5.132  -1.821   3.290  0.00  0.00    +0.027 C 
ATOM     18  C   UNL     1      -2.699  -2.130   2.813  0.00  0.00    +0.027 C 
BRANCH  16  19
ATOM     19  C   UNL     1      -3.481  -0.108   4.054  0.00  0.00    -0.063 C 
BRANCH  19  20
ATOM     20  N   UNL     1      -4.563   0.878   4.180  0.00  0.00    +0.379 N 
ATOM     21  H   UNL     1      -4.335   1.535   4.912  0.00  0.00    -0.090 HD
ATOM     22  H   UNL     1      -4.671   1.372   3.307  0.00  0.00    -0.090 HD
ATOM     23  H   UNL     1      -5.424   0.405   4.408  0.00  0.00    -0.090 HD
ENDBRANCH  19  20
ENDBRANCH  16  19
ENDBRANCH  14  16
ENDBRANCH   1  14
TORSDOF 7
