REMARK  Name = ZINC63486347
REMARK  11 active torsions:
REMARK  status: ('A' for Active; 'I' for Inactive)
REMARK    1  A    between atoms: C_1  and  C_2
REMARK    2  A    between atoms: C_3  and  O_17
REMARK    3  A    between atoms: O_17  and  C_18
REMARK    4  A    between atoms: C_18  and  C_19
REMARK    5  A    between atoms: N_21  and  C_22
REMARK    6  A    between atoms: C_22  and  C_24
REMARK    7  A    between atoms: C_22  and  C_34
REMARK    8  A    between atoms: C_24  and  C_25
REMARK    9  A    between atoms: N_36  and  C_37
REMARK   10  A    between atoms: C_37  and  C_38
REMARK   11  A    between atoms: C_37  and  C_39
REMARK                            x       y       z     vdW  Elec       q    Type
REMARK                         _______ _______ _______ _____ _____    ______ ____
ROOT
ATOM      1  C   UNL     1      -0.021   0.163  -4.764  0.00  0.00    +0.251 C 
ATOM      2  O   UNL     1      -0.036   1.363  -4.593  0.00  0.00    -0.272 OA
ATOM      3  N   UNL     1      -0.020  -0.341  -6.014  0.00  0.00    -0.301 N 
ATOM      4  H   UNL     1      -0.008  -1.301  -6.150  0.00  0.00    +0.150 HD
ENDROOT
BRANCH   1   5
ATOM      5  C   UNL     1      -0.004  -0.767  -3.578  0.00  0.00    +0.324 C 
BRANCH   5   6
ATOM      6  O   UNL     1      -0.009   0.000  -2.372  0.00  0.00    -0.482 OA
BRANCH   6   9
ATOM      7  C   UNL     1      -0.018   1.503   0.010  0.00  0.00    +0.051 C 
ATOM      8  C   UNL     1       0.002  -0.004   0.002  0.00  0.00    +0.034 A 
ATOM      9  C   UNL     1       0.006  -0.690  -1.202  0.00  0.00    +0.128 A 
ATOM     10  C   UNL     1       0.024  -2.080  -1.220  0.00  0.00    +0.047 A 
ATOM     11  C   UNL     1       0.034  -2.788  -0.038  0.00  0.00    +0.016 A 
ATOM     12  C   UNL     1       0.029  -2.108   1.177  0.00  0.00    +0.026 A 
ATOM     13  C   UNL     1       0.023  -0.703   1.198  0.00  0.00    +0.146 A 
ATOM     14  O   UNL     1       0.043  -0.035   2.379  0.00  0.00    -0.421 OA
ATOM     15  C   UNL     1      -0.480  -0.644   3.469  0.00  0.00    +0.345 A 
ATOM     16  O   UNL     1      -1.137  -0.025   4.283  0.00  0.00    -0.245 OA
ATOM     17  C   UNL     1      -0.225  -2.087   3.631  0.00  0.00    +0.067 A 
ATOM     18  C   UNL     1       0.028  -2.835   2.461  0.00  0.00    -0.000 A 
ATOM     19  C   UNL     1       0.278  -4.196   2.555  0.00  0.00    +0.009 A 
ATOM     20  C   UNL     1       0.257  -4.806   3.795  0.00  0.00    +0.001 A 
ATOM     21  C   UNL     1      -0.012  -4.073   4.941  0.00  0.00    +0.001 A 
ATOM     22  C   UNL     1      -0.238  -2.717   4.869  0.00  0.00    +0.015 A 
ENDBRANCH   6   9
ENDBRANCH   5   6
ENDBRANCH   1   5
BRANCH   3  23
ATOM     23  C   UNL     1      -0.037   0.562  -7.167  0.00  0.00    +0.163 C 
BRANCH  23  24
ATOM     24  C   UNL     1      -1.459   0.951  -7.480  0.00  0.00    +0.234 C 
ATOM     25  O   UNL     1      -2.369   0.516  -6.806  0.00  0.00    -0.274 OA
ATOM     26  N   UNL     1      -1.720   1.782  -8.509  0.00  0.00    -0.311 N 
ATOM     27  H   UNL     1      -0.993   2.130  -9.048  0.00  0.00    +0.149 HD
BRANCH  26  28
ATOM     28  C   UNL     1      -3.103   2.159  -8.813  0.00  0.00    +0.067 C 
ATOM     29  C   UNL     1      -3.115   3.506  -9.540  0.00  0.00    +0.027 C 
ATOM     30  C   UNL     1      -3.739   1.092  -9.705  0.00  0.00    +0.027 C 
ENDBRANCH  26  28
ENDBRANCH  23  24
BRANCH  23  31
ATOM     31  C   UNL     1       0.576  -0.144  -8.378  0.00  0.00    +0.065 C 
BRANCH  31  32
ATOM     32  C   UNL     1       2.033  -0.423  -8.111  0.00  0.00    -0.039 C 
ATOM     33  C   UNL     1       2.567  -1.570  -7.633  0.00  0.00    -0.001 A 
ATOM     34  C   UNL     1       1.974  -2.851  -7.231  0.00  0.00    +0.010 A 
ATOM     35  C   UNL     1       2.784  -3.836  -6.779  0.00  0.00    +0.001 A 
ATOM     36  C   UNL     1       4.172  -3.664  -6.685  0.00  0.00    +0.002 A 
ATOM     37  C   UNL     1       4.790  -2.516  -7.036  0.00  0.00    +0.026 A 
ATOM     38  C   UNL     1       4.035  -1.414  -7.524  0.00  0.00    +0.043 A 
ATOM     39  N   UNL     1       4.395  -0.217  -7.921  0.00  0.00    -0.380 N 
ATOM     40  C   UNL     1       3.195   0.520  -8.331  0.00  0.00    +0.144 C 
ATOM     41  H   UNL     1       5.303   0.123  -7.942  0.00  0.00    +0.160 HD
ENDBRANCH  31  32
ENDBRANCH  23  31
ENDBRANCH   3  23
TORSDOF 8
