REMARK  Name = ZINC08431556
REMARK  11 active torsions:
REMARK  status: ('A' for Active; 'I' for Inactive)
REMARK    1  A    between atoms: C_1  and  C_2
REMARK    2  A    between atoms: C_2  and  C_3
REMARK    3  A    between atoms: C_2  and  C_4
REMARK    4  A    between atoms: C_7  and  O_10
REMARK    5  A    between atoms: O_10  and  C_11
REMARK    6  A    between atoms: C_11  and  C_12
REMARK    7  A    between atoms: C_12  and  C_14
REMARK    8  A    between atoms: C_12  and  O_36
REMARK    9  A    between atoms: C_14  and  N_70
REMARK   10  A    between atoms: C_17  and  C_20
REMARK   11  A    between atoms: C_20  and  N_21
REMARK                            x       y       z     vdW  Elec       q    Type
REMARK                         _______ _______ _______ _____ _____    ______ ____
ROOT
ATOM      1  C   UNL     1      -5.797   5.848   7.469  0.00  0.00    -0.078 C 
ATOM      2  C   UNL     1      -6.454   6.038   8.838  0.00  0.00    -0.014 C 
ATOM      3  C   UNL     1      -6.508   7.532   9.169  0.00  0.00    +0.003 C 
ATOM      4  C   UNL     1      -5.089   8.105   9.139  0.00  0.00    -0.014 C 
ATOM      5  C   UNL     1      -4.471   7.855   7.761  0.00  0.00    -0.078 C 
ATOM      6  N   UNL     1      -4.426   6.398   7.514  0.00  0.00    +0.381 N 
ATOM      7  H   UNL     1      -3.911   5.946   8.279  0.00  0.00    -0.082 HD
ENDROOT
BRANCH   6   8
ATOM      8  C   UNL     1      -3.730   6.124   6.239  0.00  0.00    -0.044 C 
BRANCH   8   9
ATOM      9  C   UNL     1      -3.501   4.616   6.117  0.00  0.00    +0.135 C 
BRANCH   9  10
ATOM     10  O   UNL     1      -2.720   4.162   7.224  0.00  0.00    -0.390 OA
ATOM     11  H   UNL     1      -1.849   4.579   7.288  0.00  0.00    +0.210 HD
ENDBRANCH   9  10
BRANCH   9  12
ATOM     12  C   UNL     1      -2.761   4.317   4.813  0.00  0.00    +0.258 C 
BRANCH  12  13
ATOM     13  O   UNL     1      -2.649   2.902   4.642  0.00  0.00    -0.489 OA
BRANCH  13  17
ATOM     14  C   UNL     1      -0.718   1.572   1.248  0.00  0.00    -0.045 A 
ATOM     15  C   UNL     1      -0.855   2.929   1.477  0.00  0.00    +0.007 A 
ATOM     16  C   UNL     1      -1.506   3.377   2.610  0.00  0.00    +0.046 A 
ATOM     17  C   UNL     1      -2.013   2.464   3.524  0.00  0.00    +0.121 A 
ATOM     18  C   UNL     1      -1.869   1.103   3.295  0.00  0.00    +0.046 A 
ATOM     19  C   UNL     1      -1.222   0.660   2.157  0.00  0.00    +0.007 A 
BRANCH  14  21
ATOM     20  C   UNL     1       1.423   1.615  -0.003  0.00  0.00    +0.012 C 
ATOM     21  C   UNL     1      -0.013   1.086   0.008  0.00  0.00    +0.013 C 
ATOM     22  C   UNL     1      -0.753   1.593  -1.232  0.00  0.00    +0.012 C 
ENDBRANCH  14  21
ENDBRANCH  13  17
ENDBRANCH  12  13
ENDBRANCH   9  12
ENDBRANCH   8   9
ENDBRANCH   6   8
BRANCH   3  23
ATOM     23  C   UNL     1      -7.108   7.726  10.563  0.00  0.00    +0.120 C 
BRANCH  23  24
ATOM     24  N   UNL     1      -8.506   7.287  10.558  0.00  0.00    -0.234 N 
ATOM     25  C   UNL     1      -9.466   8.183  10.263  0.00  0.00    +0.254 C 
ATOM     26  O   UNL     1      -9.163   9.332  10.007  0.00  0.00    -0.270 OA
ATOM     27  C   UNL     1     -10.880   7.779  10.244  0.00  0.00    +0.046 A 
ATOM     28  C   UNL     1     -11.901   8.667   9.939  0.00  0.00    +0.014 A 
ATOM     29  C   UNL     1     -13.223   8.238   9.938  0.00  0.00    +0.001 A 
ATOM     30  C   UNL     1     -13.556   6.947  10.232  0.00  0.00    +0.008 A 
ATOM     31  C   UNL     1     -12.552   6.015  10.545  0.00  0.00    -0.016 A 
ATOM     32  C   UNL     1     -11.206   6.438  10.550  0.00  0.00    +0.006 A 
ATOM     33  C   UNL     1     -10.173   5.524  10.860  0.00  0.00    +0.046 A 
ATOM     34  C   UNL     1     -10.504   4.211  11.159  0.00  0.00    +0.014 A 
ATOM     35  C   UNL     1     -11.833   3.806  11.151  0.00  0.00    +0.001 A 
ATOM     36  C   UNL     1     -12.844   4.675  10.854  0.00  0.00    +0.008 A 
ATOM     37  C   UNL     1      -8.783   6.003  10.854  0.00  0.00    +0.254 C 
ATOM     38  O   UNL     1      -7.878   5.234  11.119  0.00  0.00    -0.270 OA
ENDBRANCH  23  24
ENDBRANCH   3  23
TORSDOF 9
