REMARK  Name = ZINC44886731
REMARK  6 active torsions:
REMARK  status: ('A' for Active; 'I' for Inactive)
REMARK    1  A    between atoms: C_1  and  C_2
REMARK    2  A    between atoms: C_3  and  N_21
REMARK    3  A    between atoms: C_5  and  S_9
REMARK    4  A    between atoms: S_9  and  N_12
REMARK    5  A    between atoms: N_12  and  C_13
REMARK    6  A    between atoms: C_13  and  C_20
REMARK                            x       y       z     vdW  Elec       q    Type
REMARK                         _______ _______ _______ _____ _____    ______ ____
ROOT
ATOM      1  S   UNL     1       0.042  -4.976   0.024  0.00  0.00    +0.059 S 
ATOM      2  O   UNL     1      -0.265  -5.787   1.150  0.00  0.00    -0.153 OA
ATOM      3  O   UNL     1      -0.539  -5.196  -1.254  0.00  0.00    -0.153 OA
ENDROOT
BRANCH   1   8
ATOM      4  C   UNL     1      -1.296   0.702   1.586  0.00  0.00    +0.047 C 
ATOM      5  C   UNL     1      -0.962  -0.714   1.194  0.00  0.00    -0.011 A 
ATOM      6  C   UNL     1      -0.776  -1.041  -0.143  0.00  0.00    +0.031 A 
ATOM      7  C   UNL     1      -0.469  -2.348  -0.499  0.00  0.00    +0.051 A 
ATOM      8  C   UNL     1      -0.348  -3.318   0.476  0.00  0.00    +0.108 A 
ATOM      9  C   UNL     1      -0.534  -2.991   1.806  0.00  0.00    +0.049 A 
ATOM     10  C   UNL     1      -0.834  -1.689   2.166  0.00  0.00    +0.047 A 
ATOM     11 CL   UNL     1      -1.058  -1.281   3.838  0.00  0.00    -0.083 Cl
BRANCH   6  12
ATOM     12  N   UNL     1      -0.899  -0.058  -1.127  0.00  0.00    -0.358 N 
ATOM     13  H   UNL     1      -1.115   0.855  -0.877  0.00  0.00    +0.142 HD
ATOM     14  H   UNL     1      -0.770  -0.287  -2.061  0.00  0.00    +0.142 HD
ENDBRANCH   6  12
ENDBRANCH   1   8
BRANCH   1  15
ATOM     15  N   UNL     1       1.683  -5.054  -0.183  0.00  0.00    -0.183 NA
ATOM     16  H   UNL     1       2.052  -5.271  -1.053  0.00  0.00    +0.149 HD
BRANCH  15  17
ATOM     17  C   UNL     1       2.576  -4.796   0.949  0.00  0.00    +0.058 C 
ATOM     18  C   UNL     1       3.987  -5.247   0.572  0.00  0.00    +0.047 C 
ATOM     19  C   UNL     1       4.771  -4.076  -0.083  0.00  0.00    +0.168 C 
ATOM     20  S   UNL     1       4.189  -2.683   0.981  0.00  0.00    -0.029 S 
ATOM     21  O   UNL     1       4.932  -2.678   2.192  0.00  0.00    -0.174 OA
ATOM     22  O   UNL     1       4.111  -1.499   0.199  0.00  0.00    -0.174 OA
ATOM     23  C   UNL     1       2.488  -3.302   1.317  0.00  0.00    +0.189 C 
ATOM     24  C   UNL     1       2.103  -5.625   2.145  0.00  0.00    +0.031 C 
ENDBRANCH  15  17
ENDBRANCH   1  15
TORSDOF 4
