REMARK  Name = ZINC31160903
REMARK  13 active torsions:
REMARK  status: ('A' for Active; 'I' for Inactive)
REMARK    1  A    between atoms: C_3  and  C_25
REMARK    2  A    between atoms: C_4  and  O_8
REMARK    3  A    between atoms: C_5  and  O_7
REMARK    4  A    between atoms: O_8  and  C_9
REMARK    5  A    between atoms: C_11  and  O_24
REMARK    6  A    between atoms: C_13  and  O_23
REMARK    7  A    between atoms: C_15  and  O_22
REMARK    8  A    between atoms: C_17  and  C_20
REMARK    9  A    between atoms: C_20  and  O_21
REMARK   10  A    between atoms: C_25  and  O_26
REMARK   11  A    between atoms: O_26  and  C_27
REMARK   12  A    between atoms: C_27  and  C_29
REMARK   13  A    between atoms: C_29  and  O_36
REMARK                            x       y       z     vdW  Elec       q    Type
REMARK                         _______ _______ _______ _____ _____    ______ ____
ROOT
ATOM      1  C   UNL     1       0.092   8.345   4.575  0.00  0.00    +0.004 A 
ATOM      2  C   UNL     1       0.270   7.146   3.911  0.00  0.00    +0.011 A 
ATOM      3  C   UNL     1       1.534   6.602   3.786  0.00  0.00    +0.035 A 
ATOM      4  C   UNL     1       2.627   7.256   4.332  0.00  0.00    +0.172 A 
ATOM      5  C   UNL     1       2.449   8.466   4.997  0.00  0.00    +0.159 A 
ATOM      6  C   UNL     1       1.179   9.005   5.118  0.00  0.00    +0.049 A 
ENDROOT
BRANCH   5   7
ATOM      7  O   UNL     1       3.519   9.114   5.530  0.00  0.00    -0.503 OA
ATOM      8  H   UNL     1       3.377  10.070   6.055  0.00  0.00    +0.292 HD
ENDBRANCH   5   7
BRANCH   4   9
ATOM      9  O   UNL     1       3.871   6.719   4.215  0.00  0.00    -0.457 OA
BRANCH   9  10
ATOM     10  C   UNL     1       4.633   7.093   3.066  0.00  0.00    +0.339 C 
ATOM     11  C   UNL     1       6.039   6.495   3.169  0.00  0.00    +0.214 C 
ATOM     12  C   UNL     1       6.830   6.851   1.907  0.00  0.00    +0.180 C 
ATOM     13  C   UNL     1       6.069   6.339   0.680  0.00  0.00    +0.177 C 
ATOM     14  C   UNL     1       4.663   6.943   0.673  0.00  0.00    +0.179 C 
ATOM     15  O   UNL     1       3.993   6.601   1.888  0.00  0.00    -0.331 OA
BRANCH  13  16
ATOM     16  O   UNL     1       6.762   6.728  -0.508  0.00  0.00    -0.386 OA
ATOM     17  H   UNL     1       6.363   6.449  -1.494  0.00  0.00    +0.210 HD
ENDBRANCH  13  16
BRANCH  12  18
ATOM     18  O   UNL     1       8.119   6.235   1.961  0.00  0.00    -0.386 OA
ATOM     19  H   UNL     1       8.832   6.378   1.136  0.00  0.00    +0.210 HD
ENDBRANCH  12  18
BRANCH  11  20
ATOM     20  O   UNL     1       5.946   5.075   3.292  0.00  0.00    -0.383 OA
ATOM     21  H   UNL     1       6.860   4.469   3.378  0.00  0.00    +0.210 HD
ENDBRANCH  11  20
BRANCH  14  22
ATOM     22  C   UNL     1       3.876   6.391  -0.517  0.00  0.00    +0.190 C 
BRANCH  22  23
ATOM     23  O   UNL     1       2.605   7.041  -0.591  0.00  0.00    -0.392 OA
ATOM     24  H   UNL     1       1.896   6.773  -1.388  0.00  0.00    +0.210 HD
ENDBRANCH  22  23
ENDBRANCH  14  22
ENDBRANCH   9  10
ENDBRANCH   4   9
BRANCH   3  25
ATOM     25  C   UNL     1       1.724   5.294   3.061  0.00  0.00    +0.271 C 
BRANCH  25  26
ATOM     26  O   UNL     1       0.438   4.811   2.591  0.00  0.00    -0.457 OA
BRANCH  26  27
ATOM     27  C   UNL     1       0.432   3.648   1.921  0.00  0.00    +0.351 C 
ATOM     28  O   UNL     1       1.468   3.054   1.733  0.00  0.00    -0.247 OA
BRANCH  27  29
ATOM     29  C   UNL     1      -0.865   3.083   1.402  0.00  0.00    +0.239 C 
ATOM     30  C   UNL     1      -1.179   3.690   0.063  0.00  0.00    +0.022 C 
ATOM     31  C   UNL     1      -1.125   3.047  -1.056  0.00  0.00    -0.027 C 
ATOM     32  C   UNL     1      -0.770   1.601  -1.219  0.00  0.00    +0.034 C 
ATOM     33  C   UNL     1      -0.013   1.086   0.008  0.00  0.00    +0.082 C 
ATOM     34  C   UNL     1      -0.740   1.583   1.243  0.00  0.00    +0.180 C 
ATOM     35  O   UNL     1      -1.198   0.820   2.058  0.00  0.00    -0.293 OA
BRANCH  29  36
ATOM     36  O   UNL     1      -1.918   3.381   2.321  0.00  0.00    -0.368 OA
ATOM     37  H   UNL     1      -2.944   3.046   2.109  0.00  0.00    +0.212 HD
ENDBRANCH  29  36
ENDBRANCH  27  29
ENDBRANCH  26  27
ENDBRANCH  25  26
ENDBRANCH   3  25
TORSDOF 13
