REMARK  Name = ZINC18207029
REMARK  10 active torsions:
REMARK  status: ('A' for Active; 'I' for Inactive)
REMARK    1  A    between atoms: C_1  and  C_2
REMARK    2  A    between atoms: C_2  and  O_3
REMARK    3  A    between atoms: O_3  and  C_4
REMARK    4  A    between atoms: C_6  and  C_20
REMARK    5  A    between atoms: C_9  and  O_10
REMARK    6  A    between atoms: O_10  and  C_11
REMARK    7  A    between atoms: C_11  and  C_12
REMARK    8  A    between atoms: C_20  and  N_21
REMARK    9  A    between atoms: N_21  and  C_22
REMARK   10  A    between atoms: C_31  and  O_34
REMARK                            x       y       z     vdW  Elec       q    Type
REMARK                         _______ _______ _______ _____ _____    ______ ____
ROOT
ATOM      1  C   UNL     1       0.777  -1.811  -1.336  0.00  0.00    +0.164 A 
ATOM      2  C   UNL     1       0.243  -2.669  -0.388  0.00  0.00    +0.051 A 
ATOM      3  C   UNL     1       0.352  -4.037  -0.554  0.00  0.00    -0.059 A 
ATOM      4  C   UNL     1       0.992  -4.553  -1.665  0.00  0.00    +0.025 A 
ATOM      5  C   UNL     1       1.527  -3.703  -2.616  0.00  0.00    +0.086 A 
ATOM      6  C   UNL     1       1.416  -2.329  -2.458  0.00  0.00    +0.181 A 
ATOM      7 CL   UNL     1       2.331  -4.354  -4.010  0.00  0.00    -0.080 Cl
ENDROOT
BRANCH   1   8
ATOM      8  O   UNL     1       0.671  -0.465  -1.174  0.00  0.00    -0.489 OA
BRANCH   8  10
ATOM      9  C   UNL     1      -0.019   1.526   0.010  0.00  0.00    +0.048 C 
ATOM     10  C   UNL     1       0.002  -0.004   0.002  0.00  0.00    +0.226 C 
ENDBRANCH   8  10
ENDBRANCH   1   8
BRANCH   6  11
ATOM     11  O   UNL     1       1.936  -1.491  -3.395  0.00  0.00    -0.482 OA
BRANCH  11  12
ATOM     12  C   UNL     1       3.292  -1.079  -3.215  0.00  0.00    +0.266 C 
BRANCH  12  13
ATOM     13  C   UNL     1       3.691  -0.161  -4.341  0.00  0.00    +0.008 A 
ATOM     14  C   UNL     1       2.779   0.158  -5.330  0.00  0.00    +0.008 A 
ATOM     15  C   UNL     1       3.145   1.000  -6.363  0.00  0.00    +0.000 A 
ATOM     16  C   UNL     1       4.423   1.526  -6.408  0.00  0.00    +0.001 A 
ATOM     17  C   UNL     1       5.336   1.208  -5.420  0.00  0.00    +0.020 A 
ATOM     18  C   UNL     1       4.968   0.369  -4.382  0.00  0.00    +0.047 A 
ATOM     19 CL   UNL     1       6.112  -0.025  -3.137  0.00  0.00    -0.083 Cl
ENDBRANCH  12  13
ENDBRANCH  11  12
ENDBRANCH   6  11
BRANCH   3  20
ATOM     20  C   UNL     1      -0.229  -4.968   0.479  0.00  0.00    -0.046 C 
BRANCH  20  21
ATOM     21  N   UNL     1      -1.621  -5.282   0.128  0.00  0.00    +0.386 N 
ATOM     22  H   UNL     1      -2.161  -4.431   0.101  0.00  0.00    -0.085 HD
ATOM     23  H   UNL     1      -1.647  -5.726  -0.778  0.00  0.00    -0.085 HD
BRANCH  21  24
ATOM     24  C   UNL     1      -2.187  -6.190   1.135  0.00  0.00    -0.065 C 
ATOM     25  C   UNL     1      -1.367  -7.481   1.176  0.00  0.00    -0.009 C 
ATOM     26  C   UNL     1      -1.957  -8.426   2.225  0.00  0.00    -0.009 C 
ATOM     27  C   UNL     1      -1.917  -7.753   3.598  0.00  0.00    +0.007 C 
ATOM     28  C   UNL     1      -2.737  -6.462   3.557  0.00  0.00    -0.009 C 
ATOM     29  C   UNL     1      -2.147  -5.516   2.508  0.00  0.00    -0.009 C 
ATOM     30  C   UNL     1      -4.186  -6.789   3.191  0.00  0.00    +0.038 C 
ATOM     31  C   UNL     1      -4.226  -7.462   1.818  0.00  0.00    +0.065 C 
ATOM     32  C   UNL     1      -3.406  -8.754   1.859  0.00  0.00    +0.038 C 
ATOM     33  C   UNL     1      -3.636  -6.517   0.769  0.00  0.00    +0.022 C 
BRANCH  31  34
ATOM     34  O   UNL     1      -5.579  -7.768   1.476  0.00  0.00    -0.389 OA
ATOM     35  H   UNL     1      -6.017  -8.364   2.099  0.00  0.00    +0.210 HD
ENDBRANCH  31  34
ENDBRANCH  21  24
ENDBRANCH  20  21
ENDBRANCH   3  20
TORSDOF 9
