REMARK  Name = ZINC50251680
REMARK  9 active torsions:
REMARK  status: ('A' for Active; 'I' for Inactive)
REMARK    1  A    between atoms: C_1  and  C_2
REMARK    2  A    between atoms: C_2  and  C_3
REMARK    3  A    between atoms: C_3  and  C_4
REMARK    4  A    between atoms: C_3  and  C_5
REMARK    5  A    between atoms: C_3  and  C_6
REMARK    6  A    between atoms: C_9  and  C_12
REMARK    7  A    between atoms: C_9  and  N_15
REMARK    8  A    between atoms: C_18  and  C_21
REMARK    9  A    between atoms: C_21  and  N_22
REMARK                            x       y       z     vdW  Elec       q    Type
REMARK                         _______ _______ _______ _____ _____    ______ ____
ROOT
ATOM      1  C   UNL     1       0.763  -2.041   1.233  0.00  0.00    -0.005 C 
ATOM      2  C   UNL     1       1.479  -2.534  -0.026  0.00  0.00    +0.003 C 
ATOM      3  C   UNL     1       1.500  -4.064  -0.034  0.00  0.00    -0.000 C 
ATOM      4  C   UNL     1       2.240  -4.571   1.205  0.00  0.00    +0.038 C 
ATOM      5  C   UNL     1       1.524  -4.077   2.464  0.00  0.00    -0.000 C 
ATOM      6  C   UNL     1       1.503  -2.548   2.473  0.00  0.00    +0.003 C 
ENDROOT
BRANCH   4   7
ATOM      7  N   UNL     1       2.260  -6.040   1.197  0.00  0.00    +0.391 N 
ATOM      8  C   UNL     1       3.024  -6.533   0.031  0.00  0.00    -0.077 C 
ATOM      9  C   UNL     1       3.766  -7.805   0.482  0.00  0.00    -0.019 C 
ATOM     10  C   UNL     1       3.399  -7.978   1.974  0.00  0.00    -0.047 C 
ATOM     11  C   UNL     1       2.975  -6.549   2.395  0.00  0.00    -0.076 C 
ATOM     12  H   UNL     1       1.318  -6.401   1.175  0.00  0.00    -0.080 HD
BRANCH  10  13
ATOM     13  C   UNL     1       4.613  -8.447   2.779  0.00  0.00    -0.085 C 
BRANCH  13  14
ATOM     14  N   UNL     1       4.987  -9.803   2.357  0.00  0.00    +0.378 N 
ATOM     15  H   UNL     1       5.787 -10.112   2.888  0.00  0.00    -0.090 HD
ATOM     16  H   UNL     1       4.214 -10.431   2.518  0.00  0.00    -0.090 HD
ATOM     17  H   UNL     1       5.216  -9.798   1.374  0.00  0.00    -0.090 HD
ENDBRANCH  13  14
ENDBRANCH  10  13
ENDBRANCH   4   7
BRANCH   1  18
ATOM     18  C   UNL     1       0.742  -0.511   1.242  0.00  0.00    -0.032 C 
ATOM     19  C   UNL     1       2.178   0.019   1.231  0.00  0.00    +0.011 C 
ATOM     20  C   UNL     1       0.026  -0.018   2.500  0.00  0.00    +0.011 C 
BRANCH  18  22
ATOM     21  C   UNL     1      -0.019   1.526   0.010  0.00  0.00    +0.004 C 
ATOM     22  C   UNL     1       0.002  -0.004   0.002  0.00  0.00    +0.003 C 
ENDBRANCH  18  22
ENDBRANCH   1  18
BRANCH   4  23
ATOM     23  C   UNL     1       3.654  -4.049   1.195  0.00  0.00    +0.346 C 
ATOM     24  O   UNL     1       3.860  -2.848   1.199  0.00  0.00    -0.248 OA
ATOM     25  O   UNL     1       4.591  -4.829   1.182  0.00  0.00    -0.248 OA
ENDBRANCH   4  23
TORSDOF 6
