REMARK  Name = ZINC19278135
REMARK  5 active torsions:
REMARK  status: ('A' for Active; 'I' for Inactive)
REMARK    1  A    between atoms: C_1  and  C_2
REMARK    2  A    between atoms: C_5  and  C_8
REMARK    3  A    between atoms: C_8  and  C_10
REMARK    4  A    between atoms: C_8  and  N_22
REMARK    5  A    between atoms: C_10  and  N_11
REMARK                            x       y       z     vdW  Elec       q    Type
REMARK                         _______ _______ _______ _____ _____    ______ ____
ROOT
ATOM      1  C   UNL     1      -0.175   1.052  -2.435  0.00  0.00    +0.106 C 
ENDROOT
BRANCH   1   2
ATOM      2  N   UNL     1       1.237   1.439  -2.477  0.00  0.00    -0.226 N 
ATOM      3  C   UNL     1       1.690   2.605  -2.985  0.00  0.00    +0.246 C 
ATOM      4  O   UNL     1       1.033   3.499  -3.475  0.00  0.00    -0.273 OA
ATOM      5  C   UNL     1       3.187   2.560  -2.810  0.00  0.00    +0.113 C 
ATOM      6  C   UNL     1       3.898   2.667  -4.166  0.00  0.00    +0.035 C 
ATOM      7  C   UNL     1       4.308   4.160  -4.257  0.00  0.00    +0.003 C 
ATOM      8  C   UNL     1       4.701   4.500  -2.797  0.00  0.00    +0.003 C 
ATOM      9  C   UNL     1       3.683   3.716  -1.938  0.00  0.00    +0.035 C 
ATOM     10  N   UNL     1       3.443   1.264  -2.179  0.00  0.00    -0.285 N 
ATOM     11  C   UNL     1       2.240   0.677  -2.022  0.00  0.00    +0.309 C 
ATOM     12  O   UNL     1       2.083  -0.421  -1.524  0.00  0.00    -0.252 OA
ATOM     13  H   UNL     1       4.474   0.965  -1.937  0.00  0.00    +0.151 HD
ENDBRANCH   1   2
BRANCH   1  14
ATOM     14  C   UNL     1      -0.795   1.527  -1.120  0.00  0.00    -0.026 C 
BRANCH  14  19
ATOM     15  C   UNL     1      -6.230  -0.403  -0.746  0.00  0.00    +0.044 C 
ATOM     16  C   UNL     1      -4.813   0.101  -0.843  0.00  0.00    -0.050 A 
ATOM     17  C   UNL     1      -4.567   1.403  -1.237  0.00  0.00    +0.003 A 
ATOM     18  C   UNL     1      -3.267   1.864  -1.326  0.00  0.00    +0.002 A 
ATOM     19  C   UNL     1      -2.213   1.024  -1.022  0.00  0.00    -0.060 A 
ATOM     20  C   UNL     1      -2.458  -0.280  -0.633  0.00  0.00    +0.002 A 
ATOM     21  C   UNL     1      -3.758  -0.740  -0.539  0.00  0.00    +0.003 A 
ENDBRANCH  14  19
BRANCH  14  22
ATOM     22  N   UNL     1      -0.012   1.005   0.008  0.00  0.00    +0.384 N 
ATOM     23  H   UNL     1       1.023   1.372  -0.064  0.00  0.00    -0.089 HD
ATOM     24  H   UNL     1      -0.013  -0.095  -0.023  0.00  0.00    -0.089 HD
ATOM     25  H   UNL     1      -0.457   1.346   0.954  0.00  0.00    -0.089 HD
ENDBRANCH  14  22
ENDBRANCH   1  14
TORSDOF 4
