REMARK  Name = ZINC41148372
REMARK  2 active torsions:
REMARK  status: ('A' for Active; 'I' for Inactive)
REMARK    1  A    between atoms: N_14  and  S_17
REMARK    2  A    between atoms: S_17  and  C_20
REMARK                            x       y       z     vdW  Elec       q    Type
REMARK                         _______ _______ _______ _____ _____    ______ ____
ROOT
ATOM      1  C   UNL     1      -0.025   1.423  -0.004  0.00  0.00    +0.001 A 
ATOM      2  C   UNL     1       0.008   0.033  -0.028  0.00  0.00    +0.002 A 
ATOM      3  C   UNL     1      -1.144  -0.697  -0.021  0.00  0.00    +0.028 A 
ATOM      4  C   UNL     1      -2.380  -0.039   0.010  0.00  0.00    +0.078 A 
ATOM      5  C   UNL     1      -2.411   1.377   0.034  0.00  0.00    +0.039 A 
ATOM      6  C   UNL     1      -1.212   2.096   0.032  0.00  0.00    +0.013 A 
ATOM      7  C   UNL     1      -3.674   2.021   0.066  0.00  0.00    +0.111 A 
ATOM      8  N   UNL     1      -4.763   1.268   0.072  0.00  0.00    -0.315 N 
ATOM      9  C   UNL     1      -4.689  -0.060   0.049  0.00  0.00    +0.197 A 
ATOM     10  N   UNL     1      -3.542  -0.711   0.019  0.00  0.00    -0.216 NA
ATOM     11  N   UNL     1      -5.864  -0.790   0.058  0.00  0.00    -0.299 N 
ATOM     12  C   UNL     1      -7.165  -0.114  -0.042  0.00  0.00    +0.125 C 
ATOM     13  C   UNL     1      -7.937  -0.709  -1.226  0.00  0.00    +0.128 C 
ATOM     14  N   UNL     1      -7.907  -2.175  -1.118  0.00  0.00    -0.173 NA
ATOM     15  C   UNL     1      -6.606  -2.850  -1.018  0.00  0.00    +0.128 C 
ATOM     16  C   UNL     1      -5.833  -2.256   0.160  0.00  0.00    +0.125 C 
ATOM     17  N   UNL     1      -3.765   3.396   0.091  0.00  0.00    -0.316 N 
ATOM     18  C   UNL     1      -3.899   4.224   1.298  0.00  0.00    +0.106 C 
ATOM     19  C   UNL     1      -3.991   5.694   0.838  0.00  0.00    +0.020 C 
ATOM     20  C   UNL     1      -4.473   5.568  -0.632  0.00  0.00    +0.020 C 
ATOM     21  C   UNL     1      -3.739   4.280  -1.088  0.00  0.00    +0.106 C 
ATOM     22  H   UNL     1      -5.635   1.694   0.093  0.00  0.00    +0.170 HD
ENDROOT
BRANCH  14  23
ATOM     23  S   UNL     1      -9.313  -3.048  -1.108  0.00  0.00    +0.067 S 
ATOM     24  O   UNL     1      -9.024  -4.276  -0.454  0.00  0.00    -0.152 OA
ATOM     25  O   UNL     1     -10.335  -2.168  -0.659  0.00  0.00    -0.152 OA
BRANCH  23  26
ATOM     26  C   UNL     1      -9.692  -3.446  -2.782  0.00  0.00    +0.144 A 
ATOM     27  C   UNL     1      -9.325  -4.532  -3.505  0.00  0.00    +0.037 A 
ATOM     28  C   UNL     1      -9.743  -4.635  -4.819  0.00  0.00    +0.025 A 
ATOM     29  C   UNL     1     -10.507  -3.646  -5.345  0.00  0.00    +0.057 A 
ATOM     30  S   UNL     1     -10.664  -2.526  -3.964  0.00  0.00    -0.062 S 
ATOM     31 BR   UNL     1     -11.227  -3.496  -7.088  0.00  0.00    -0.043 Br
ENDBRANCH  23  26
ENDBRANCH  14  23
TORSDOF 2
