REMARK  Name = ZINC39988230
REMARK  12 active torsions:
REMARK  status: ('A' for Active; 'I' for Inactive)
REMARK    1  A    between atoms: C_1  and  C_2
REMARK    2  A    between atoms: N_9  and  N_10
REMARK    3  A    between atoms: C_11  and  C_13
REMARK    4  A    between atoms: C_13  and  C_15
REMARK    5  A    between atoms: C_13  and  O_16
REMARK    6  A    between atoms: O_16  and  C_17
REMARK    7  A    between atoms: N_29  and  C_30
REMARK    8  A    between atoms: C_30  and  C_31
REMARK    9  A    between atoms: C_31  and  O_32
REMARK   10  A    between atoms: O_32  and  C_33
REMARK   11  A    between atoms: C_38  and  O_39
REMARK   12  A    between atoms: O_39  and  C_40
REMARK                            x       y       z     vdW  Elec       q    Type
REMARK                         _______ _______ _______ _____ _____    ______ ____
ROOT
ATOM      1  C   UNL     1       0.085   2.057   0.454  0.00  0.00    +0.044 C 
ATOM      2  C   UNL     1       0.301   0.569   0.348  0.00  0.00    -0.050 A 
ATOM      3  C   UNL     1       0.524  -0.012  -0.889  0.00  0.00    +0.005 A 
ATOM      4  C   UNL     1       0.724  -1.373  -1.001  0.00  0.00    +0.024 A 
ATOM      5  C   UNL     1       0.701  -2.178   0.133  0.00  0.00    +0.046 A 
ATOM      6  C   UNL     1       0.475  -1.586   1.383  0.00  0.00    +0.029 A 
ATOM      7  C   UNL     1       0.281  -0.213   1.486  0.00  0.00    +0.015 A 
ATOM      8  C   UNL     1       0.509  -2.683   2.377  0.00  0.00    +0.153 C 
ATOM      9  N   UNL     1       0.345  -2.591   3.675  0.00  0.00    -0.174 NA
ATOM     10  C   UNL     1       0.768  -3.905   1.589  0.00  0.00    +0.271 C 
ATOM     11  O   UNL     1       0.871  -5.034   2.030  0.00  0.00    -0.268 OA
ATOM     12  N   UNL     1       0.870  -3.548   0.297  0.00  0.00    -0.262 N 
ENDROOT
BRANCH   9  13
ATOM     13  N   UNL     1       0.409  -3.740   4.473  0.00  0.00    -0.203 N 
ATOM     14  C   UNL     1       0.241  -3.645   5.807  0.00  0.00    +0.273 C 
ATOM     15  O   UNL     1       0.034  -2.564   6.316  0.00  0.00    -0.270 OA
ATOM     16  H   UNL     1       0.575  -4.605   4.066  0.00  0.00    +0.177 HD
BRANCH  14  17
ATOM     17  C   UNL     1       0.310  -4.881   6.665  0.00  0.00    +0.257 C 
ATOM     18  C   UNL     1      -0.849  -5.814   6.310  0.00  0.00    +0.062 C 
BRANCH  17  19
ATOM     19  O   UNL     1       0.218  -4.511   8.042  0.00  0.00    -0.479 OA
BRANCH  19  20
ATOM     20  C   UNL     1       0.762  -5.364   8.948  0.00  0.00    +0.129 A 
ATOM     21  C   UNL     1       1.263  -6.569   8.543  0.00  0.00    +0.046 A 
ATOM     22  C   UNL     1       1.824  -7.455   9.459  0.00  0.00    +0.004 A 
ATOM     23  C   UNL     1       1.891  -7.146  10.784  0.00  0.00    +0.009 A 
ATOM     24  C   UNL     1       1.387  -5.917  11.240  0.00  0.00    -0.014 A 
ATOM     25  C   UNL     1       0.819  -5.010  10.311  0.00  0.00    +0.024 A 
ATOM     26  C   UNL     1       0.320  -3.779  10.767  0.00  0.00    +0.012 A 
ATOM     27  C   UNL     1       0.392  -3.471  12.091  0.00  0.00    +0.001 A 
ATOM     28  C   UNL     1       0.955  -4.360  13.004  0.00  0.00    +0.001 A 
ATOM     29  C   UNL     1       1.439  -5.566  12.601  0.00  0.00    +0.008 A 
ENDBRANCH  19  20
ENDBRANCH  17  19
ENDBRANCH  14  17
ENDBRANCH   9  13
BRANCH  12  30
ATOM     30  C   UNL     1       1.126  -4.485  -0.800  0.00  0.00    +0.155 C 
BRANCH  30  31
ATOM     31  C   UNL     1       2.635  -4.616  -1.017  0.00  0.00    +0.248 C 
BRANCH  31  32
ATOM     32  O   UNL     1       3.231  -5.213   0.137  0.00  0.00    -0.487 OA
BRANCH  32  33
ATOM     33  C   UNL     1       4.577  -5.403   0.107  0.00  0.00    +0.162 A 
ATOM     34  C   UNL     1       5.309  -5.018  -1.005  0.00  0.00    +0.049 A 
ATOM     35  C   UNL     1       6.677  -5.211  -1.033  0.00  0.00    +0.004 A 
ATOM     36  C   UNL     1       7.319  -5.788   0.047  0.00  0.00    +0.004 A 
ATOM     37  C   UNL     1       6.595  -6.175   1.159  0.00  0.00    +0.049 A 
ATOM     38  C   UNL     1       5.224  -5.979   1.196  0.00  0.00    +0.161 A 
BRANCH  38  39
ATOM     39  O   UNL     1       4.511  -6.354   2.292  0.00  0.00    -0.491 OA
ATOM     40  C   UNL     1       5.242  -6.939   3.372  0.00  0.00    +0.277 C 
ENDBRANCH  38  39
ENDBRANCH  32  33
ENDBRANCH  31  32
ENDBRANCH  30  31
ENDBRANCH  12  30
TORSDOF 9
