REMARK  Name = ZINC59982465
REMARK  13 active torsions:
REMARK  status: ('A' for Active; 'I' for Inactive)
REMARK    1  A    between atoms: C_1  and  C_2
REMARK    2  A    between atoms: C_5  and  C_31
REMARK    3  A    between atoms: N_8  and  C_10
REMARK    4  A    between atoms: C_10  and  C_11
REMARK    5  A    between atoms: C_10  and  C_12
REMARK    6  A    between atoms: C_10  and  C_13
REMARK    7  A    between atoms: C_13  and  N_14
REMARK    8  A    between atoms: C_15  and  C_17
REMARK    9  A    between atoms: C_19  and  S_24
REMARK   10  A    between atoms: S_24  and  N_27
REMARK   11  A    between atoms: N_27  and  C_28
REMARK   12  A    between atoms: C_28  and  C_29
REMARK   13  A    between atoms: C_28  and  C_30
REMARK                            x       y       z     vdW  Elec       q    Type
REMARK                         _______ _______ _______ _____ _____    ______ ____
ROOT
ATOM      1  N   UNL     1       0.625  -0.480   3.560  0.00  0.00    -0.313 N 
ATOM      2  C   UNL     1      -0.331  -0.065   4.415  0.00  0.00    +0.245 C 
ATOM      3  O   UNL     1      -0.086   0.811   5.221  0.00  0.00    -0.270 OA
ATOM      4  H   UNL     1       0.430  -1.178   2.916  0.00  0.00    +0.149 HD
ENDROOT
BRANCH   2   5
ATOM      5  C   UNL     1      -1.676  -0.675   4.371  0.00  0.00    +0.057 A 
ATOM      6  C   UNL     1      -1.959  -1.685   3.450  0.00  0.00    +0.043 A 
ATOM      7  C   UNL     1      -3.216  -2.250   3.415  0.00  0.00    +0.106 A 
ATOM      8  C   UNL     1      -4.198  -1.818   4.290  0.00  0.00    +0.030 A 
ATOM      9  C   UNL     1      -3.926  -0.818   5.205  0.00  0.00    +0.022 A 
ATOM     10  C   UNL     1      -2.669  -0.247   5.256  0.00  0.00    +0.053 A 
ATOM     11 CL   UNL     1      -2.327   1.003   6.411  0.00  0.00    -0.083 Cl
BRANCH   7  12
ATOM     12  S   UNL     1      -3.574  -3.525   2.252  0.00  0.00    +0.059 S 
ATOM     13  O   UNL     1      -4.981  -3.510   2.054  0.00  0.00    -0.153 OA
ATOM     14  O   UNL     1      -2.653  -3.369   1.182  0.00  0.00    -0.153 OA
BRANCH  12  15
ATOM     15  N   UNL     1      -3.214  -4.968   2.981  0.00  0.00    -0.187 NA
ATOM     16  H   UNL     1      -2.496  -5.520   2.635  0.00  0.00    +0.148 HD
BRANCH  15  17
ATOM     17  C   UNL     1      -3.979  -5.409   4.150  0.00  0.00    +0.070 C 
ATOM     18  C   UNL     1      -5.109  -6.337   3.699  0.00  0.00    +0.025 C 
ATOM     19  C   UNL     1      -3.055  -6.160   5.111  0.00  0.00    +0.025 C 
ENDBRANCH  15  17
ENDBRANCH  12  15
ENDBRANCH   7  12
ENDBRANCH   2   5
BRANCH   1  20
ATOM     20  C   UNL     1       1.959   0.125   3.603  0.00  0.00    +0.092 C 
BRANCH  20  21
ATOM     21  C   UNL     1       2.882  -0.607   2.627  0.00  0.00    -0.055 C 
ATOM     22  C   UNL     1       4.296  -0.031   2.733  0.00  0.00    -0.008 C 
ATOM     23  C   UNL     1       2.363  -0.424   1.199  0.00  0.00    -0.008 C 
BRANCH  21  29
ATOM     24  C   UNL     1       1.894  -4.204   4.599  0.00  0.00    +0.005 C 
ATOM     25  C   UNL     1       3.330  -3.692   4.717  0.00  0.00    -0.031 C 
ATOM     26  C   UNL     1       4.235  -4.483   3.768  0.00  0.00    +0.003 C 
ATOM     27  C   UNL     1       3.784  -4.237   2.325  0.00  0.00    -0.031 C 
ATOM     28  C   UNL     1       3.814  -2.735   2.036  0.00  0.00    -0.075 C 
ATOM     29  N   UNL     1       2.910  -2.038   2.958  0.00  0.00    +0.384 N 
ATOM     30  C   UNL     1       3.377  -2.209   4.340  0.00  0.00    -0.075 C 
ATOM     31  C   UNL     1       4.729  -4.962   1.364  0.00  0.00    +0.005 C 
ATOM     32  H   UNL     1       1.980  -2.420   2.869  0.00  0.00    -0.081 HD
ENDBRANCH  21  29
ENDBRANCH  20  21
ENDBRANCH   1  20
TORSDOF 7
