REMARK  Name = ZINC12529030
REMARK  9 active torsions:
REMARK  status: ('A' for Active; 'I' for Inactive)
REMARK    1  A    between atoms: C_1  and  C_2
REMARK    2  A    between atoms: C_2  and  C_3
REMARK    3  A    between atoms: C_6  and  N_9
REMARK    4  A    between atoms: C_13  and  S_15
REMARK    5  A    between atoms: S_15  and  C_16
REMARK    6  A    between atoms: C_16  and  C_17
REMARK    7  A    between atoms: N_19  and  C_20
REMARK    8  A    between atoms: C_23  and  S_26
REMARK    9  A    between atoms: S_26  and  N_29
REMARK                            x       y       z     vdW  Elec       q    Type
REMARK                         _______ _______ _______ _____ _____    ______ ____
ROOT
ATOM      1  C   UNL     1      -0.176   9.866   8.185  0.00  0.00    +0.227 C 
ATOM      2  O   UNL     1      -0.926  10.064   9.118  0.00  0.00    -0.275 OA
ATOM      3  N   UNL     1       0.859  10.701   7.964  0.00  0.00    -0.285 N 
ATOM      4  H   UNL     1       1.414  10.587   7.177  0.00  0.00    +0.155 HD
ENDROOT
BRANCH   3   5
ATOM      5  C   UNL     1       1.134  11.730   8.871  0.00  0.00    +0.034 A 
ATOM      6  C   UNL     1       1.661  12.933   8.419  0.00  0.00    +0.025 A 
ATOM      7  C   UNL     1       1.925  13.950   9.316  0.00  0.00    +0.030 A 
ATOM      8  C   UNL     1       1.676  13.767  10.664  0.00  0.00    +0.106 A 
ATOM      9  C   UNL     1       1.156  12.568  11.118  0.00  0.00    +0.030 A 
ATOM     10  C   UNL     1       0.884  11.550  10.225  0.00  0.00    +0.025 A 
BRANCH   8  11
ATOM     11  S   UNL     1       2.021  15.064  11.806  0.00  0.00    +0.061 S 
ATOM     12  O   UNL     1       1.989  16.276  11.065  0.00  0.00    -0.153 OA
ATOM     13  O   UNL     1       1.191  14.841  12.937  0.00  0.00    -0.153 OA
BRANCH  11  14
ATOM     14  N   UNL     1       3.583  14.863  12.318  0.00  0.00    -0.177 NA
ATOM     15  C   UNL     1       4.007  14.075  13.484  0.00  0.00    +0.109 C 
ATOM     16  C   UNL     1       5.543  14.196  13.585  0.00  0.00    +0.018 C 
ATOM     17  C   UNL     1       5.837  15.508  12.811  0.00  0.00    +0.018 C 
ATOM     18  C   UNL     1       4.777  15.449  11.683  0.00  0.00    +0.109 C 
ENDBRANCH  11  14
ENDBRANCH   8  11
ENDBRANCH   3   5
BRANCH   1  19
ATOM     19  C   UNL     1      -0.402   8.688   7.274  0.00  0.00    +0.172 C 
BRANCH  19  20
ATOM     20  S   UNL     1      -1.861   7.765   7.829  0.00  0.00    -0.088 S 
BRANCH  20  25
ATOM     21  N   UNL     1      -3.004   3.147   4.514  0.00  0.00    -0.292 N 
ATOM     22  C   UNL     1      -2.542   4.290   5.157  0.00  0.00    +0.187 A 
ATOM     23  N   UNL     1      -1.502   5.049   4.868  0.00  0.00    -0.125 NA
ATOM     24  N   UNL     1      -1.223   6.151   5.643  0.00  0.00    -0.133 NA
ATOM     25  C   UNL     1      -1.990   6.437   6.677  0.00  0.00    +0.160 A 
ATOM     26  S   UNL     1      -3.193   5.119   6.599  0.00  0.00    -0.024 S 
ATOM     27  H   UNL     1      -3.838   2.738   4.792  0.00  0.00    +0.154 HD
BRANCH  21  31
ATOM     28  C   UNL     1      -0.807   1.483   1.392  0.00  0.00    -0.048 A 
ATOM     29  C   UNL     1      -2.171   1.268   1.467  0.00  0.00    +0.005 A 
ATOM     30  C   UNL     1      -2.902   1.814   2.504  0.00  0.00    +0.023 A 
ATOM     31  C   UNL     1      -2.267   2.589   3.466  0.00  0.00    +0.033 A 
ATOM     32  C   UNL     1      -0.897   2.807   3.385  0.00  0.00    +0.023 A 
ATOM     33  C   UNL     1      -0.172   2.254   2.348  0.00  0.00    +0.005 A 
BRANCH  28  35
ATOM     34  C   UNL     1       0.492  -0.504   0.675  0.00  0.00    +0.009 C 
ATOM     35  C   UNL     1      -0.013   0.880   0.262  0.00  0.00    +0.032 C 
ENDBRANCH  28  35
ENDBRANCH  21  31
ENDBRANCH  20  25
ENDBRANCH  19  20
ENDBRANCH   1  19
TORSDOF 8
