REMARK  Name = ZINC62201070
REMARK  6 active torsions:
REMARK  status: ('A' for Active; 'I' for Inactive)
REMARK    1  A    between atoms: C_1  and  C_2
REMARK    2  A    between atoms: C_2  and  C_3
REMARK    3  A    between atoms: C_5  and  C_14
REMARK    4  A    between atoms: C_14  and  C_15
REMARK    5  A    between atoms: C_15  and  C_17
REMARK    6  A    between atoms: C_15  and  N_18
REMARK                            x       y       z     vdW  Elec       q    Type
REMARK                         _______ _______ _______ _____ _____    ______ ____
ROOT
ATOM      1  C   UNL     1      -1.412  -0.526   0.013  0.00  0.00    -0.026 A 
ATOM      2  C   UNL     1      -2.015  -0.864   1.208  0.00  0.00    +0.009 A 
ATOM      3  C   UNL     1      -3.312  -1.343   1.219  0.00  0.00    -0.048 A 
ATOM      4  C   UNL     1      -4.010  -1.485   0.033  0.00  0.00    +0.009 A 
ATOM      5  C   UNL     1      -3.412  -1.148  -1.165  0.00  0.00    -0.025 A 
ATOM      6  C   UNL     1      -2.112  -0.662  -1.178  0.00  0.00    +0.040 A 
ATOM      7  N   UNL     1      -1.509  -0.315  -2.392  0.00  0.00    -0.285 N 
ATOM      8  C   UNL     1      -2.260  -0.086  -3.485  0.00  0.00    +0.218 C 
ATOM      9  O   UNL     1      -1.720   0.199  -4.533  0.00  0.00    -0.275 OA
ATOM     10  C   UNL     1      -3.760  -0.178  -3.422  0.00  0.00    +0.101 C 
ATOM     11  C   UNL     1      -4.169  -1.302  -2.458  0.00  0.00    +0.046 C 
ATOM     12  H   UNL     1      -0.544  -0.240  -2.446  0.00  0.00    +0.155 HD
ENDROOT
BRANCH   1  14
ATOM     13  C   UNL     1      -0.019   1.526   0.010  0.00  0.00    +0.009 C 
ATOM     14  C   UNL     1       0.002  -0.004   0.002  0.00  0.00    +0.033 C 
ENDBRANCH   1  14
BRANCH   3  15
ATOM     15  C   UNL     1      -3.967  -1.711   2.526  0.00  0.00    +0.018 C 
BRANCH  15  16
ATOM     16  C   UNL     1      -4.685  -0.488   3.099  0.00  0.00    -0.074 C 
ATOM     17  C   UNL     1      -5.244  -0.826   4.483  0.00  0.00    -0.014 C 
BRANCH  16  18
ATOM     18  N   UNL     1      -5.787  -0.104   2.207  0.00  0.00    +0.380 N 
ATOM     19  H   UNL     1      -6.439  -0.870   2.128  0.00  0.00    -0.090 HD
ATOM     20  H   UNL     1      -6.261   0.703   2.585  0.00  0.00    -0.090 HD
ATOM     21  H   UNL     1      -5.419   0.119   1.294  0.00  0.00    -0.090 HD
ENDBRANCH  16  18
ENDBRANCH  15  16
ENDBRANCH   3  15
TORSDOF 4
