REMARK  Name = ZINC02148619
REMARK  8 active torsions:
REMARK  status: ('A' for Active; 'I' for Inactive)
REMARK    1  A    between atoms: C_1  and  C_2
REMARK    2  A    between atoms: C_2  and  C_3
REMARK    3  A    between atoms: C_2  and  C_4
REMARK    4  A    between atoms: C_7  and  C_10
REMARK    5  A    between atoms: N_29  and  C_32
REMARK    6  A    between atoms: C_32  and  C_33
REMARK    7  A    between atoms: C_33  and  C_34
REMARK    8  A    between atoms: C_34  and  N_73
REMARK                            x       y       z     vdW  Elec       q    Type
REMARK                         _______ _______ _______ _____ _____    ______ ____
ROOT
ATOM      1  C   UNL     1      -3.527  11.195  -2.432  0.00  0.00    +0.154 C 
ATOM      2  C   UNL     1      -4.925  11.542  -2.891  0.00  0.00    +0.046 A 
ATOM      3  C   UNL     1      -5.832  10.619  -3.279  0.00  0.00    -0.015 A 
ATOM      4  C   UNL     1      -7.039  11.336  -3.637  0.00  0.00    +0.003 A 
ATOM      5  C   UNL     1      -8.289  10.916  -4.101  0.00  0.00    +0.010 A 
ATOM      6  C   UNL     1      -9.221  11.894  -4.347  0.00  0.00    +0.001 A 
ATOM      7  C   UNL     1      -8.947  13.237  -4.148  0.00  0.00    +0.002 A 
ATOM      8  C   UNL     1      -7.720  13.681  -3.689  0.00  0.00    +0.026 A 
ATOM      9  C   UNL     1      -6.754  12.711  -3.431  0.00  0.00    +0.047 A 
ATOM     10  N   UNL     1      -5.468  12.796  -2.979  0.00  0.00    -0.356 N 
ATOM     11  H   UNL     1      -5.009  13.620  -2.754  0.00  0.00    +0.166 HD
ATOM     12  C   UNL     1      -5.583   9.133  -3.316  0.00  0.00    +0.069 C 
ATOM     13  C   UNL     1      -4.349   8.815  -2.461  0.00  0.00    +0.167 C 
ATOM     14  N   UNL     1      -3.291   9.775  -2.771  0.00  0.00    -0.276 N 
ATOM     15  C   UNL     1      -2.132   9.429  -3.336  0.00  0.00    +0.234 C 
ATOM     16  O   UNL     1      -1.350  10.314  -3.610  0.00  0.00    -0.274 OA
ATOM     17  C   UNL     1      -1.735   8.024  -3.653  0.00  0.00    +0.203 C 
ATOM     18  N   UNL     1      -2.747   7.064  -3.245  0.00  0.00    -0.291 N 
ATOM     19  C   UNL     1      -3.919   7.405  -2.713  0.00  0.00    +0.237 C 
ATOM     20  O   UNL     1      -4.685   6.515  -2.410  0.00  0.00    -0.274 OA
ENDROOT
BRANCH   1  24
ATOM     21  C   UNL     1      -3.207  11.751   1.792  0.00  0.00    -0.045 A 
ATOM     22  C   UNL     1      -2.297  12.354   0.944  0.00  0.00    +0.004 A 
ATOM     23  C   UNL     1      -2.400  12.174  -0.423  0.00  0.00    +0.006 A 
ATOM     24  C   UNL     1      -3.414  11.391  -0.942  0.00  0.00    -0.021 A 
ATOM     25  C   UNL     1      -4.328  10.792  -0.095  0.00  0.00    +0.006 A 
ATOM     26  C   UNL     1      -4.222  10.969   1.272  0.00  0.00    +0.004 A 
BRANCH  21  28
ATOM     27  C   UNL     1      -4.373  12.602   3.808  0.00  0.00    +0.012 C 
ATOM     28  C   UNL     1      -3.094  11.947   3.281  0.00  0.00    +0.013 C 
ATOM     29  C   UNL     1      -2.899  10.590   3.961  0.00  0.00    +0.012 C 
ENDBRANCH  21  28
ENDBRANCH   1  24
BRANCH  18  30
ATOM     30  C   UNL     1      -2.463   5.640  -3.434  0.00  0.00    +0.106 C 
BRANCH  30  31
ATOM     31  C   UNL     1      -1.778   5.085  -2.183  0.00  0.00    +0.000 C 
BRANCH  31  32
ATOM     32  C   UNL     1      -1.482   3.597  -2.381  0.00  0.00    -0.077 C 
BRANCH  32  38
ATOM     33  C   UNL     1      -0.737   1.599  -1.233  0.00  0.00    -0.050 C 
ATOM     34  C   UNL     1       0.006   1.092   0.006  0.00  0.00    +0.141 C 
ATOM     35  O   UNL     1      -0.665   1.552   1.181  0.00  0.00    -0.383 OA
ATOM     36  C   UNL     1      -0.768   2.977   1.265  0.00  0.00    +0.141 C 
ATOM     37  C   UNL     1      -1.519   3.502   0.039  0.00  0.00    -0.050 C 
ATOM     38  N   UNL     1      -0.799   3.075  -1.178  0.00  0.00    +0.383 N 
ATOM     39  H   UNL     1       0.158   3.448  -1.149  0.00  0.00    -0.082 HD
ENDBRANCH  32  38
ENDBRANCH  31  32
ENDBRANCH  30  31
ENDBRANCH  18  30
TORSDOF 6
