REMARK  Name = ZINC39126708
REMARK  13 active torsions:
REMARK  status: ('A' for Active; 'I' for Inactive)
REMARK    1  A    between atoms: C_1  and  O_2
REMARK    2  A    between atoms: O_2  and  C_3
REMARK    3  A    between atoms: C_7  and  C_15
REMARK    4  A    between atoms: C_8  and  N_13
REMARK    5  A    between atoms: C_11  and  O_12
REMARK    6  A    between atoms: N_13  and  N_14
REMARK    7  A    between atoms: C_15  and  C_17
REMARK    8  A    between atoms: C_19  and  O_27
REMARK    9  A    between atoms: C_20  and  O_25
REMARK   10  A    between atoms: C_21  and  O_23
REMARK   11  A    between atoms: O_23  and  C_24
REMARK   12  A    between atoms: O_25  and  C_26
REMARK   13  A    between atoms: O_27  and  C_28
REMARK                            x       y       z     vdW  Elec       q    Type
REMARK                         _______ _______ _______ _____ _____    ______ ____
ROOT
ATOM      1  C   UNL     1       0.400  -0.275  -2.126  0.00  0.00    +0.165 A 
ATOM      2  C   UNL     1      -0.034  -0.111  -3.434  0.00  0.00    +0.050 A 
ATOM      3  C   UNL     1       0.446  -0.934  -4.432  0.00  0.00    +0.016 A 
ATOM      4  C   UNL     1       1.368  -1.929  -4.123  0.00  0.00    +0.037 A 
ATOM      5  C   UNL     1       2.071  -2.958  -4.919  0.00  0.00    +0.089 A 
ATOM      6  C   UNL     1       2.865  -3.648  -4.012  0.00  0.00    +0.184 A 
ATOM      7  O   UNL     1       2.693  -3.126  -2.789  0.00  0.00    -0.439 OA
ATOM      8  C   UNL     1       1.812  -2.102  -2.806  0.00  0.00    +0.183 A 
ATOM      9  C   UNL     1       1.324  -1.262  -1.809  0.00  0.00    +0.202 A 
ENDROOT
BRANCH   1  11
ATOM     10  C   UNL     1      -1.026   1.536  -1.539  0.00  0.00    +0.277 C 
ATOM     11  O   UNL     1      -0.078   0.541  -1.147  0.00  0.00    -0.491 OA
ENDBRANCH   1  11
BRANCH   9  12
ATOM     12  O   UNL     1       1.747  -1.412  -0.524  0.00  0.00    -0.501 OA
ATOM     13  H   UNL     1       1.210  -2.023  -0.002  0.00  0.00    +0.292 HD
ENDBRANCH   9  12
BRANCH   6  14
ATOM     14  N   UNL     1       3.694  -4.697  -4.318  0.00  0.00    -0.366 N 
ATOM     15  H   UNL     1       4.162  -4.713  -5.168  0.00  0.00    +0.128 HD
BRANCH  14  16
ATOM     16  N   UNL     1       3.860  -5.719  -3.428  0.00  0.00    +0.392 N 
ATOM     17  H   UNL     1       2.959  -6.099  -3.180  0.00  0.00    -0.059 HD
ATOM     18  H   UNL     1       4.427  -6.441  -3.846  0.00  0.00    -0.059 HD
ATOM     19  H   UNL     1       4.317  -5.371  -2.598  0.00  0.00    -0.059 HD
ENDBRANCH  14  16
ENDBRANCH   6  14
BRANCH   5  20
ATOM     20  C   UNL     1       1.957  -3.192  -6.312  0.00  0.00    +0.199 C 
ATOM     21  O   UNL     1       1.344  -2.407  -7.014  0.00  0.00    -0.286 OA
BRANCH  20  22
ATOM     22  C   UNL     1       2.584  -4.387  -6.914  0.00  0.00    +0.030 A 
ATOM     23  C   UNL     1       2.443  -5.634  -6.301  0.00  0.00    +0.061 A 
ATOM     24  C   UNL     1       3.030  -6.751  -6.867  0.00  0.00    +0.166 A 
ATOM     25  C   UNL     1       3.761  -6.634  -8.046  0.00  0.00    +0.204 A 
ATOM     26  C   UNL     1       3.902  -5.392  -8.659  0.00  0.00    +0.166 A 
ATOM     27  C   UNL     1       3.313  -4.273  -8.100  0.00  0.00    +0.061 A 
BRANCH  26  28
ATOM     28  O   UNL     1       4.617  -5.280  -9.810  0.00  0.00    -0.491 OA
ATOM     29  C   UNL     1       4.722  -3.976 -10.385  0.00  0.00    +0.277 C 
ENDBRANCH  26  28
BRANCH  25  30
ATOM     30  O   UNL     1       4.337  -7.733  -8.599  0.00  0.00    -0.488 OA
ATOM     31  C   UNL     1       3.555  -8.472  -9.540  0.00  0.00    +0.277 C 
ENDBRANCH  25  30
BRANCH  24  32
ATOM     32  O   UNL     1       2.893  -7.966  -6.270  0.00  0.00    -0.491 OA
ATOM     33  C   UNL     1       2.037  -8.035  -5.128  0.00  0.00    +0.277 C 
ENDBRANCH  24  32
ENDBRANCH  20  22
ENDBRANCH   5  20
TORSDOF 9
