REMARK  Name = ZINC08789432
REMARK  7 active torsions:
REMARK  status: ('A' for Active; 'I' for Inactive)
REMARK    1  A    between atoms: C_1  and  C_2
REMARK    2  A    between atoms: C_2  and  C_4
REMARK    3  A    between atoms: C_2  and  O_35
REMARK    4  A    between atoms: N_12  and  C_15
REMARK    5  A    between atoms: C_15  and  C_16
REMARK    6  A    between atoms: C_21  and  O_22
REMARK    7  A    between atoms: O_22  and  C_23
REMARK                            x       y       z     vdW  Elec       q    Type
REMARK                         _______ _______ _______ _____ _____    ______ ____
ROOT
ATOM      1  C   UNL     1      -4.175   3.586   0.846  0.00  0.00    -0.028 C 
ATOM      2  C   UNL     1      -4.465   3.995  -0.613  0.00  0.00    +0.075 C 
ATOM      3  C   UNL     1      -3.197   4.771  -1.069  0.00  0.00    +0.088 C 
ATOM      4  C   UNL     1      -3.714   6.171  -1.311  0.00  0.00    +0.225 C 
ATOM      5  O   UNL     1      -3.047   7.108  -1.696  0.00  0.00    -0.275 OA
ATOM      6  N   UNL     1      -5.023   6.216  -1.035  0.00  0.00    -0.237 N 
ATOM      7  C   UNL     1      -5.557   5.040  -0.633  0.00  0.00    +0.224 C 
ATOM      8  O   UNL     1      -6.716   4.847  -0.334  0.00  0.00    -0.275 OA
ATOM      9  C   UNL     1      -2.279   4.767   0.159  0.00  0.00    +0.050 C 
ATOM     10  C   UNL     1      -1.233   3.694   0.065  0.00  0.00    -0.026 A 
ATOM     11  C   UNL     1      -1.289   2.323  -0.059  0.00  0.00    +0.024 A 
ATOM     12  C   UNL     1      -0.119   1.585  -0.118  0.00  0.00    +0.041 A 
ATOM     13  C   UNL     1       1.105   2.228  -0.064  0.00  0.00    +0.022 A 
ATOM     14  C   UNL     1       1.165   3.601   0.055  0.00  0.00    +0.025 A 
ATOM     15  C   UNL     1      -0.007   4.351   0.121  0.00  0.00    +0.036 A 
ATOM     16  N   UNL     1      -0.203   5.729   0.241  0.00  0.00    -0.286 N 
ATOM     17  C   UNL     1      -1.510   6.055   0.272  0.00  0.00    +0.211 C 
ATOM     18  O   UNL     1      -1.976   7.171   0.371  0.00  0.00    -0.277 OA
ATOM     19 CL   UNL     1      -0.188  -0.143  -0.268  0.00  0.00    -0.084 Cl
ATOM     20  H   UNL     1       0.517   6.376   0.297  0.00  0.00    +0.155 HD
ATOM     21  N   UNL     1      -3.164   4.548   1.290  0.00  0.00    +0.396 N 
ATOM     22  H   UNL     1      -2.636   4.168   2.085  0.00  0.00    -0.083 HD
ATOM     23  H   UNL     1      -3.611   5.431   1.567  0.00  0.00    -0.083 HD
ENDROOT
BRANCH   1  25
ATOM     24  C   UNL     1      -6.422   2.582   1.274  0.00  0.00    +0.036 C 
ATOM     25  C   UNL     1      -5.448   3.686   1.689  0.00  0.00    +0.098 C 
BRANCH  25  26
ATOM     26  O   UNL     1      -5.117   3.534   3.071  0.00  0.00    -0.394 OA
ATOM     27  H   UNL     1      -5.878   3.586   3.666  0.00  0.00    +0.210 HD
ENDBRANCH  25  26
ENDBRANCH   1  25
BRANCH   6  28
ATOM     28  C   UNL     1      -5.818   7.439  -1.164  0.00  0.00    +0.155 C 
BRANCH  28  29
ATOM     29  C   UNL     1      -6.387   7.524  -2.557  0.00  0.00    +0.012 A 
ATOM     30  C   UNL     1      -5.782   8.329  -3.503  0.00  0.00    +0.009 A 
ATOM     31  C   UNL     1      -6.303   8.407  -4.781  0.00  0.00    +0.001 A 
ATOM     32  C   UNL     1      -7.431   7.680  -5.116  0.00  0.00    +0.004 A 
ATOM     33  C   UNL     1      -8.039   6.874  -4.174  0.00  0.00    +0.046 A 
ATOM     34  C   UNL     1      -7.516   6.790  -2.892  0.00  0.00    +0.125 A 
BRANCH  34  35
ATOM     35  O   UNL     1      -8.110   5.994  -1.964  0.00  0.00    -0.495 OA
ATOM     36  C   UNL     1      -9.268   5.267  -2.380  0.00  0.00    +0.277 C 
ENDBRANCH  34  35
ENDBRANCH  28  29
ENDBRANCH   6  28
TORSDOF 5
