REMARK  Name = ZINC49512455
REMARK  9 active torsions:
REMARK  status: ('A' for Active; 'I' for Inactive)
REMARK    1  A    between atoms: C_1  and  C_2
REMARK    2  A    between atoms: C_4  and  C_8
REMARK    3  A    between atoms: C_5  and  C_7
REMARK    4  A    between atoms: C_8  and  C_10
REMARK    5  A    between atoms: C_8  and  N_11
REMARK    6  A    between atoms: N_11  and  S_12
REMARK    7  A    between atoms: S_12  and  C_15
REMARK    8  A    between atoms: C_18  and  C_21
REMARK    9  A    between atoms: C_21  and  N_22
REMARK                            x       y       z     vdW  Elec       q    Type
REMARK                         _______ _______ _______ _____ _____    ______ ____
ROOT
ATOM      1  S   UNL     1      -4.224  -3.429   1.381  0.00  0.00    +0.059 S 
ATOM      2  O   UNL     1      -5.272  -2.527   1.712  0.00  0.00    -0.153 OA
ATOM      3  O   UNL     1      -4.459  -4.648   0.690  0.00  0.00    -0.153 OA
ENDROOT
BRANCH   1   4
ATOM      4  C   UNL     1      -3.426  -3.852   2.893  0.00  0.00    +0.105 A 
ATOM      5  C   UNL     1      -2.718  -5.035   2.994  0.00  0.00    +0.029 A 
ATOM      6  C   UNL     1      -2.092  -5.367   4.181  0.00  0.00    +0.003 A 
ATOM      7  C   UNL     1      -2.174  -4.516   5.267  0.00  0.00    -0.065 A 
ATOM      8  C   UNL     1      -2.881  -3.333   5.166  0.00  0.00    +0.003 A 
ATOM      9  C   UNL     1      -3.504  -2.999   3.978  0.00  0.00    +0.029 A 
BRANCH   7  10
ATOM     10  C   UNL     1      -1.492  -4.878   6.561  0.00  0.00    -0.051 C 
BRANCH  10  11
ATOM     11  N   UNL     1      -0.123  -4.346   6.559  0.00  0.00    +0.381 N 
ATOM     12  H   UNL     1       0.391  -4.742   5.786  0.00  0.00    -0.090 HD
ATOM     13  H   UNL     1      -0.152  -3.342   6.464  0.00  0.00    -0.090 HD
ATOM     14  H   UNL     1       0.334  -4.589   7.426  0.00  0.00    -0.090 HD
ENDBRANCH  10  11
ENDBRANCH   7  10
ENDBRANCH   1   4
BRANCH   1  15
ATOM     15  N   UNL     1      -3.134  -2.574   0.474  0.00  0.00    -0.183 NA
ATOM     16  H   UNL     1      -3.303  -1.643   0.262  0.00  0.00    +0.149 HD
BRANCH  15  17
ATOM     17  C   UNL     1      -1.912  -3.224  -0.008  0.00  0.00    +0.104 C 
ATOM     18  C   UNL     1      -2.137  -3.741  -1.430  0.00  0.00    +0.031 C 
BRANCH  17  22
ATOM     19  C   UNL     1      -0.018   1.503   0.010  0.00  0.00    +0.051 C 
ATOM     20  C   UNL     1       0.002  -0.004   0.002  0.00  0.00    -0.013 A 
ATOM     21  C   UNL     1      -1.039  -0.872   0.002  0.00  0.00    +0.016 A 
ATOM     22  C   UNL     1      -0.780  -2.230  -0.007  0.00  0.00    -0.019 A 
ATOM     23  C   UNL     1       0.507  -2.653  -0.016  0.00  0.00    -0.008 A 
ATOM     24  S   UNL     1       1.404  -1.109  -0.018  0.00  0.00    -0.098 S 
ATOM     25  C   UNL     1       1.043  -4.062  -0.027  0.00  0.00    +0.052 C 
ENDBRANCH  17  22
ENDBRANCH  15  17
ENDBRANCH   1  15
TORSDOF 6
