REMARK  Name = ZINC03838486
REMARK  13 active torsions:
REMARK  status: ('A' for Active; 'I' for Inactive)
REMARK    1  A    between atoms: C_1  and  C_2
REMARK    2  A    between atoms: C_5  and  N_8
REMARK    3  A    between atoms: N_11  and  C_12
REMARK    4  A    between atoms: C_15  and  C_23
REMARK    5  A    between atoms: C_17  and  O_22
REMARK    6  A    between atoms: C_19  and  O_21
REMARK    7  A    between atoms: N_25  and  C_26
REMARK    8  A    between atoms: C_26  and  C_28
REMARK    9  A    between atoms: C_26  and  C_31
REMARK   10  A    between atoms: C_28  and  C_29
REMARK   11  A    between atoms: C_28  and  C_30
REMARK   12  A    between atoms: C_31  and  O_33
REMARK   13  A    between atoms: O_33  and  C_34
REMARK                            x       y       z     vdW  Elec       q    Type
REMARK                         _______ _______ _______ _____ _____    ______ ____
ROOT
ATOM      1  C   UNL     1       2.405   1.165   0.325  0.00  0.00    +0.129 C 
ATOM      2  C   UNL     1       2.689   0.985   1.788  0.00  0.00    +0.006 C 
ATOM      3  C   UNL     1       3.562   1.706   2.458  0.00  0.00    +0.015 C 
ATOM      4  C   UNL     1       4.393   2.794   1.842  0.00  0.00    +0.074 C 
ATOM      5  C   UNL     1       3.794   3.220   0.500  0.00  0.00    +0.149 C 
ATOM      6  C   UNL     1       3.531   1.962  -0.336  0.00  0.00    +0.167 C 
ENDROOT
BRANCH   1  10
ATOM      7  N   UNL     1      -1.191   1.870   0.018  0.00  0.00    -0.269 N 
ATOM      8  C   UNL     1      -0.027   1.208   0.174  0.00  0.00    +0.304 C 
ATOM      9  O   UNL     1      -0.028   0.002   0.322  0.00  0.00    -0.252 OA
ATOM     10  N   UNL     1       1.139   1.884   0.161  0.00  0.00    -0.290 N 
ATOM     11  H   UNL     1      -1.196   2.839  -0.023  0.00  0.00    +0.156 HD
ATOM     12  H   UNL     1       1.141   2.847   0.043  0.00  0.00    +0.151 HD
BRANCH   7  17
ATOM     13  C   UNL     1      -6.058  -1.015  -0.403  0.00  0.00    +0.044 C 
ATOM     14  C   UNL     1      -4.765  -0.248  -0.292  0.00  0.00    -0.050 A 
ATOM     15  C   UNL     1      -4.749   0.992   0.319  0.00  0.00    +0.005 A 
ATOM     16  C   UNL     1      -3.566   1.697   0.423  0.00  0.00    +0.023 A 
ATOM     17  C   UNL     1      -2.391   1.158  -0.086  0.00  0.00    +0.035 A 
ATOM     18  C   UNL     1      -2.412  -0.085  -0.704  0.00  0.00    +0.023 A 
ATOM     19  C   UNL     1      -3.597  -0.787  -0.800  0.00  0.00    +0.005 A 
ENDBRANCH   7  17
ENDBRANCH   1  10
BRANCH   3  20
ATOM     20  C   UNL     1       3.735   1.429   3.892  0.00  0.00    +0.241 C 
ATOM     21  O   UNL     1       3.080   0.555   4.426  0.00  0.00    -0.271 OA
ATOM     22  N   UNL     1       4.619   2.145   4.615  0.00  0.00    -0.298 N 
ATOM     23  H   UNL     1       5.142   2.843   4.189  0.00  0.00    +0.150 HD
BRANCH  22  24
ATOM     24  C   UNL     1       4.791   1.870   6.043  0.00  0.00    +0.185 C 
BRANCH  24  25
ATOM     25  C   UNL     1       3.738   2.640   6.842  0.00  0.00    +0.014 C 
ATOM     26  C   UNL     1       2.340   2.199   6.402  0.00  0.00    +0.009 C 
ATOM     27  C   UNL     1       3.917   2.353   8.334  0.00  0.00    +0.009 C 
ENDBRANCH  24  25
BRANCH  24  28
ATOM     28  C   UNL     1       6.167   2.305   6.477  0.00  0.00    +0.328 C 
ATOM     29  O   UNL     1       6.927   2.794   5.675  0.00  0.00    -0.249 OA
BRANCH  28  30
ATOM     30  O   UNL     1       6.550   2.148   7.754  0.00  0.00    -0.467 OA
ATOM     31  C   UNL     1       7.889   2.589   8.100  0.00  0.00    +0.280 C 
ENDBRANCH  28  30
ENDBRANCH  24  28
ENDBRANCH  22  24
ENDBRANCH   3  20
BRANCH   6  32
ATOM     32  O   UNL     1       3.141   2.337  -1.659  0.00  0.00    -0.387 OA
ATOM     33  H   UNL     1       3.810   2.846  -2.136  0.00  0.00    +0.210 HD
ENDBRANCH   6  32
BRANCH   5  34
ATOM     34  O   UNL     1       4.713   4.070  -0.188  0.00  0.00    -0.389 OA
ATOM     35  H   UNL     1       4.936   4.879   0.293  0.00  0.00    +0.210 HD
ENDBRANCH   5  34
TORSDOF 9
