REMARK  Name = ZINC39466475
REMARK  5 active torsions:
REMARK  status: ('A' for Active; 'I' for Inactive)
REMARK    1  A    between atoms: C_4  and  C_7
REMARK    2  A    between atoms: C_7  and  C_8
REMARK    3  A    between atoms: P_17  and  C_27
REMARK    4  A    between atoms: C_25  and  O_26
REMARK    5  A    between atoms: C_27  and  C_28
REMARK                            x       y       z     vdW  Elec       q    Type
REMARK                         _______ _______ _______ _____ _____    ______ ____
ROOT
ATOM      1  C   UNL     1       4.164  -0.959   1.377  0.00  0.00    -0.006 C 
ATOM      2  C   UNL     1       3.893  -2.118   1.969  0.00  0.00    -0.016 C 
ATOM      3  C   UNL     1       4.358  -2.369   3.378  0.00  0.00    +0.016 C 
ATOM      4  C   UNL     1       4.502  -3.863   3.631  0.00  0.00    -0.003 C 
ATOM      5  C   UNL     1       5.538  -4.141   4.729  0.00  0.00    -0.020 C 
ATOM      6  C   UNL     1       5.109  -5.464   5.379  0.00  0.00    +0.156 C 
ATOM      7  O   UNL     1       6.034  -5.838   6.412  0.00  0.00    -0.319 OA
ATOM      8  P   UNL     1       6.394  -4.713   7.533  0.00  0.00    +0.262 P 
ATOM      9  O   UNL     1       7.679  -5.036   8.192  0.00  0.00    -0.274 OA
ATOM     10  N   UNL     1       6.520  -3.303   6.689  0.00  0.00    -0.291 NA
ATOM     11  N   UNL     1       5.594  -3.053   5.698  0.00  0.00    +0.397 N 
ATOM     12  C   UNL     1       6.060  -1.794   5.096  0.00  0.00    -0.046 C 
ATOM     13  C   UNL     1       5.715  -1.706   3.602  0.00  0.00    +0.008 C 
ATOM     14  C   UNL     1       5.655  -0.266   3.167  0.00  0.00    +0.021 C 
ATOM     15  C   UNL     1       4.917   0.077   2.111  0.00  0.00    +0.116 C 
ATOM     16  H   UNL     1       7.224  -2.667   6.893  0.00  0.00    +0.111 HD
ATOM     17  H   UNL     1       4.680  -2.916   6.103  0.00  0.00    -0.055 HD
ENDROOT
BRANCH  15  18
ATOM     18  O   UNL     1       4.854   1.375   1.716  0.00  0.00    -0.507 OA
ATOM     19  H   UNL     1       5.381   1.978   2.259  0.00  0.00    +0.292 HD
ENDBRANCH  15  18
BRANCH   1  20
ATOM     20  C   UNL     1       3.711  -0.707  -0.038  0.00  0.00    +0.073 C 
BRANCH  20  24
ATOM     21  C   UNL     1      -0.017   1.378   0.010  0.00  0.00    +0.000 A 
ATOM     22  C   UNL     1       1.171   2.086   0.002  0.00  0.00    +0.000 A 
ATOM     23  C   UNL     1       2.377   1.411  -0.013  0.00  0.00    +0.004 A 
ATOM     24  C   UNL     1       2.396   0.029  -0.020  0.00  0.00    -0.043 A 
ATOM     25  C   UNL     1       1.208  -0.679  -0.012  0.00  0.00    +0.004 A 
ATOM     26  C   UNL     1       0.002  -0.004   0.002  0.00  0.00    +0.000 A 
ENDBRANCH  20  24
ENDBRANCH   1  20
BRANCH   8  27
ATOM     27  C   UNL     1       5.059  -4.601   8.769  0.00  0.00    +0.147 C 
BRANCH  27  28
ATOM     28  C   UNL     1       4.889  -5.935   9.448  0.00  0.00    -0.037 A 
ATOM     29  C   UNL     1       4.018  -6.872   8.925  0.00  0.00    +0.004 A 
ATOM     30  C   UNL     1       3.862  -8.096   9.548  0.00  0.00    +0.000 A 
ATOM     31  C   UNL     1       4.579  -8.383  10.695  0.00  0.00    +0.000 A 
ATOM     32  C   UNL     1       5.451  -7.447  11.218  0.00  0.00    +0.000 A 
ATOM     33  C   UNL     1       5.609  -6.224  10.592  0.00  0.00    +0.004 A 
ENDBRANCH  27  28
ENDBRANCH   8  27
TORSDOF 5
