REMARK  Name = ZINC19961814
REMARK  9 active torsions:
REMARK  status: ('A' for Active; 'I' for Inactive)
REMARK    1  A    between atoms: C_1  and  C_2
REMARK    2  A    between atoms: C_2  and  C_3
REMARK    3  A    between atoms: C_8  and  N_9
REMARK    4  A    between atoms: C_10  and  C_12
REMARK    5  A    between atoms: C_12  and  C_13
REMARK    6  A    between atoms: C_21  and  C_23
REMARK    7  A    between atoms: C_23  and  N_24
REMARK    8  A    between atoms: N_27  and  C_30
REMARK    9  A    between atoms: C_34  and  C_36
REMARK                            x       y       z     vdW  Elec       q    Type
REMARK                         _______ _______ _______ _____ _____    ______ ____
ROOT
ATOM      1  C   UNL     1       0.547  11.627   3.916  0.00  0.00    +0.170 C 
ATOM      2  C   UNL     1      -0.311  12.761   4.407  0.00  0.00    +0.234 C 
ATOM      3  O   UNL     1      -0.146  13.162   5.540  0.00  0.00    -0.274 OA
ATOM      4  N   UNL     1      -1.243  13.346   3.654  0.00  0.00    -0.312 N 
ATOM      5  C   UNL     1      -1.613  12.916   2.313  0.00  0.00    +0.123 C 
ATOM      6  C   UNL     1      -0.480  12.102   1.672  0.00  0.00    +0.127 C 
ATOM      7  N   UNL     1      -0.018  11.112   2.660  0.00  0.00    -0.289 N 
ATOM      8  C   UNL     1      -0.104   9.789   2.419  0.00  0.00    +0.200 C 
ATOM      9  O   UNL     1       0.288   8.995   3.248  0.00  0.00    -0.278 OA
ATOM     10  H   UNL     1      -1.746  14.211   4.113  0.00  0.00    +0.149 HD
ENDROOT
BRANCH   1  11
ATOM     11  C   UNL     1       1.970  12.130   3.670  0.00  0.00    +0.128 C 
BRANCH  11  13
ATOM     12  N   UNL     1       4.158  11.178   3.015  0.00  0.00    -0.285 N 
ATOM     13  C   UNL     1       2.853  10.972   3.282  0.00  0.00    +0.219 C 
ATOM     14  O   UNL     1       2.389   9.853   3.209  0.00  0.00    -0.275 OA
ATOM     15  H   UNL     1       4.559  12.202   2.991  0.00  0.00    +0.155 HD
BRANCH  12  21
ATOM     16  C   UNL     1       6.153  10.260   2.010  0.00  0.00    -0.026 A 
ATOM     17  C   UNL     1       6.987   9.185   1.774  0.00  0.00    +0.005 A 
ATOM     18  C   UNL     1       6.672   7.938   2.280  0.00  0.00    +0.000 A 
ATOM     19  C   UNL     1       5.523   7.764   3.031  0.00  0.00    +0.002 A 
ATOM     20  C   UNL     1       4.688   8.836   3.276  0.00  0.00    +0.023 A 
ATOM     21  C   UNL     1       5.002  10.090   2.768  0.00  0.00    +0.037 A 
BRANCH  16  23
ATOM     22  C   UNL     1       7.246  12.430   2.507  0.00  0.00    +0.009 C 
ATOM     23  C   UNL     1       6.494  11.617   1.451  0.00  0.00    +0.033 C 
ENDBRANCH  16  23
ENDBRANCH  12  21
ENDBRANCH  11  13
ENDBRANCH   1  11
BRANCH   8  24
ATOM     24  C   UNL     1      -0.689   9.295   1.121  0.00  0.00    +0.019 C 
BRANCH  24  25
ATOM     25  N   UNL     1      -0.671   7.827   1.103  0.00  0.00    +0.387 N 
ATOM     26  C   UNL     1      -1.443   7.304  -0.033  0.00  0.00    -0.059 C 
ATOM     27  C   UNL     1      -1.466   5.775   0.029  0.00  0.00    +0.086 C 
ATOM     28  N   UNL     1      -0.088   5.266   0.004  0.00  0.00    -0.333 N 
ATOM     29  C   UNL     1       0.684   5.788   1.140  0.00  0.00    +0.086 C 
ATOM     30  C   UNL     1       0.707   7.317   1.078  0.00  0.00    -0.059 C 
ATOM     31  H   UNL     1      -1.147   7.473   2.029  0.00  0.00    -0.081 HD
BRANCH  28  32
ATOM     32  C   UNL     1      -0.071   3.869  -0.013  0.00  0.00    +0.030 A 
ATOM     33  C   UNL     1      -1.264   3.158  -0.006  0.00  0.00    +0.023 A 
ATOM     34  C   UNL     1      -1.244   1.778  -0.029  0.00  0.00    +0.002 A 
ATOM     35  C   UNL     1      -0.037   1.103  -0.048  0.00  0.00    +0.012 A 
ATOM     36  C   UNL     1       1.153   1.807  -0.055  0.00  0.00    +0.057 A 
ATOM     37  C   UNL     1       1.140   3.188  -0.038  0.00  0.00    +0.035 A 
BRANCH  36  38
ATOM     38  C   UNL     1       2.466   1.067  -0.082  0.00  0.00    +0.417 C 
ATOM     39  F   UNL     1       2.224  -0.310  -0.097  0.00  0.00    -0.166 F 
ATOM     40  F   UNL     1       3.180   1.428  -1.230  0.00  0.00    -0.166 F 
ATOM     41  F   UNL     1       3.211   1.398   1.054  0.00  0.00    -0.166 F 
ENDBRANCH  36  38
ENDBRANCH  28  32
ENDBRANCH  24  25
ENDBRANCH   8  24
TORSDOF 8
