REMARK  Name = ZINC13474017
REMARK  9 active torsions:
REMARK  status: ('A' for Active; 'I' for Inactive)
REMARK    1  A    between atoms: C_1  and  C_2
REMARK    2  A    between atoms: C_4  and  O_21
REMARK    3  A    between atoms: C_6  and  O_9
REMARK    4  A    between atoms: O_9  and  C_10
REMARK    5  A    between atoms: C_14  and  N_16
REMARK    6  A    between atoms: N_16  and  S_17
REMARK    7  A    between atoms: S_17  and  C_20
REMARK    8  A    between atoms: O_21  and  C_22
REMARK    9  A    between atoms: C_26  and  C_28
REMARK                            x       y       z     vdW  Elec       q    Type
REMARK                         _______ _______ _______ _____ _____    ______ ____
ROOT
ATOM      1  C   UNL     1      -1.451  -0.121  -1.442  0.00  0.00    +0.050 C 
ATOM      2  C   UNL     1      -1.776   0.819  -0.310  0.00  0.00    +0.030 A 
ATOM      3  C   UNL     1      -2.831   0.555   0.551  0.00  0.00    +0.191 A 
ATOM      4  C   UNL     1      -3.099   1.441   1.587  0.00  0.00    +0.260 A 
ATOM      5  N   UNL     1      -2.367   2.531   1.751  0.00  0.00    -0.172 NA
ATOM      6  C   UNL     1      -1.357   2.816   0.945  0.00  0.00    +0.260 A 
ATOM      7  C   UNL     1      -1.030   1.971  -0.108  0.00  0.00    +0.191 A 
ATOM      8  F   UNL     1       0.004   2.268  -0.927  0.00  0.00    -0.200 F 
ATOM      9  F   UNL     1      -3.586  -0.553   0.387  0.00  0.00    -0.200 F 
ENDROOT
BRANCH   6  10
ATOM     10  O   UNL     1      -0.633   3.946   1.150  0.00  0.00    -0.436 OA
BRANCH  10  11
ATOM     11  C   UNL     1      -1.062   4.815   2.102  0.00  0.00    +0.132 A 
ATOM     12  C   UNL     1      -2.397   4.824   2.483  0.00  0.00    +0.046 A 
ATOM     13  C   UNL     1      -2.836   5.707   3.450  0.00  0.00    +0.005 A 
ATOM     14  C   UNL     1      -1.948   6.585   4.042  0.00  0.00    +0.025 A 
ATOM     15  C   UNL     1      -0.610   6.580   3.666  0.00  0.00    +0.051 A 
ATOM     16  C   UNL     1      -0.167   5.689   2.697  0.00  0.00    +0.070 A 
BRANCH  15  17
ATOM     17  N   UNL     1       0.288   7.466   4.264  0.00  0.00    -0.221 N 
ATOM     18  H   UNL     1       0.922   7.957   3.718  0.00  0.00    +0.173 HD
BRANCH  17  19
ATOM     19  S   UNL     1       0.270   7.680   5.906  0.00  0.00    +0.040 S 
ATOM     20  O   UNL     1       1.278   8.650   6.156  0.00  0.00    -0.155 OA
ATOM     21  O   UNL     1      -1.089   7.951   6.222  0.00  0.00    -0.155 OA
ATOM     22  C   UNL     1       0.763   6.075   6.591  0.00  0.00    +0.218 C 
ENDBRANCH  17  19
ENDBRANCH  15  17
ENDBRANCH  10  11
ENDBRANCH   6  10
BRANCH   4  23
ATOM     23  O   UNL     1      -4.126   1.188   2.438  0.00  0.00    -0.436 OA
BRANCH  23  24
ATOM     24  C   UNL     1      -4.261   1.985   3.530  0.00  0.00    +0.131 A 
ATOM     25  C   UNL     1      -3.152   2.630   4.060  0.00  0.00    +0.046 A 
ATOM     26  C   UNL     1      -3.284   3.442   5.170  0.00  0.00    +0.004 A 
ATOM     27  C   UNL     1      -4.520   3.617   5.760  0.00  0.00    +0.011 A 
ATOM     28  C   UNL     1      -5.640   2.973   5.234  0.00  0.00    +0.016 A 
ATOM     29  C   UNL     1      -5.507   2.159   4.111  0.00  0.00    +0.057 A 
BRANCH  28  30
ATOM     30  C   UNL     1      -6.968   3.159   5.864  0.00  0.00    +0.094 C 
ATOM     31  N   UNL     1      -7.098   3.970   6.970  0.00  0.00    -0.345 N 
ATOM     32  H   UNL     1      -8.924   2.616   5.713  0.00  0.00    +0.157 HD
ATOM     33  H   UNL     1      -6.320   4.418   7.337  0.00  0.00    +0.144 HD
ATOM     34  H   UNL     1      -7.967   4.091   7.383  0.00  0.00    +0.144 HD
ATOM     35  N   UNL     1      -7.989   2.520   5.315  0.00  0.00    -0.387 N 
ATOM     36  H   UNL     1      -7.841   1.927   4.490  0.00  0.00    +0.157 HD
ENDBRANCH  28  30
ENDBRANCH  23  24
ENDBRANCH   4  23
TORSDOF 7
