REMARK  Name = ZINC31811448
REMARK  6 active torsions:
REMARK  status: ('A' for Active; 'I' for Inactive)
REMARK    1  A    between atoms: C_1  and  N_2
REMARK    2  A    between atoms: C_7  and  N_25
REMARK    3  A    between atoms: C_11  and  N_24
REMARK    4  A    between atoms: C_12  and  C_14
REMARK    5  A    between atoms: N_16  and  C_17
REMARK    6  A    between atoms: C_17  and  C_18
REMARK                            x       y       z     vdW  Elec       q    Type
REMARK                         _______ _______ _______ _____ _____    ______ ____
ROOT
ATOM      1  C   UNL     1      -8.953   1.089  -1.583  0.00  0.00    +0.105 C 
ATOM      2  N   UNL     1      -7.527   1.385  -1.390  0.00  0.00    -0.301 NA
ATOM      3  C   UNL     1      -6.910   0.424  -0.461  0.00  0.00    +0.089 C 
ATOM      4  C   UNL     1      -5.390   0.554  -0.569  0.00  0.00    +0.051 C 
ATOM      5  C   UNL     1      -4.990   2.001  -0.458  0.00  0.00    -0.027 A 
ATOM      6  C   UNL     1      -5.879   3.014  -0.619  0.00  0.00    +0.009 A 
ATOM      7  C   UNL     1      -5.449   4.344  -0.513  0.00  0.00    +0.104 A 
ATOM      8  N   UNL     1      -4.182   4.625  -0.254  0.00  0.00    -0.337 N 
ATOM      9  C   UNL     1      -3.292   3.670  -0.088  0.00  0.00    +0.089 A 
ATOM     10  C   UNL     1      -3.630   2.301  -0.177  0.00  0.00    +0.031 A 
ATOM     11  C   UNL     1      -2.525   1.378   0.028  0.00  0.00    +0.054 A 
ATOM     12  C   UNL     1      -1.277   1.901   0.294  0.00  0.00    +0.097 A 
ATOM     13  S   UNL     1      -1.552   3.661   0.264  0.00  0.00    -0.064 S 
ATOM     14  C   UNL     1      -7.335   2.755  -0.905  0.00  0.00    +0.123 C 
ATOM     15  H   UNL     1      -3.856   5.672  -0.173  0.00  0.00    +0.168 HD
ENDROOT
BRANCH   7  16
ATOM     16  N   UNL     1      -6.360   5.376  -0.681  0.00  0.00    -0.312 N 
ATOM     17  C   UNL     1      -5.992   6.222  -1.826  0.00  0.00    +0.134 C 
ATOM     18  C   UNL     1      -7.054   7.309  -2.012  0.00  0.00    +0.178 C 
ATOM     19  O   UNL     1      -7.177   8.060  -0.801  0.00  0.00    -0.377 OA
ATOM     20  C   UNL     1      -7.535   7.268   0.334  0.00  0.00    +0.178 C 
ATOM     21  C   UNL     1      -6.479   6.180   0.544  0.00  0.00    +0.134 C 
ENDBRANCH   7  16
BRANCH  12  22
ATOM     22  C   UNL     1      -0.066   1.206   0.529  0.00  0.00    +0.253 C 
ATOM     23  O   UNL     1      -0.051  -0.012   0.514  0.00  0.00    -0.270 OA
ATOM     24  N   UNL     1       1.070   1.891   0.764  0.00  0.00    -0.308 N 
ATOM     25  H   UNL     1       1.056   2.991   0.777  0.00  0.00    +0.149 HD
BRANCH  24  26
ATOM     26  C   UNL     1       2.324   1.172   1.001  0.00  0.00    +0.136 C 
BRANCH  26  27
ATOM     27  C   UNL     1       3.452   2.178   1.239  0.00  0.00    +0.135 C 
ATOM     28  C   UNL     1       4.806   1.447   1.367  0.00  0.00    +0.035 C 
ATOM     29  C   UNL     1       5.562   2.244   2.454  0.00  0.00    +0.031 C 
ATOM     30  C   UNL     1       4.574   3.363   2.854  0.00  0.00    +0.160 C 
ATOM     31  O   UNL     1       3.271   2.846   2.507  0.00  0.00    -0.375 OA
ENDBRANCH  26  27
ENDBRANCH  24  26
ENDBRANCH  12  22
BRANCH  11  32
ATOM     32  N   UNL     1      -2.722   0.006  -0.040  0.00  0.00    -0.356 N 
ATOM     33  H   UNL     1      -1.876  -0.679   0.117  0.00  0.00    +0.142 HD
ATOM     34  H   UNL     1      -3.724  -0.396  -0.251  0.00  0.00    +0.142 HD
ENDBRANCH  11  32
TORSDOF 5
