REMARK  Name = ZINC40629927
REMARK  7 active torsions:
REMARK  status: ('A' for Active; 'I' for Inactive)
REMARK    1  A    between atoms: C_1  and  C_2
REMARK    2  A    between atoms: C_2  and  C_30
REMARK    3  A    between atoms: C_4  and  N_10
REMARK    4  A    between atoms: C_6  and  C_8
REMARK    5  A    between atoms: C_6  and  C_9
REMARK    6  A    between atoms: C_12  and  N_27
REMARK    7  A    between atoms: C_13  and  N_17
REMARK                            x       y       z     vdW  Elec       q    Type
REMARK                         _______ _______ _______ _____ _____    ______ ____
ROOT
ATOM      1  N   UNL     1       2.615  -0.819  -2.626  0.00  0.00    -0.324 N 
ATOM      2  C   UNL     1       3.803  -0.320  -3.138  0.00  0.00    +0.155 A 
ATOM      3  C   UNL     1       4.310  -0.800  -4.343  0.00  0.00    +0.205 A 
ATOM      4  C   UNL     1       5.505  -0.267  -4.814  0.00  0.00    +0.160 A 
ATOM      5  N   UNL     1       6.117   0.676  -4.100  0.00  0.00    -0.218 NA
ATOM      6  C   UNL     1       5.606   1.104  -2.964  0.00  0.00    +0.225 A 
ATOM      7  N   UNL     1       4.474   0.628  -2.487  0.00  0.00    -0.218 NA
ATOM      8  H   UNL     1       2.133  -1.510  -3.106  0.00  0.00    +0.148 HD
ENDROOT
BRANCH   1  12
ATOM      9  C   UNL     1      -0.019   1.528   0.010  0.00  0.00    -0.010 C 
ATOM     10  C   UNL     1       0.002  -0.004   0.002  0.00  0.00    -0.072 C 
ATOM     11  C   UNL     1       0.573  -0.505  -1.321  0.00  0.00    +0.009 C 
ATOM     12  C   UNL     1       2.088  -0.301  -1.357  0.00  0.00    +0.069 C 
ATOM     13  C   UNL     1       2.703  -1.086  -0.198  0.00  0.00    +0.009 C 
ATOM     14  C   UNL     1       2.147  -0.590   1.133  0.00  0.00    -0.072 C 
ATOM     15  N   UNL     1       0.697  -0.529   1.164  0.00  0.00    +0.386 N 
ATOM     16  C   UNL     1       2.769   0.766   1.481  0.00  0.00    -0.010 C 
ATOM     17  C   UNL     1       2.600  -1.589   2.223  0.00  0.00    -0.010 C 
ATOM     18  C   UNL     1      -1.468  -0.478   0.079  0.00  0.00    -0.010 C 
ATOM     19  H   UNL     1       0.416   0.021   1.982  0.00  0.00    -0.084 HD
ATOM     20  H   UNL     1       0.341  -1.472   1.351  0.00  0.00    -0.084 HD
ENDBRANCH   1  12
BRANCH   4  21
ATOM     21  N   UNL     1       6.052  -0.712  -6.010  0.00  0.00    -0.277 N 
ATOM     22  C   UNL     1       7.240  -0.175  -6.469  0.00  0.00    +0.165 A 
ATOM     23  N   UNL     1       7.994   0.749  -5.918  0.00  0.00    -0.225 NA
ATOM     24  C   UNL     1       9.141   1.182  -6.484  0.00  0.00    +0.080 A 
ATOM     25  C   UNL     1      10.038   2.162  -6.000  0.00  0.00    +0.029 A 
ATOM     26  C   UNL     1      11.167   2.487  -6.705  0.00  0.00    +0.002 A 
ATOM     27  C   UNL     1      11.472   1.872  -7.910  0.00  0.00    +0.001 A 
ATOM     28  C   UNL     1      10.617   0.908  -8.413  0.00  0.00    +0.017 A 
ATOM     29  C   UNL     1       9.484   0.576  -7.714  0.00  0.00    +0.041 A 
ATOM     30  S   UNL     1       8.146  -0.567  -7.959  0.00  0.00    -0.052 S 
ATOM     31  H   UNL     1       5.600  -1.399  -6.524  0.00  0.00    +0.156 HD
ENDBRANCH   4  21
BRANCH   3  32
ATOM     32  N   UNL     1       3.595  -1.850  -5.102  0.00  0.00    +0.063 N 
ATOM     33  O   UNL     1       2.770  -1.541  -5.930  0.00  0.00    -0.126 OA
ATOM     34  O   UNL     1       3.836  -3.016  -4.895  0.00  0.00    -0.126 OA
ENDBRANCH   3  32
TORSDOF 3
