REMARK  Name = ZINC12483670
REMARK  10 active torsions:
REMARK  status: ('A' for Active; 'I' for Inactive)
REMARK    1  A    between atoms: C_1  and  C_2
REMARK    2  A    between atoms: C_2  and  N_53
REMARK    3  A    between atoms: C_3  and  C_4
REMARK    4  A    between atoms: C_3  and  N_53
REMARK    5  A    between atoms: C_5  and  N_53
REMARK    6  A    between atoms: C_7  and  O_30
REMARK    7  A    between atoms: C_9  and  N_18
REMARK    8  A    between atoms: N_21  and  C_22
REMARK    9  A    between atoms: C_25  and  O_28
REMARK   10  A    between atoms: O_28  and  C_29
REMARK                            x       y       z     vdW  Elec       q    Type
REMARK                         _______ _______ _______ _____ _____    ______ ____
ROOT
ATOM      1  C   UNL     1       7.066   5.758  -1.185  0.00  0.00    +0.019 C 
ATOM      2  C   UNL     1       5.674   6.185  -0.707  0.00  0.00    +0.129 C 
ATOM      3  C   UNL     1       4.609   5.415  -1.496  0.00  0.00    +0.132 C 
ATOM      4  C   UNL     1       4.899   5.580  -2.997  0.00  0.00    +0.169 C 
ATOM      5  C   UNL     1       5.217   7.072  -3.254  0.00  0.00    +0.196 C 
ATOM      6  O   UNL     1       6.641   7.181  -3.084  0.00  0.00    -0.350 OA
ATOM      7  C   UNL     1       7.122   5.876  -2.716  0.00  0.00    +0.240 C 
ATOM      8  O   UNL     1       6.170   4.935  -3.260  0.00  0.00    -0.345 OA
ENDROOT
BRANCH   3   9
ATOM      9  N   UNL     1       4.661   3.996  -1.137  0.00  0.00    -0.291 N 
ATOM     10  C   UNL     1       3.566   3.224  -1.281  0.00  0.00    +0.304 C 
ATOM     11  O   UNL     1       2.534   3.706  -1.708  0.00  0.00    -0.252 OA
ATOM     12  N   UNL     1       3.614   1.918  -0.952  0.00  0.00    -0.269 N 
ATOM     13  H   UNL     1       5.484   3.612  -0.797  0.00  0.00    +0.151 HD
ATOM     14  H   UNL     1       4.414   1.549  -0.546  0.00  0.00    +0.156 HD
BRANCH  12  15
ATOM     15  C   UNL     1       2.507   1.093  -1.194  0.00  0.00    +0.035 A 
ATOM     16  C   UNL     1       1.221   1.601  -1.070  0.00  0.00    +0.027 A 
ATOM     17  C   UNL     1       0.131   0.788  -1.309  0.00  0.00    +0.047 A 
ATOM     18  C   UNL     1       0.321  -0.537  -1.673  0.00  0.00    +0.120 A 
ATOM     19  C   UNL     1       1.605  -1.046  -1.796  0.00  0.00    +0.047 A 
ATOM     20  C   UNL     1       2.696  -0.234  -1.558  0.00  0.00    +0.027 A 
BRANCH  18  21
ATOM     21  O   UNL     1      -0.753  -1.338  -1.907  0.00  0.00    -0.495 OA
ATOM     22  C   UNL     1      -0.484  -2.692  -2.278  0.00  0.00    +0.277 C 
ENDBRANCH  18  21
ENDBRANCH  12  15
ENDBRANCH   3   9
BRANCH   2  23
ATOM     23  O   UNL     1       5.505   7.588  -0.921  0.00  0.00    -0.391 OA
ATOM     24  H   UNL     1       4.644   7.927  -0.642  0.00  0.00    +0.210 HD
ENDBRANCH   2  23
BRANCH   1  25
ATOM     25  N   UNL     1       7.297   4.350  -0.798  0.00  0.00    +0.386 N 
ATOM     26  H   UNL     1       6.557   3.766  -1.206  0.00  0.00    -0.081 HD
BRANCH  25  28
ATOM     27  C   UNL     1       8.668   2.368  -1.211  0.00  0.00    -0.017 C 
ATOM     28  C   UNL     1       8.606   3.893  -1.310  0.00  0.00    -0.082 C 
ENDBRANCH  25  28
BRANCH  25  29
ATOM     29  C   UNL     1       7.256   4.218   0.674  0.00  0.00    -0.082 C 
ATOM     30  C   UNL     1       8.222   5.207   1.328  0.00  0.00    -0.017 C 
ENDBRANCH  25  29
ENDBRANCH   1  25
TORSDOF 7
