REMARK  Name = ZINC28821869
REMARK  8 active torsions:
REMARK  status: ('A' for Active; 'I' for Inactive)
REMARK    1  A    between atoms: C_3  and  N_9
REMARK    2  A    between atoms: N_9  and  C_10
REMARK    3  A    between atoms: N_14  and  C_20
REMARK    4  A    between atoms: C_16  and  C_17
REMARK    5  A    between atoms: C_20  and  C_21
REMARK    6  A    between atoms: C_21  and  C_23
REMARK    7  A    between atoms: C_21  and  O_25
REMARK    8  A    between atoms: C_23  and  O_24
REMARK                            x       y       z     vdW  Elec       q    Type
REMARK                         _______ _______ _______ _____ _____    ______ ____
ROOT
ATOM      1  C   UNL     1      -2.073   2.177  -3.375  0.00  0.00    +0.050 A 
ATOM      2  C   UNL     1      -0.931   2.584  -2.707  0.00  0.00    +0.094 A 
ATOM      3  C   UNL     1      -0.670   2.077  -1.431  0.00  0.00    +0.253 A 
ATOM      4  O   UNL     1       0.337   2.433  -0.840  0.00  0.00    -0.268 OA
ATOM      5  N   UNL     1      -1.504   1.204  -0.843  0.00  0.00    -0.312 N 
ATOM      6  C   UNL     1      -2.626   0.770  -1.447  0.00  0.00    +0.104 A 
ATOM      7  C   UNL     1      -2.965   1.222  -2.705  0.00  0.00    +0.074 A 
ENDROOT
BRANCH   7   8
ATOM      8  C   UNL     1      -4.194   0.752  -3.365  0.00  0.00    +0.245 C 
ATOM      9  O   UNL     1      -4.543   1.244  -4.421  0.00  0.00    -0.270 OA
ATOM     10  N   UNL     1      -4.932  -0.223  -2.800  0.00  0.00    -0.325 N 
ATOM     11  H   UNL     1      -5.850  -0.575  -3.293  0.00  0.00    +0.145 HD
ATOM     12  H   UNL     1      -4.616  -0.668  -1.844  0.00  0.00    +0.145 HD
ENDBRANCH   7   8
BRANCH   1  13
ATOM     13  N   UNL     1      -2.365   2.655  -4.637  0.00  0.00    -0.311 N 
ATOM     14  H   UNL     1      -2.561   3.728  -4.787  0.00  0.00    +0.152 HD
BRANCH  13  17
ATOM     15  C   UNL     1      -2.078  -0.414  -6.642  0.00  0.00    +0.016 A 
ATOM     16  C   UNL     1      -2.029   0.452  -5.566  0.00  0.00    +0.027 A 
ATOM     17  C   UNL     1      -2.413   1.776  -5.724  0.00  0.00    +0.067 A 
ATOM     18  C   UNL     1      -2.851   2.227  -6.966  0.00  0.00    +0.145 A 
ATOM     19  C   UNL     1      -2.892   1.356  -8.039  0.00  0.00    +0.054 A 
ATOM     20  C   UNL     1      -2.508   0.037  -7.876  0.00  0.00    +0.016 A 
ATOM     21  I   UNL     1      -2.578  -1.281  -9.504  0.00  0.00    -0.044 I 
ATOM     22  F   UNL     1      -3.231   3.513  -7.123  0.00  0.00    -0.204 F 
ENDBRANCH  13  17
ENDBRANCH   1  13
BRANCH   5  23
ATOM     23  C   UNL     1      -1.181   0.705   0.495  0.00  0.00    +0.158 C 
BRANCH  23  24
ATOM     24  C   UNL     1      -1.801   1.626   1.548  0.00  0.00    +0.160 C 
BRANCH  24  25
ATOM     25  O   UNL     1      -1.277   2.946   1.392  0.00  0.00    -0.388 OA
ATOM     26  H   UNL     1      -1.608   3.752   2.064  0.00  0.00    +0.210 HD
ENDBRANCH  24  25
BRANCH  24  27
ATOM     27  C   UNL     1      -1.463   1.104   2.946  0.00  0.00    +0.188 C 
BRANCH  27  28
ATOM     28  O   UNL     1      -2.137   1.896   3.925  0.00  0.00    -0.392 OA
ATOM     29  H   UNL     1      -2.014   1.670   4.995  0.00  0.00    +0.210 HD
ENDBRANCH  27  28
ENDBRANCH  24  27
ENDBRANCH  23  24
ENDBRANCH   5  23
TORSDOF 8
