REMARK  Name = ZINC63161113
REMARK  8 active torsions:
REMARK  status: ('A' for Active; 'I' for Inactive)
REMARK    1  A    between atoms: C_4  and  C_7
REMARK    2  A    between atoms: C_7  and  O_8
REMARK    3  A    between atoms: O_8  and  C_9
REMARK    4  A    between atoms: N_11  and  C_12
REMARK    5  A    between atoms: C_12  and  C_14
REMARK    6  A    between atoms: C_12  and  C_24
REMARK    7  A    between atoms: C_14  and  C_15
REMARK    8  A    between atoms: C_30  and  N_33
REMARK                            x       y       z     vdW  Elec       q    Type
REMARK                         _______ _______ _______ _____ _____    ______ ____
ROOT
ATOM      1  C   UNL     1       6.977  -2.556   2.797  0.00  0.00    +0.166 C 
ENDROOT
BRANCH   1   2
ATOM      2  C   UNL     1       7.535  -2.103   4.122  0.00  0.00    +0.239 C 
ATOM      3  O   UNL     1       6.951  -1.261   4.770  0.00  0.00    -0.273 OA
ATOM      4  N   UNL     1       8.684  -2.633   4.586  0.00  0.00    -0.269 N 
ATOM      5  C   UNL     1       9.254  -2.142   5.763  0.00  0.00    +0.125 A 
ATOM      6  C   UNL     1      10.494  -2.617   6.176  0.00  0.00    +0.045 A 
ATOM      7  C   UNL     1      11.050  -2.125   7.342  0.00  0.00    +0.028 A 
ATOM      8  C   UNL     1      10.340  -1.165   8.062  0.00  0.00    +0.048 A 
ATOM      9  C   UNL     1       9.108  -0.738   7.588  0.00  0.00    +0.136 A 
ATOM     10  N   UNL     1       8.611  -1.226   6.468  0.00  0.00    -0.238 NA
ATOM     11  H   UNL     1       9.115  -3.355   4.103  0.00  0.00    +0.156 HD
BRANCH   8  12
ATOM     12  N   UNL     1      10.864  -0.639   9.248  0.00  0.00    -0.324 N 
ATOM     13  C   UNL     1      12.225  -0.980   9.693  0.00  0.00    +0.133 C 
ATOM     14  C   UNL     1      12.969   0.321  10.016  0.00  0.00    +0.178 C 
ATOM     15  O   UNL     1      12.182   1.100  10.920  0.00  0.00    -0.377 OA
ATOM     16  C   UNL     1      10.919   1.512  10.392  0.00  0.00    +0.178 C 
ATOM     17  C   UNL     1      10.073   0.277  10.085  0.00  0.00    +0.133 C 
ENDBRANCH   8  12
ENDBRANCH   1   2
BRANCH   1  20
ATOM     18  C   UNL     1       5.360  -1.600   1.246  0.00  0.00    +0.401 C 
ATOM     19  O   UNL     1       6.057  -1.986   0.328  0.00  0.00    -0.226 OA
ATOM     20  N   UNL     1       5.732  -1.836   2.520  0.00  0.00    -0.269 N 
ATOM     21  H   UNL     1       5.176  -1.528   3.252  0.00  0.00    +0.153 HD
BRANCH  18  22
ATOM     22  O   UNL     1       4.215  -0.938   0.991  0.00  0.00    -0.446 OA
BRANCH  22  23
ATOM     23  C   UNL     1       3.882  -0.724  -0.382  0.00  0.00    +0.269 C 
BRANCH  23  27
ATOM     24  C   UNL     1       0.188   1.404  -0.638  0.00  0.00    +0.000 A 
ATOM     25  C   UNL     1       1.382   2.098  -0.578  0.00  0.00    +0.000 A 
ATOM     26  C   UNL     1       2.578   1.409  -0.495  0.00  0.00    +0.007 A 
ATOM     27  C   UNL     1       2.579   0.027  -0.472  0.00  0.00    -0.010 A 
ATOM     28  C   UNL     1       1.385  -0.667  -0.531  0.00  0.00    +0.007 A 
ATOM     29  C   UNL     1       0.189   0.022  -0.615  0.00  0.00    +0.000 A 
ENDBRANCH  23  27
ENDBRANCH  22  23
ENDBRANCH  18  22
ENDBRANCH   1  20
BRANCH   1  30
ATOM     30  C   UNL     1       6.696  -4.059   2.850  0.00  0.00    +0.065 C 
BRANCH  30  31
ATOM     31  C   UNL     1       5.651  -4.338   3.899  0.00  0.00    -0.039 C 
ATOM     32  C   UNL     1       4.316  -4.452   3.707  0.00  0.00    -0.001 A 
ATOM     33  C   UNL     1       3.472  -4.354   2.511  0.00  0.00    +0.010 A 
ATOM     34  C   UNL     1       2.135  -4.518   2.636  0.00  0.00    +0.001 A 
ATOM     35  C   UNL     1       1.538  -4.778   3.877  0.00  0.00    +0.002 A 
ATOM     36  C   UNL     1       2.248  -4.883   5.020  0.00  0.00    +0.026 A 
ATOM     37  C   UNL     1       3.661  -4.729   5.006  0.00  0.00    +0.043 A 
ATOM     38  N   UNL     1       4.555  -4.783   5.963  0.00  0.00    -0.380 N 
ATOM     39  C   UNL     1       5.881  -4.553   5.378  0.00  0.00    +0.144 C 
ATOM     40  H   UNL     1       4.371  -4.952   6.900  0.00  0.00    +0.160 HD
ENDBRANCH  30  31
ENDBRANCH   1  30
TORSDOF 8
