REMARK  Name = ZINC66939327
REMARK  6 active torsions:
REMARK  status: ('A' for Active; 'I' for Inactive)
REMARK    1  A    between atoms: C_1  and  C_2
REMARK    2  A    between atoms: C_2  and  C_4
REMARK    3  A    between atoms: C_2  and  N_15
REMARK    4  A    between atoms: N_15  and  C_16
REMARK    5  A    between atoms: C_16  and  C_18
REMARK    6  A    between atoms: C_16  and  C_25
REMARK                            x       y       z     vdW  Elec       q    Type
REMARK                         _______ _______ _______ _____ _____    ______ ____
ROOT
ATOM      1  N   UNL     1       0.713  -0.491   1.192  0.00  0.00    +0.394 N 
ATOM      2  H   UNL     1       0.798  -1.495   1.145  0.00  0.00    -0.083 HD
ATOM      3  H   UNL     1       1.632  -0.076   1.228  0.00  0.00    -0.083 HD
ENDROOT
BRANCH   1   5
ATOM      4  C   UNL     1      -0.019   1.526   0.010  0.00  0.00    -0.009 C 
ATOM      5  C   UNL     1       0.002  -0.004   0.002  0.00  0.00    -0.043 C 
BRANCH   5   6
ATOM      6  C   UNL     1       0.707  -0.490  -1.238  0.00  0.00    -0.060 A 
ATOM      7  C   UNL     1       2.089  -0.510  -1.282  0.00  0.00    +0.006 A 
ATOM      8  C   UNL     1       2.744  -0.956  -2.415  0.00  0.00    +0.048 A 
ATOM      9  C   UNL     1       2.014  -1.383  -3.510  0.00  0.00    +0.142 A 
ATOM     10  C   UNL     1       0.621  -1.362  -3.467  0.00  0.00    +0.076 A 
ATOM     11  C   UNL     1      -0.029  -0.920  -2.326  0.00  0.00    +0.029 A 
ATOM     12  N   UNL     1      -0.107  -1.795  -4.584  0.00  0.00    -0.280 N 
ATOM     13  C   UNL     1       0.526  -2.508  -5.541  0.00  0.00    +0.255 C 
ATOM     14  O   UNL     1      -0.076  -2.866  -6.532  0.00  0.00    -0.272 OA
ATOM     15  C   UNL     1       1.983  -2.856  -5.374  0.00  0.00    +0.325 C 
ATOM     16  O   UNL     1       2.641  -1.825  -4.633  0.00  0.00    -0.481 OA
ATOM     17  H   UNL     1      -1.050  -1.586  -4.668  0.00  0.00    +0.155 HD
ENDBRANCH   5   6
ENDBRANCH   1   5
BRANCH   1  18
ATOM     18  C   UNL     1      -0.040  -0.119   2.398  0.00  0.00    +0.047 C 
BRANCH  18  19
ATOM     19  C   UNL     1       0.748  -0.509   3.622  0.00  0.00    -0.053 A 
ATOM     20  C   UNL     1       1.440  -1.706   3.645  0.00  0.00    +0.005 A 
ATOM     21  C   UNL     1       2.163  -2.064   4.767  0.00  0.00    +0.038 A 
ATOM     22  C   UNL     1       2.194  -1.225   5.868  0.00  0.00    +0.123 A 
ATOM     23  C   UNL     1       1.500  -0.027   5.843  0.00  0.00    +0.038 A 
ATOM     24  C   UNL     1       0.782   0.332   4.718  0.00  0.00    +0.005 A 
ATOM     25  F   UNL     1       2.901  -1.575   6.965  0.00  0.00    -0.205 F 
ENDBRANCH  18  19
BRANCH  18  26
ATOM     26  C   UNL     1      -1.365  -0.836   2.404  0.00  0.00    +0.201 C 
ATOM     27  O   UNL     1      -1.655  -1.583   1.493  0.00  0.00    -0.277 OA
ATOM     28  N   UNL     1      -2.229  -0.647   3.421  0.00  0.00    -0.330 N 
ATOM     29  H   UNL     1      -1.998  -0.049   4.149  0.00  0.00    +0.145 HD
ATOM     30  H   UNL     1      -3.082  -1.108   3.425  0.00  0.00    +0.145 HD
ENDBRANCH  18  26
ENDBRANCH   1  18
TORSDOF 5
