REMARK  Name = ZINC20465794
REMARK  13 active torsions:
REMARK  status: ('A' for Active; 'I' for Inactive)
REMARK    1  A    between atoms: C_1  and  C_2
REMARK    2  A    between atoms: C_2  and  C_3
REMARK    3  A    between atoms: C_2  and  N_4
REMARK    4  A    between atoms: N_7  and  C_8
REMARK    5  A    between atoms: C_8  and  C_9
REMARK    6  A    between atoms: C_11  and  N_21
REMARK    7  A    between atoms: C_13  and  O_20
REMARK    8  A    between atoms: C_15  and  C_18
REMARK    9  A    between atoms: C_18  and  O_19
REMARK   10  A    between atoms: N_21  and  C_22
REMARK   11  A    between atoms: N_21  and  C_23
REMARK   12  A    between atoms: C_23  and  C_24
REMARK   13  A    between atoms: C_24  and  C_25
REMARK                            x       y       z     vdW  Elec       q    Type
REMARK                         _______ _______ _______ _____ _____    ______ ____
ROOT
ATOM      1  C   UNL     1       2.761   1.224  -0.354  0.00  0.00    +0.125 C 
ATOM      2  C   UNL     1       4.305   1.234  -0.291  0.00  0.00    -0.006 C 
ATOM      3  C   UNL     1       4.644   2.580   0.388  0.00  0.00    +0.134 C 
ATOM      4  C   UNL     1       3.266   3.224   0.654  0.00  0.00    +0.171 C 
ATOM      5  O   UNL     1       2.343   2.114   0.704  0.00  0.00    -0.369 OA
ENDROOT
BRANCH   2   6
ATOM      6  N   UNL     1       4.794   0.111   0.520  0.00  0.00    +0.383 N 
ATOM      7  C   UNL     1       4.229   0.155   1.875  0.00  0.00    -0.096 C 
ATOM      8  H   UNL     1       4.457  -0.822   0.044  0.00  0.00    -0.082 HD
BRANCH   6   9
ATOM      9  C   UNL     1       6.262   0.092   0.562  0.00  0.00    -0.074 C 
BRANCH   9  10
ATOM     10  C   UNL     1       6.737  -1.216   1.197  0.00  0.00    +0.016 C 
BRANCH  10  11
ATOM     11  C   UNL     1       8.244  -1.236   1.240  0.00  0.00    -0.049 A 
ATOM     12  C   UNL     1       8.959  -1.765   0.182  0.00  0.00    +0.003 A 
ATOM     13  C   UNL     1      10.341  -1.779   0.220  0.00  0.00    +0.000 A 
ATOM     14  C   UNL     1      11.007  -1.272   1.320  0.00  0.00    +0.000 A 
ATOM     15  C   UNL     1      10.292  -0.747   2.380  0.00  0.00    +0.000 A 
ATOM     16  C   UNL     1       8.910  -0.729   2.340  0.00  0.00    +0.003 A 
ENDBRANCH  10  11
ENDBRANCH   9  10
ENDBRANCH   6   9
ENDBRANCH   2   6
BRANCH   3  17
ATOM     17  O   UNL     1       5.340   2.360   1.617  0.00  0.00    -0.391 OA
ATOM     18  H   UNL     1       5.657   3.216   2.230  0.00  0.00    +0.210 HD
ENDBRANCH   3  17
BRANCH   1  19
ATOM     19  C   UNL     1       2.227  -0.188  -0.105  0.00  0.00    +0.135 C 
BRANCH  19  23
ATOM     20  N   UNL     1      -1.241  -1.376  -0.381  0.00  0.00    -0.297 N 
ATOM     21  C   UNL     1       0.089  -1.355  -0.169  0.00  0.00    +0.300 C 
ATOM     22  O   UNL     1       0.668  -2.371   0.164  0.00  0.00    -0.253 OA
ATOM     23  N   UNL     1       0.780  -0.209  -0.330  0.00  0.00    -0.297 N 
ATOM     24  H   UNL     1      -1.765  -0.456  -0.682  0.00  0.00    +0.150 HD
ATOM     25  H   UNL     1       0.256   0.711  -0.631  0.00  0.00    +0.150 HD
BRANCH  20  27
ATOM     26  C   UNL     1      -3.452  -2.300   0.109  0.00  0.00    +0.027 C 
ATOM     27  C   UNL     1      -1.991  -2.623  -0.211  0.00  0.00    +0.068 C 
ATOM     28  C   UNL     1      -1.920  -3.440  -1.503  0.00  0.00    +0.027 C 
ENDBRANCH  20  27
ENDBRANCH  19  23
ENDBRANCH   1  19
BRANCH   4  29
ATOM     29  C   UNL     1       3.276   3.971   1.990  0.00  0.00    +0.190 C 
BRANCH  29  30
ATOM     30  O   UNL     1       2.033   4.655   2.162  0.00  0.00    -0.392 OA
ATOM     31  H   UNL     1       1.854   5.250   3.070  0.00  0.00    +0.210 HD
ENDBRANCH  29  30
ENDBRANCH   4  29
TORSDOF 10
