REMARK  Name = ZINC35091954
REMARK  10 active torsions:
REMARK  status: ('A' for Active; 'I' for Inactive)
REMARK    1  A    between atoms: C_1  and  C_2
REMARK    2  A    between atoms: C_2  and  O_3
REMARK    3  A    between atoms: O_3  and  C_4
REMARK    4  A    between atoms: C_7  and  N_10
REMARK    5  A    between atoms: C_20  and  C_21
REMARK    6  A    between atoms: C_21  and  C_23
REMARK    7  A    between atoms: C_21  and  N_24
REMARK    8  A    between atoms: N_32  and  C_33
REMARK    9  A    between atoms: C_34  and  C_40
REMARK   10  A    between atoms: C_38  and  C_39
REMARK                            x       y       z     vdW  Elec       q    Type
REMARK                         _______ _______ _______ _____ _____    ______ ____
ROOT
ATOM      1  C   UNL     1       2.724  -7.235  -2.834  0.00  0.00    -0.003 C 
ATOM      2  C   UNL     1       2.096  -6.120  -1.996  0.00  0.00    -0.005 C 
ENDROOT
BRANCH   1  13
ATOM      3  N   UNL     1       2.159  -9.403  -1.810  0.00  0.00    -0.266 N 
ATOM      4  C   UNL     1       1.412 -10.525  -1.694  0.00  0.00    +0.266 A 
ATOM      5  O   UNL     1       1.662 -11.367  -0.850  0.00  0.00    -0.267 OA
ATOM      6  C   UNL     1       0.287 -10.690  -2.627  0.00  0.00    +0.065 A 
ATOM      7  C   UNL     1      -0.542 -11.809  -2.590  0.00  0.00    +0.015 A 
ATOM      8  C   UNL     1      -1.583 -11.912  -3.487  0.00  0.00    +0.001 A 
ATOM      9  C   UNL     1      -1.809 -10.912  -4.424  0.00  0.00    +0.002 A 
ATOM     10  C   UNL     1      -1.001  -9.798  -4.477  0.00  0.00    +0.028 A 
ATOM     11  C   UNL     1       0.060  -9.671  -3.578  0.00  0.00    +0.078 A 
ATOM     12  N   UNL     1       0.880  -8.590  -3.594  0.00  0.00    -0.235 NA
ATOM     13  C   UNL     1       1.863  -8.469  -2.755  0.00  0.00    +0.104 A 
BRANCH   3  17
ATOM     14  C   UNL     1       5.384  -8.792   0.762  0.00  0.00    +0.121 A 
ATOM     15  C   UNL     1       4.086  -8.672   1.237  0.00  0.00    +0.047 A 
ATOM     16  C   UNL     1       3.018  -8.874   0.386  0.00  0.00    +0.030 A 
ATOM     17  C   UNL     1       3.243  -9.197  -0.946  0.00  0.00    +0.051 A 
ATOM     18  C   UNL     1       4.542  -9.317  -1.421  0.00  0.00    +0.030 A 
ATOM     19  C   UNL     1       5.610  -9.110  -0.570  0.00  0.00    +0.047 A 
BRANCH  14  20
ATOM     20  O   UNL     1       6.436  -8.593   1.600  0.00  0.00    -0.492 OA
BRANCH  20  22
ATOM     21  C   UNL     1       7.431  -8.084   3.743  0.00  0.00    +0.048 C 
ATOM     22  C   UNL     1       6.130  -8.270   2.958  0.00  0.00    +0.225 C 
ENDBRANCH  20  22
ENDBRANCH  14  20
ENDBRANCH   3  17
ENDBRANCH   1  13
BRANCH   1  23
ATOM     23  N   UNL     1       2.825  -6.798  -4.233  0.00  0.00    +0.388 N 
ATOM     24  C   UNL     1       3.639  -5.578  -4.305  0.00  0.00    -0.059 C 
ATOM     25  C   UNL     1       3.651  -5.058  -5.747  0.00  0.00    +0.091 C 
ATOM     26  N   UNL     1       4.104  -6.143  -6.631  0.00  0.00    -0.289 N 
ATOM     27  C   UNL     1       3.449  -7.455  -6.510  0.00  0.00    +0.091 C 
ATOM     28  C   UNL     1       3.446  -7.862  -5.032  0.00  0.00    -0.059 C 
ATOM     29  C   UNL     1       5.090  -5.941  -7.527  0.00  0.00    +0.306 C 
ATOM     30  O   UNL     1       5.689  -4.883  -7.543  0.00  0.00    -0.252 OA
ATOM     31  N   UNL     1       5.413  -6.912  -8.404  0.00  0.00    -0.269 N 
ATOM     32  H   UNL     1       4.905  -7.738  -8.421  0.00  0.00    +0.156 HD
ATOM     33  H   UNL     1       1.902  -6.605  -4.592  0.00  0.00    -0.081 HD
BRANCH  31  34
ATOM     34  C   UNL     1       6.481  -6.728  -9.289  0.00  0.00    +0.041 A 
ATOM     35  C   UNL     1       6.467  -5.667 -10.185  0.00  0.00    -0.029 A 
ATOM     36  C   UNL     1       7.523  -5.488 -11.057  0.00  0.00    +0.005 A 
ATOM     37  C   UNL     1       8.593  -6.364 -11.039  0.00  0.00    +0.001 A 
ATOM     38  C   UNL     1       8.609  -7.422 -10.149  0.00  0.00    +0.005 A 
ATOM     39  C   UNL     1       7.559  -7.603  -9.270  0.00  0.00    -0.029 A 
ATOM     40  C   UNL     1       7.580  -8.753  -8.296  0.00  0.00    +0.045 C 
ATOM     41  C   UNL     1       5.302  -4.712 -10.205  0.00  0.00    +0.045 C 
ENDBRANCH  31  34
ENDBRANCH   1  23
TORSDOF 6
