REMARK  Name = ZINC02434748
REMARK  10 active torsions:
REMARK  status: ('A' for Active; 'I' for Inactive)
REMARK    1  A    between atoms: C_1  and  C_2
REMARK    2  A    between atoms: C_5  and  C_36
REMARK    3  A    between atoms: C_6  and  S_8
REMARK    4  A    between atoms: S_8  and  C_11
REMARK    5  A    between atoms: N_22  and  N_25
REMARK    6  A    between atoms: C_23  and  N_24
REMARK    7  A    between atoms: C_26  and  C_27
REMARK    8  A    between atoms: C_30  and  C_33
REMARK    9  A    between atoms: C_33  and  C_34
REMARK   10  A    between atoms: C_33  and  C_35
REMARK                            x       y       z     vdW  Elec       q    Type
REMARK                         _______ _______ _______ _____ _____    ______ ____
ROOT
ATOM      1  C   UNL     1      -5.153   5.338   7.460  0.00  0.00    +0.162 A 
ATOM      2  C   UNL     1      -3.960   5.377   8.222  0.00  0.00    +0.137 A 
ATOM      3  C   UNL     1      -2.889   4.934   7.319  0.00  0.00    +0.184 A 
ATOM      4  N   UNL     1      -1.653   4.869   7.759  0.00  0.00    -0.224 NA
ATOM      5  C   UNL     1      -1.376   5.207   9.025  0.00  0.00    +0.092 A 
ATOM      6  C   UNL     1      -0.054   5.141   9.503  0.00  0.00    +0.030 A 
ATOM      7  C   UNL     1       0.218   5.486  10.790  0.00  0.00    +0.002 A 
ATOM      8  C   UNL     1      -0.796   5.907  11.650  0.00  0.00    +0.002 A 
ATOM      9  C   UNL     1      -2.086   5.983  11.224  0.00  0.00    +0.030 A 
ATOM     10  C   UNL     1      -2.407   5.635   9.899  0.00  0.00    +0.090 A 
ATOM     11  N   UNL     1      -3.673   5.707   9.471  0.00  0.00    -0.240 NA
ATOM     12  N   UNL     1      -3.493   4.665   6.107  0.00  0.00    -0.197 N 
ATOM     13  C   UNL     1      -4.840   4.918   6.211  0.00  0.00    +0.148 A 
ENDROOT
BRANCH   1  14
ATOM     14  S   UNL     1      -6.762   5.768   8.034  0.00  0.00    +0.031 S 
ATOM     15  O   UNL     1      -7.687   5.083   7.202  0.00  0.00    -0.164 OA
ATOM     16  O   UNL     1      -6.745   5.610   9.446  0.00  0.00    -0.164 OA
BRANCH  14  22
ATOM     17  C   UNL     1      -9.164   9.720   5.598  0.00  0.00    +0.044 C 
ATOM     18  C   UNL     1      -8.117   9.260   6.579  0.00  0.00    -0.049 A 
ATOM     19  C   UNL     1      -7.329  10.188   7.235  0.00  0.00    +0.004 A 
ATOM     20  C   UNL     1      -6.368   9.766   8.134  0.00  0.00    +0.005 A 
ATOM     21  C   UNL     1      -6.195   8.416   8.379  0.00  0.00    -0.025 A 
ATOM     22  C   UNL     1      -6.983   7.489   7.723  0.00  0.00    +0.097 A 
ATOM     23  C   UNL     1      -7.940   7.910   6.819  0.00  0.00    +0.031 A 
ATOM     24  C   UNL     1      -5.147   7.956   9.359  0.00  0.00    +0.046 C 
ENDBRANCH  14  22
ENDBRANCH   1  14
BRANCH  13  25
ATOM     25  N   UNL     1      -5.753   4.761   5.182  0.00  0.00    -0.341 N 
ATOM     26  H   UNL     1      -5.455   4.452   4.313  0.00  0.00    +0.144 HD
ATOM     27  H   UNL     1      -6.690   4.960   5.331  0.00  0.00    +0.144 HD
ENDBRANCH  13  25
BRANCH  12  28
ATOM     28  N   UNL     1      -2.837   4.213   4.954  0.00  0.00    -0.171 NA
ATOM     29  C   UNL     1      -2.704   2.941   4.740  0.00  0.00    +0.141 C 
BRANCH  29  30
ATOM     30  C   UNL     1      -2.014   2.465   3.527  0.00  0.00    -0.005 A 
ATOM     31  C   UNL     1      -1.868   1.095   3.294  0.00  0.00    +0.010 A 
ATOM     32  C   UNL     1      -1.222   0.658   2.156  0.00  0.00    +0.004 A 
ATOM     33  C   UNL     1      -0.718   1.572   1.248  0.00  0.00    -0.045 A 
ATOM     34  C   UNL     1      -0.854   2.930   1.475  0.00  0.00    +0.004 A 
ATOM     35  C   UNL     1      -1.503   3.382   2.605  0.00  0.00    +0.010 A 
BRANCH  33  36
ATOM     36  C   UNL     1      -0.013   1.086   0.008  0.00  0.00    +0.013 C 
ATOM     37  C   UNL     1       1.423   1.615  -0.003  0.00  0.00    +0.012 C 
ATOM     38  C   UNL     1      -0.753   1.593  -1.232  0.00  0.00    +0.012 C 
ENDBRANCH  33  36
ENDBRANCH  29  30
ENDBRANCH  12  28
TORSDOF 6
