REMARK  Name = ZINC12151213
REMARK  9 active torsions:
REMARK  status: ('A' for Active; 'I' for Inactive)
REMARK    1  A    between atoms: C_1  and  C_2
REMARK    2  A    between atoms: C_9  and  C_20
REMARK    3  A    between atoms: N_11  and  C_12
REMARK    4  A    between atoms: N_11  and  C_13
REMARK    5  A    between atoms: C_13  and  C_14
REMARK    6  A    between atoms: C_20  and  N_21
REMARK    7  A    between atoms: N_21  and  C_22
REMARK    8  A    between atoms: C_22  and  C_23
REMARK    9  A    between atoms: C_29  and  C_31
REMARK                            x       y       z     vdW  Elec       q    Type
REMARK                         _______ _______ _______ _____ _____    ______ ____
ROOT
ATOM      1  C   UNL     1      -0.324  -7.766   0.971  0.00  0.00    +0.044 C 
ATOM      2  C   UNL     1      -1.332  -6.711   0.594  0.00  0.00    -0.050 A 
ATOM      3  C   UNL     1      -2.524  -6.614   1.308  0.00  0.00    +0.005 A 
ATOM      4  C   UNL     1      -3.456  -5.672   0.993  0.00  0.00    +0.026 A 
ATOM      5  C   UNL     1      -3.216  -4.780  -0.067  0.00  0.00    +0.048 A 
ATOM      6  C   UNL     1      -2.003  -4.882  -0.791  0.00  0.00    -0.001 A 
ATOM      7  C   UNL     1      -1.065  -5.865  -0.440  0.00  0.00    +0.013 A 
ATOM      8  C   UNL     1      -1.762  -3.988  -1.855  0.00  0.00    +0.018 A 
ATOM      9  C   UNL     1      -2.715  -3.059  -2.146  0.00  0.00    +0.008 A 
ATOM     10  C   UNL     1      -3.893  -3.006  -1.388  0.00  0.00    +0.104 A 
ATOM     11  N   UNL     1      -4.852  -2.052  -1.694  0.00  0.00    -0.314 N 
ATOM     12  C   UNL     1      -6.131  -2.684  -2.043  0.00  0.00    +0.131 C 
ATOM     13  N   UNL     1      -4.179  -3.839  -0.357  0.00  0.00    -0.343 N 
ATOM     14  H   UNL     1      -5.056  -3.773   0.173  0.00  0.00    +0.167 HD
ENDROOT
BRANCH  11  15
ATOM     15  C   UNL     1      -5.020  -1.101  -0.587  0.00  0.00    +0.160 C 
BRANCH  15  16
ATOM     16  C   UNL     1      -5.860   0.063  -1.047  0.00  0.00    +0.053 A 
ATOM     17  C   UNL     1      -7.190   0.215  -0.849  0.00  0.00    +0.045 A 
ATOM     18  C   UNL     1      -7.576   1.426  -1.432  0.00  0.00    +0.134 A 
ATOM     19  N   UNL     1      -6.515   1.982  -1.960  0.00  0.00    -0.182 NA
ATOM     20  N   UNL     1      -5.420   1.140  -1.730  0.00  0.00    -0.280 N 
ATOM     21  H   UNL     1      -4.478   1.308  -2.021  0.00  0.00    +0.189 HD
ENDBRANCH  15  16
ENDBRANCH  11  15
BRANCH   9  22
ATOM     22  C   UNL     1      -2.501  -2.088  -3.278  0.00  0.00    +0.146 C 
BRANCH  22  23
ATOM     23  N   UNL     1      -1.240  -2.398  -3.956  0.00  0.00    -0.291 N 
ATOM     24  C   UNL     1      -1.232  -3.236  -5.012  0.00  0.00    +0.247 C 
ATOM     25  O   UNL     1      -2.279  -3.658  -5.462  0.00  0.00    -0.270 OA
BRANCH  24  26
ATOM     26  C   UNL     1       0.050  -3.641  -5.623  0.00  0.00    +0.041 A 
ATOM     27  C   UNL     1       1.036  -4.251  -4.843  0.00  0.00    +0.017 A 
ATOM     28  C   UNL     1       2.231  -4.628  -5.415  0.00  0.00    +0.050 A 
ATOM     29  C   UNL     1       2.461  -4.404  -6.765  0.00  0.00    +0.166 A 
ATOM     30  C   UNL     1       1.481  -3.795  -7.550  0.00  0.00    +0.167 A 
ATOM     31  C   UNL     1       0.278  -3.420  -6.984  0.00  0.00    +0.062 A 
ATOM     32  O   UNL     1       1.949  -3.690  -8.828  0.00  0.00    -0.453 OA
ATOM     33  C   UNL     1       3.056  -4.607  -8.907  0.00  0.00    +0.466 C 
ATOM     34  O   UNL     1       3.540  -4.679  -7.553  0.00  0.00    -0.453 OA
ENDBRANCH  24  26
BRANCH  23  35
ATOM     35  C   UNL     1       0.011  -1.798  -3.487  0.00  0.00    +0.140 C 
BRANCH  35  36
ATOM     36  C   UNL     1       0.186  -0.418  -4.124  0.00  0.00    +0.136 C 
ATOM     37  C   UNL     1       1.414   0.287  -3.517  0.00  0.00    +0.035 C 
ATOM     38  C   UNL     1       2.329   0.570  -4.734  0.00  0.00    +0.031 C 
ATOM     39  C   UNL     1       1.327   0.504  -5.915  0.00  0.00    +0.160 C 
ATOM     40  O   UNL     1       0.426  -0.558  -5.534  0.00  0.00    -0.375 OA
ENDBRANCH  35  36
ENDBRANCH  23  35
ENDBRANCH  22  23
ENDBRANCH   9  22
TORSDOF 7
