REMARK  Name = ZINC44164846
REMARK  18 active torsions:
REMARK  status: ('A' for Active; 'I' for Inactive)
REMARK    1  A    between atoms: C_1  and  C_2
REMARK    2  A    between atoms: C_2  and  C_3
REMARK    3  A    between atoms: C_2  and  O_4
REMARK    4  A    between atoms: O_4  and  C_5
REMARK    5  A    between atoms: C_5  and  C_6
REMARK    6  A    between atoms: C_6  and  C_7
REMARK    7  A    between atoms: C_7  and  N_8
REMARK    8  A    between atoms: C_9  and  C_11
REMARK    9  A    between atoms: C_16  and  C_19
REMARK   10  A    between atoms: C_21  and  C_30
REMARK   11  A    between atoms: C_22  and  O_29
REMARK   12  A    between atoms: C_23  and  C_25
REMARK   13  A    between atoms: C_25  and  C_26
REMARK   14  A    between atoms: C_25  and  C_27
REMARK   15  A    between atoms: C_25  and  C_28
REMARK   16  A    between atoms: C_30  and  C_31
REMARK   17  A    between atoms: C_30  and  C_32
REMARK   18  A    between atoms: C_30  and  C_33
REMARK                            x       y       z     vdW  Elec       q    Type
REMARK                         _______ _______ _______ _____ _____    ______ ____
ROOT
ATOM      1  C   UNL     1      -7.428  -2.715  -3.400  0.00  0.00    +0.027 C 
ATOM      2  C   UNL     1      -7.399  -4.105  -2.755  0.00  0.00    +0.062 C 
ATOM      3  S   UNL     1      -6.370  -5.193  -3.789  0.00  0.00    -0.163 S 
ATOM      4  C   UNL     1      -7.048  -4.917  -5.455  0.00  0.00    +0.058 C 
ATOM      5  C   UNL     1      -7.129  -3.405  -5.697  0.00  0.00    -0.030 C 
ATOM      6  N   UNL     1      -8.040  -2.796  -4.727  0.00  0.00    +0.392 N 
ATOM      7  H   UNL     1      -8.881  -3.351  -4.670  0.00  0.00    -0.084 HD
ATOM      8  H   UNL     1      -8.279  -1.867  -5.039  0.00  0.00    -0.084 HD
ENDROOT
BRANCH   5   9
ATOM      9  C   UNL     1      -7.638  -3.147  -7.091  0.00  0.00    -0.060 A 
ATOM     10  C   UNL     1      -8.992  -3.223  -7.357  0.00  0.00    +0.009 A 
ATOM     11  C   UNL     1      -9.461  -2.987  -8.635  0.00  0.00    -0.000 A 
ATOM     12  C   UNL     1      -8.571  -2.674  -9.652  0.00  0.00    +0.124 A 
ATOM     13  C   UNL     1      -7.212  -2.598  -9.383  0.00  0.00    -0.000 A 
ATOM     14  C   UNL     1      -6.749  -2.829  -8.102  0.00  0.00    +0.009 A 
BRANCH  13  15
ATOM     15  C   UNL     1      -6.243  -2.258 -10.486  0.00  0.00    -0.009 C 
ATOM     16  C   UNL     1      -4.819  -2.240  -9.925  0.00  0.00    +0.015 C 
ATOM     17  C   UNL     1      -6.342  -3.309 -11.594  0.00  0.00    +0.015 C 
ATOM     18  C   UNL     1      -6.584  -0.880 -11.057  0.00  0.00    +0.015 C 
ENDBRANCH  13  15
BRANCH  11  19
ATOM     19  C   UNL     1     -10.938  -3.071  -8.924  0.00  0.00    -0.009 C 
ATOM     20  C   UNL     1     -11.689  -3.430  -7.641  0.00  0.00    +0.015 C 
ATOM     21  C   UNL     1     -11.433  -1.721  -9.444  0.00  0.00    +0.015 C 
ATOM     22  C   UNL     1     -11.190  -4.149  -9.981  0.00  0.00    +0.015 C 
ENDBRANCH  11  19
BRANCH  12  23
ATOM     23  O   UNL     1      -9.030  -2.442 -10.910  0.00  0.00    -0.506 OA
ATOM     24  H   UNL     1      -9.248  -1.517 -11.085  0.00  0.00    +0.292 HD
ENDBRANCH  12  23
ENDBRANCH   5   9
BRANCH   1  26
ATOM     25  N   UNL     1      -5.721  -1.287  -4.481  0.00  0.00    -0.317 N 
ATOM     26  C   UNL     1      -6.019  -2.194  -3.530  0.00  0.00    +0.200 C 
ATOM     27  O   UNL     1      -5.155  -2.591  -2.777  0.00  0.00    -0.278 OA
ATOM     28  H   UNL     1      -6.413  -0.970  -5.083  0.00  0.00    +0.149 HD
BRANCH  25  29
ATOM     29  C   UNL     1      -4.352  -0.781  -4.607  0.00  0.00    +0.106 C 
BRANCH  29  30
ATOM     30  C   UNL     1      -4.285   0.228  -5.756  0.00  0.00    +0.047 C 
BRANCH  30  31
ATOM     31  C   UNL     1      -2.855   0.756  -5.887  0.00  0.00    +0.161 C 
BRANCH  31  32
ATOM     32  O   UNL     1      -2.793   1.698  -6.960  0.00  0.00    -0.377 OA
BRANCH  32  34
ATOM     33  C   UNL     1      -0.720   1.387  -8.163  0.00  0.00    +0.037 C 
ATOM     34  C   UNL     1      -1.494   2.256  -7.169  0.00  0.00    +0.112 C 
ATOM     35  C   UNL     1      -1.631   3.673  -7.729  0.00  0.00    +0.037 C 
ENDBRANCH  32  34
ENDBRANCH  31  32
ENDBRANCH  30  31
ENDBRANCH  29  30
ENDBRANCH  25  29
ENDBRANCH   1  26
TORSDOF 10
