REMARK  Name = ZINC13097598
REMARK  10 active torsions:
REMARK  status: ('A' for Active; 'I' for Inactive)
REMARK    1  A    between atoms: C_1  and  C_2
REMARK    2  A    between atoms: C_5  and  C_8
REMARK    3  A    between atoms: N_10  and  C_21
REMARK    4  A    between atoms: N_13  and  C_14
REMARK    5  A    between atoms: C_17  and  C_20
REMARK    6  A    between atoms: C_21  and  N_60
REMARK    7  A    between atoms: C_22  and  N_60
REMARK    8  A    between atoms: C_23  and  C_24
REMARK    9  A    between atoms: C_23  and  N_60
REMARK   10  A    between atoms: N_26  and  C_27
REMARK                            x       y       z     vdW  Elec       q    Type
REMARK                         _______ _______ _______ _____ _____    ______ ____
ROOT
ATOM      1  C   UNL     1      -0.031   0.200   0.048  0.00  0.00    +0.167 A 
ATOM      2  N   UNL     1       0.174   1.483   0.155  0.00  0.00    -0.152 NA
ATOM      3  N   UNL     1       1.551   1.691   0.307  0.00  0.00    -0.257 N 
ATOM      4  C   UNL     1       2.150   0.483   0.286  0.00  0.00    +0.181 A 
ATOM      5  S   UNL     1       3.829   0.185   0.435  0.00  0.00    -0.011 S 
ATOM      6  N   UNL     1       1.188  -0.448   0.127  0.00  0.00    -0.271 N 
ENDROOT
BRANCH   1  11
ATOM      7  C   UNL     1      -5.150  -2.342  -0.640  0.00  0.00    +0.044 C 
ATOM      8  C   UNL     1      -3.809  -1.676  -0.460  0.00  0.00    -0.050 A 
ATOM      9  C   UNL     1      -3.742  -0.383   0.029  0.00  0.00    +0.004 A 
ATOM     10  C   UNL     1      -2.518   0.231   0.196  0.00  0.00    +0.012 A 
ATOM     11  C   UNL     1      -1.347  -0.454  -0.129  0.00  0.00    +0.020 A 
ATOM     12  C   UNL     1      -1.422  -1.755  -0.626  0.00  0.00    +0.012 A 
ATOM     13  C   UNL     1      -2.652  -2.360  -0.784  0.00  0.00    +0.004 A 
ENDBRANCH   1  11
BRANCH   6  14
ATOM     14  C   UNL     1       1.388  -1.832   0.054  0.00  0.00    +0.050 A 
ATOM     15  C   UNL     1       0.940  -2.655   1.079  0.00  0.00    +0.026 A 
ATOM     16  C   UNL     1       1.135  -4.020   1.002  0.00  0.00    +0.005 A 
ATOM     17  C   UNL     1       1.786  -4.566  -0.089  0.00  0.00    -0.050 A 
ATOM     18  C   UNL     1       2.238  -3.749  -1.109  0.00  0.00    +0.005 A 
ATOM     19  C   UNL     1       2.041  -2.384  -1.040  0.00  0.00    +0.026 A 
ATOM     20  C   UNL     1       2.002  -6.056  -0.168  0.00  0.00    +0.044 C 
ENDBRANCH   6  14
BRANCH   3  21
ATOM     21  C   UNL     1       2.219   2.986   0.461  0.00  0.00    +0.072 C 
BRANCH  21  23
ATOM     22  C   UNL     1       3.186   2.392   2.600  0.00  0.00    -0.093 C 
ATOM     23  N   UNL     1       2.278   3.324   1.899  0.00  0.00    +0.397 N 
ATOM     24  H   UNL     1       1.337   3.239   2.300  0.00  0.00    -0.079 HD
BRANCH  23  25
ATOM     25  C   UNL     1       2.750   4.714   2.072  0.00  0.00    +0.021 C 
BRANCH  25  26
ATOM     26  C   UNL     1       2.592   5.104   3.519  0.00  0.00    +0.201 C 
ATOM     27  O   UNL     1       2.151   4.305   4.318  0.00  0.00    -0.278 OA
ATOM     28  N   UNL     1       2.939   6.341   3.925  0.00  0.00    -0.287 N 
ATOM     29  H   UNL     1       3.226   7.002   3.276  0.00  0.00    +0.155 HD
BRANCH  28  30
ATOM     30  C   UNL     1       2.887   6.673   5.284  0.00  0.00    +0.033 A 
ATOM     31  C   UNL     1       1.887   6.145   6.090  0.00  0.00    +0.025 A 
ATOM     32  C   UNL     1       1.840   6.470   7.432  0.00  0.00    +0.022 A 
ATOM     33  C   UNL     1       2.782   7.328   7.971  0.00  0.00    +0.041 A 
ATOM     34  C   UNL     1       3.777   7.859   7.168  0.00  0.00    +0.022 A 
ATOM     35  C   UNL     1       3.831   7.533   5.827  0.00  0.00    +0.025 A 
ATOM     36 CL   UNL     1       2.717   7.738   9.656  0.00  0.00    -0.084 Cl
ENDBRANCH  28  30
ENDBRANCH  25  26
ENDBRANCH  23  25
ENDBRANCH  21  23
ENDBRANCH   3  21
TORSDOF 7
