REMARK  Name = ZINC27520943
REMARK  9 active torsions:
REMARK  status: ('A' for Active; 'I' for Inactive)
REMARK    1  A    between atoms: C_1  and  C_2
REMARK    2  A    between atoms: C_2  and  O_3
REMARK    3  A    between atoms: O_3  and  C_4
REMARK    4  A    between atoms: C_4  and  C_6
REMARK    5  A    between atoms: C_10  and  N_11
REMARK    6  A    between atoms: C_13  and  C_24
REMARK    7  A    between atoms: C_17  and  O_22
REMARK    8  A    between atoms: O_22  and  C_23
REMARK    9  A    between atoms: N_26  and  C_27
REMARK                            x       y       z     vdW  Elec       q    Type
REMARK                         _______ _______ _______ _____ _____    ______ ____
ROOT
ATOM      1  N   UNL     1       4.643   5.883   0.810  0.00  0.00    -0.319 N 
ATOM      2  C   UNL     1       3.538   6.422   0.327  0.00  0.00    +0.212 A 
ATOM      3  C   UNL     1       2.292   5.641   0.222  0.00  0.00    +0.098 A 
ATOM      4  C   UNL     1       1.096   6.345   0.234  0.00  0.00    +0.030 A 
ATOM      5  C   UNL     1       1.154   7.761   0.324  0.00  0.00    +0.022 A 
ATOM      6  C   UNL     1      -0.010   8.505   0.565  0.00  0.00    +0.057 A 
ATOM      7  C   UNL     1       0.070   9.877   0.687  0.00  0.00    +0.121 A 
ATOM      8  C   UNL     1       1.299  10.522   0.571  0.00  0.00    +0.049 A 
ATOM      9  C   UNL     1       2.448   9.802   0.320  0.00  0.00    +0.050 A 
ATOM     10  C   UNL     1       2.388   8.422   0.184  0.00  0.00    +0.138 A 
ATOM     11  O   UNL     1       3.511   7.713  -0.088  0.00  0.00    -0.439 OA
ATOM     12  H   UNL     1       4.644   4.834   1.142  0.00  0.00    +0.169 HD
ENDROOT
BRANCH   1  17
ATOM     13  C   UNL     1       7.032   6.239   1.372  0.00  0.00    +0.093 A 
ATOM     14  C   UNL     1       8.084   7.242   1.352  0.00  0.00    -0.021 A 
ATOM     15  C   UNL     1       7.745   8.458   0.872  0.00  0.00    -0.004 A 
ATOM     16  S   UNL     1       6.036   8.317   0.425  0.00  0.00    -0.075 S 
ATOM     17  C   UNL     1       5.769   6.617   0.896  0.00  0.00    +0.095 A 
ATOM     18  C   UNL     1       8.629   9.660   0.742  0.00  0.00    +0.043 C 
ATOM     19  C   UNL     1       9.893   9.426   1.582  0.00  0.00    +0.005 C 
ATOM     20  C   UNL     1      10.439   8.030   1.267  0.00  0.00    +0.005 C 
ATOM     21  C   UNL     1       9.503   6.965   1.840  0.00  0.00    +0.037 C 
BRANCH  13  22
ATOM     22  C   UNL     1       7.274   4.928   1.854  0.00  0.00    +0.342 C 
ATOM     23  O   UNL     1       7.652   4.059   1.091  0.00  0.00    -0.245 OA
BRANCH  22  24
ATOM     24  O   UNL     1       7.085   4.644   3.160  0.00  0.00    -0.461 OA
BRANCH  24  26
ATOM     25  C   UNL     1       7.081   3.173   5.078  0.00  0.00    +0.048 C 
ATOM     26  C   UNL     1       7.349   3.303   3.577  0.00  0.00    +0.229 C 
ENDBRANCH  24  26
ENDBRANCH  22  24
ENDBRANCH  13  22
ENDBRANCH   1  17
BRANCH   3  27
ATOM     27  C   UNL     1       2.316   4.173   0.104  0.00  0.00    +0.253 C 
ATOM     28  O   UNL     1       3.378   3.581   0.091  0.00  0.00    -0.270 OA
ATOM     29  N   UNL     1       1.160   3.486   0.009  0.00  0.00    -0.281 N 
ATOM     30  H   UNL     1       0.204   4.025  -0.056  0.00  0.00    +0.155 HD
BRANCH  29  31
ATOM     31  C   UNL     1       1.178   2.087  -0.006  0.00  0.00    +0.034 A 
ATOM     32  C   UNL     1       0.154   1.372   0.603  0.00  0.00    +0.026 A 
ATOM     33  C   UNL     1       0.173  -0.009   0.586  0.00  0.00    +0.040 A 
ATOM     34  C   UNL     1       1.211  -0.681  -0.036  0.00  0.00    +0.124 A 
ATOM     35  C   UNL     1       2.233   0.030  -0.643  0.00  0.00    +0.040 A 
ATOM     36  C   UNL     1       2.218   1.411  -0.629  0.00  0.00    +0.026 A 
ATOM     37  F   UNL     1       1.228  -2.032  -0.051  0.00  0.00    -0.205 F 
ENDBRANCH  29  31
ENDBRANCH   3  27
BRANCH   7  38
ATOM     38  O   UNL     1      -1.055  10.603   0.922  0.00  0.00    -0.495 OA
ATOM     39  C   UNL     1      -0.902  12.019   1.037  0.00  0.00    +0.277 C 
ENDBRANCH   7  38
TORSDOF 7
