REMARK  Name = ZINC64435765
REMARK  6 active torsions:
REMARK  status: ('A' for Active; 'I' for Inactive)
REMARK    1  A    between atoms: C_4  and  C_7
REMARK    2  A    between atoms: C_10  and  C_20
REMARK    3  A    between atoms: N_12  and  C_14
REMARK    4  A    between atoms: N_22  and  C_23
REMARK    5  A    between atoms: C_23  and  C_24
REMARK    6  A    between atoms: C_24  and  C_25
REMARK                            x       y       z     vdW  Elec       q    Type
REMARK                         _______ _______ _______ _____ _____    ______ ____
ROOT
ATOM      1  C   UNL     1       3.711  -0.707  -0.038  0.00  0.00    +0.105 C 
ATOM      2  C   UNL     1       4.021  -1.258  -1.456  0.00  0.00    +0.058 C 
ATOM      3  C   UNL     1       4.901  -2.485  -1.116  0.00  0.00    +0.178 C 
ATOM      4  N   UNL     1       4.607  -2.798   0.292  0.00  0.00    -0.254 N 
ATOM      5  N   UNL     1       3.632  -1.956   0.763  0.00  0.00    -0.232 NA
ATOM      6  H   UNL     1       2.720  -2.379   0.684  0.00  0.00    +0.145 HD
ENDROOT
BRANCH   1  10
ATOM      7  C   UNL     1      -0.017   1.378   0.010  0.00  0.00    +0.000 A 
ATOM      8  C   UNL     1       1.171   2.086   0.002  0.00  0.00    +0.000 A 
ATOM      9  C   UNL     1       2.377   1.411  -0.013  0.00  0.00    +0.005 A 
ATOM     10  C   UNL     1       2.396   0.029  -0.020  0.00  0.00    -0.029 A 
ATOM     11  C   UNL     1       1.208  -0.679  -0.012  0.00  0.00    +0.005 A 
ATOM     12  C   UNL     1       0.002  -0.004   0.002  0.00  0.00    +0.000 A 
ENDBRANCH   1  10
BRANCH   4  13
ATOM     13  C   UNL     1       5.227  -3.804   1.037  0.00  0.00    +0.045 A 
ATOM     14  C   UNL     1       6.210  -4.595   0.456  0.00  0.00    +0.024 A 
ATOM     15  C   UNL     1       6.822  -5.588   1.195  0.00  0.00    +0.002 A 
ATOM     16  C   UNL     1       6.457  -5.795   2.513  0.00  0.00    +0.000 A 
ATOM     17  C   UNL     1       5.480  -5.008   3.095  0.00  0.00    +0.002 A 
ATOM     18  C   UNL     1       4.868  -4.010   2.363  0.00  0.00    +0.024 A 
ENDBRANCH   4  13
BRANCH   3  19
ATOM     19  C   UNL     1       4.535  -3.650  -1.999  0.00  0.00    +0.235 C 
ATOM     20  O   UNL     1       3.815  -4.529  -1.576  0.00  0.00    -0.274 OA
ATOM     21  N   UNL     1       5.009  -3.714  -3.259  0.00  0.00    -0.313 N 
ATOM     22  H   UNL     1       5.585  -3.011  -3.597  0.00  0.00    +0.149 HD
BRANCH  21  23
ATOM     23  C   UNL     1       4.654  -4.847  -4.118  0.00  0.00    +0.110 C 
BRANCH  23  24
ATOM     24  C   UNL     1       5.318  -4.677  -5.486  0.00  0.00    +0.073 C 
BRANCH  24  25
ATOM     25  C   UNL     1       4.952  -5.842  -6.369  0.00  0.00    +0.035 A 
ATOM     26  H   UNL     1       3.248  -7.521  -8.371  0.00  0.00    +0.166 HD
ATOM     27  C   UNL     1       3.838  -5.949  -7.118  0.00  0.00    +0.105 A 
ATOM     28  N   UNL     1       3.906  -7.157  -7.759  0.00  0.00    -0.352 N 
ATOM     29  C   UNL     1       5.060  -7.746  -7.380  0.00  0.00    +0.171 A 
ATOM     30  N   UNL     1       5.683  -6.952  -6.552  0.00  0.00    -0.350 N 
ATOM     31  H   UNL     1       6.539  -7.136  -6.134  0.00  0.00    +0.166 HD
ENDBRANCH  24  25
ENDBRANCH  23  24
ENDBRANCH  21  23
ENDBRANCH   3  19
TORSDOF 6
