REMARK  Name = ZINC19287567
REMARK  7 active torsions:
REMARK  status: ('A' for Active; 'I' for Inactive)
REMARK    1  A    between atoms: C_1  and  C_2
REMARK    2  A    between atoms: C_2  and  N_3
REMARK    3  A    between atoms: N_6  and  C_9
REMARK    4  A    between atoms: C_12  and  N_15
REMARK    5  A    between atoms: C_16  and  C_17
REMARK    6  A    between atoms: C_20  and  O_25
REMARK    7  A    between atoms: C_22  and  O_23
REMARK                            x       y       z     vdW  Elec       q    Type
REMARK                         _______ _______ _______ _____ _____    ______ ____
ROOT
ATOM      1  C   UNL     1      -4.834  -2.583   0.973  0.00  0.00    +0.014 A 
ATOM      2  C   UNL     1      -5.707  -2.094   0.018  0.00  0.00    +0.024 A 
ATOM      3  C   UNL     1      -7.013  -2.537  -0.019  0.00  0.00    +0.029 A 
ATOM      4  C   UNL     1      -7.453  -3.481   0.911  0.00  0.00    +0.064 A 
ATOM      5  C   UNL     1      -6.566  -3.970   1.873  0.00  0.00    +0.029 A 
ATOM      6  C   UNL     1      -5.262  -3.522   1.895  0.00  0.00    +0.024 A 
ENDROOT
BRANCH   1  10
ATOM      7  N   UNL     1      -1.376  -0.512   0.012  0.00  0.00    -0.300 NA
ATOM      8  C   UNL     1      -2.049  -0.184   1.277  0.00  0.00    +0.101 C 
ATOM      9  C   UNL     1      -3.497  -0.678   1.224  0.00  0.00    +0.100 C 
ATOM     10  N   UNL     1      -3.511  -2.130   1.004  0.00  0.00    -0.391 NA
ATOM     11  C   UNL     1      -2.858  -2.440  -0.274  0.00  0.00    +0.100 C 
ATOM     12  C   UNL     1      -1.405  -1.961  -0.233  0.00  0.00    +0.101 C 
ATOM     13  H   UNL     1      -3.017  -2.588   1.755  0.00  0.00    +0.126 HD
BRANCH   7  15
ATOM     14  C   UNL     1      -0.019   1.526   0.010  0.00  0.00    +0.020 C 
ATOM     15  C   UNL     1       0.002  -0.004   0.002  0.00  0.00    +0.081 C 
ENDBRANCH   7  15
ENDBRANCH   1  10
BRANCH   4  16
ATOM     16  N   UNL     1      -8.747  -3.924   0.881  0.00  0.00    -0.255 NA
ATOM     17  C   UNL     1      -9.003  -5.198   0.996  0.00  0.00    +0.123 C 
BRANCH  17  18
ATOM     18  C   UNL     1     -10.392  -5.674   0.963  0.00  0.00    +0.037 A 
ATOM     19  C   UNL     1     -10.671  -7.040   1.092  0.00  0.00    +0.032 A 
ATOM     20  C   UNL     1     -11.974  -7.481   1.060  0.00  0.00    +0.061 A 
ATOM     21  C   UNL     1     -13.018  -6.574   0.901  0.00  0.00    +0.148 A 
ATOM     22  C   UNL     1     -12.753  -5.218   0.772  0.00  0.00    +0.102 A 
ATOM     23  C   UNL     1     -11.447  -4.760   0.808  0.00  0.00    +0.143 A 
ATOM     24 BR   UNL     1     -14.178  -3.994   0.555  0.00  0.00    -0.043 Br
ATOM     25 BR   UNL     1     -12.348  -9.327   1.234  0.00  0.00    -0.046 Br
BRANCH  23  26
ATOM     26  O   UNL     1     -11.187  -3.433   0.688  0.00  0.00    -0.505 OA
ATOM     27  H   UNL     1     -11.060  -3.138  -0.224  0.00  0.00    +0.292 HD
ENDBRANCH  23  26
BRANCH  21  28
ATOM     28  O   UNL     1     -14.301  -7.018   0.871  0.00  0.00    -0.504 OA
ATOM     29  H   UNL     1     -14.725  -7.053   1.740  0.00  0.00    +0.292 HD
ENDBRANCH  21  28
ENDBRANCH  17  18
ENDBRANCH   4  16
TORSDOF 6
