REMARK  Name = ZINC37634375
REMARK  6 active torsions:
REMARK  status: ('A' for Active; 'I' for Inactive)
REMARK    1  A    between atoms: CG1_1  and  CB_2
REMARK    2  A    between atoms: CB_2  and  CG2_3
REMARK    3  A    between atoms: CB_2  and  CA_4
REMARK    4  A    between atoms: CA_17  and  CB_30
REMARK    5  A    between atoms: CB_30  and  CG1_31
REMARK    6  A    between atoms: CB_30  and  CG2_32
REMARK                            x       y       z     vdW  Elec       q    Type
REMARK                         _______ _______ _______ _____ _____    ______ ____
ROOT
ATOM      1  CA  VAL A   6      -3.610  -0.599  -2.039  0.00  0.00    +0.161 C 
ATOM      2  C   VAL A   6      -3.583  -0.220  -0.581  0.00  0.00    +0.234 C 
ATOM      3  O   VAL A   6      -3.294  -1.038   0.266  0.00  0.00    -0.274 OA
ATOM      4  N   GLY A   1      -3.890   1.067  -0.233  0.00  0.00    -0.305 N 
ATOM      5  CA  GLY A   1      -3.838   1.348   1.222  0.00  0.00    +0.200 C 
ATOM      6  C   GLY A   1      -5.196   1.068   1.812  0.00  0.00    +0.231 C 
ATOM      7  O   GLY A   1      -6.189   1.106   1.116  0.00  0.00    -0.274 OA
ATOM      8  N   GLY A   2      -5.292   0.772   3.138  0.00  0.00    -0.305 N 
ATOM      9  CA  GLY A   2      -6.651   0.508   3.653  0.00  0.00    +0.200 C 
ATOM     10  C   GLY A   2      -6.933  -0.969   3.547  0.00  0.00    +0.231 C 
ATOM     11  O   GLY A   2      -6.024  -1.770   3.490  0.00  0.00    -0.274 OA
ATOM     12  N   VAL A   3      -8.235  -1.387   3.515  0.00  0.00    -0.302 N 
ATOM     13  CA  VAL A   3      -8.415  -2.855   3.409  0.00  0.00    +0.161 C 
ATOM     14  C   VAL A   3      -8.454  -3.228   1.949  0.00  0.00    +0.234 C 
ATOM     15  O   VAL A   3      -8.798  -2.417   1.115  0.00  0.00    -0.274 OA
ATOM     16  N   GLY A   4      -8.096  -4.490   1.580  0.00  0.00    -0.305 N 
ATOM     17  CA  GLY A   4      -8.155  -4.790   0.134  0.00  0.00    +0.200 C 
ATOM     18  C   GLY A   4      -6.807  -4.507  -0.476  0.00  0.00    +0.231 C 
ATOM     19  O   GLY A   4      -5.803  -4.521   0.205  0.00  0.00    -0.274 OA
ATOM     20  N   GLY A   5      -6.738  -4.234  -1.816  0.00  0.00    -0.305 N 
ATOM     21  CA  GLY A   5      -5.372  -3.967  -2.327  0.00  0.00    +0.200 C 
ATOM     22  C   GLY A   5      -5.099  -2.489  -2.215  0.00  0.00    +0.231 C 
ATOM     23  O   GLY A   5      -6.015  -1.695  -2.186  0.00  0.00    -0.274 OA
ATOM     24  N   VAL A   6      -3.810  -2.059  -2.151  0.00  0.00    -0.302 N 
ATOM     25  H   GLY A   1      -4.123   1.744  -0.888  0.00  0.00    +0.149 HD
ATOM     26  H   GLY A   2      -4.511   0.736   3.712  0.00  0.00    +0.149 HD
ATOM     27  H   VAL A   3      -8.983  -0.771   3.559  0.00  0.00    +0.150 HD
ATOM     28  H   GLY A   4      -7.818  -5.154   2.229  0.00  0.00    +0.149 HD
ATOM     29  H   GLY A   5      -7.522  -4.216  -2.386  0.00  0.00    +0.149 HD
ATOM     30  H   VAL A   6      -3.063  -2.678  -2.175  0.00  0.00    +0.150 HD
ENDROOT
BRANCH   1  32
ATOM     31  CG1 VAL A   6      -2.075   1.299  -2.572  0.00  0.00    +0.009 C 
ATOM     32  CB  VAL A   6      -2.282  -0.212  -2.695  0.00  0.00    +0.012 C 
ATOM     33  CG2 VAL A   6      -1.135  -0.943  -1.994  0.00  0.00    +0.009 C 
ENDBRANCH   1  32
BRANCH  13  34
ATOM     34  CB  VAL A   3      -7.247  -3.567   4.094  0.00  0.00    +0.012 C 
ATOM     35  CG1 VAL A   3      -7.065  -3.005   5.506  0.00  0.00    +0.009 C 
ATOM     36  CG2 VAL A   3      -7.540  -5.066   4.176  0.00  0.00    +0.009 C 
ENDBRANCH  13  34
TORSDOF 2
