REMARK  Name = ZINC38713675
REMARK  13 active torsions:
REMARK  status: ('A' for Active; 'I' for Inactive)
REMARK    1  A    between atoms: C_1  and  C_2
REMARK    2  A    between atoms: C_2  and  N_3
REMARK    3  A    between atoms: N_3  and  C_4
REMARK    4  A    between atoms: N_3  and  C_6
REMARK    5  A    between atoms: C_4  and  C_5
REMARK    6  A    between atoms: C_6  and  C_7
REMARK    7  A    between atoms: C_7  and  C_8
REMARK    8  A    between atoms: C_8  and  N_9
REMARK    9  A    between atoms: C_10  and  C_29
REMARK   10  A    between atoms: C_33  and  O_37
REMARK   11  A    between atoms: C_34  and  O_35
REMARK   12  A    between atoms: O_35  and  C_36
REMARK   13  A    between atoms: O_37  and  C_38
REMARK                            x       y       z     vdW  Elec       q    Type
REMARK                         _______ _______ _______ _____ _____    ______ ____
ROOT
ATOM      1  N   UNL     1      -0.047  -3.945   3.510  0.00  0.00    -0.284 N 
ATOM      2  C   UNL     1       1.385  -4.238   3.690  0.00  0.00    +0.148 C 
ATOM      3  C   UNL     1       1.587  -4.393   5.161  0.00  0.00    +0.072 A 
ATOM      4  C   UNL     1       2.785  -4.699   5.947  0.00  0.00    +0.199 A 
ATOM      5  O   UNL     1       3.909  -4.707   5.474  0.00  0.00    -0.287 OA
ATOM      6  C   UNL     1       2.502  -4.998   7.372  0.00  0.00    +0.065 A 
ATOM      7  C   UNL     1       3.519  -5.510   8.198  0.00  0.00    +0.016 A 
ATOM      8  C   UNL     1       3.276  -5.796   9.500  0.00  0.00    +0.009 A 
ATOM      9  C   UNL     1       1.991  -5.581  10.044  0.00  0.00    -0.014 A 
ATOM     10  C   UNL     1       1.722  -5.877  11.390  0.00  0.00    +0.008 A 
ATOM     11  C   UNL     1       0.475  -5.659  11.893  0.00  0.00    +0.001 A 
ATOM     12  C   UNL     1      -0.541  -5.146  11.093  0.00  0.00    +0.001 A 
ATOM     13  C   UNL     1      -0.315  -4.849   9.782  0.00  0.00    +0.012 A 
ATOM     14  C   UNL     1       0.957  -5.062   9.231  0.00  0.00    +0.025 A 
ATOM     15  C   UNL     1       1.218  -4.765   7.870  0.00  0.00    +0.147 A 
ATOM     16  O   UNL     1       0.223  -4.266   7.106  0.00  0.00    -0.449 OA
ATOM     17  C   UNL     1       0.378  -4.200   5.770  0.00  0.00    +0.199 A 
ATOM     18  C   UNL     1      -0.624  -3.920   4.729  0.00  0.00    +0.283 C 
ATOM     19  O   UNL     1      -1.801  -3.701   4.936  0.00  0.00    -0.267 OA
ENDROOT
BRANCH   2  20
ATOM     20  C   UNL     1       1.748  -5.514   2.976  0.00  0.00    +0.023 A 
ATOM     21  C   UNL     1       1.858  -6.696   3.686  0.00  0.00    +0.009 A 
ATOM     22  C   UNL     1       2.191  -7.869   3.034  0.00  0.00    +0.004 A 
ATOM     23  C   UNL     1       2.417  -7.865   1.670  0.00  0.00    +0.049 A 
ATOM     24  C   UNL     1       2.310  -6.684   0.954  0.00  0.00    +0.162 A 
ATOM     25  C   UNL     1       1.968  -5.505   1.609  0.00  0.00    +0.167 A 
BRANCH  25  26
ATOM     26  O   UNL     1       1.855  -4.344   0.908  0.00  0.00    -0.491 OA
ATOM     27  C   UNL     1       3.058  -3.608   0.676  0.00  0.00    +0.277 C 
ENDBRANCH  25  26
BRANCH  24  28
ATOM     28  O   UNL     1       2.532  -6.679  -0.388  0.00  0.00    -0.491 OA
ATOM     29  C   UNL     1       2.873  -7.927  -0.994  0.00  0.00    +0.277 C 
ENDBRANCH  24  28
ENDBRANCH   2  20
BRANCH   1  30
ATOM     30  C   UNL     1      -0.724  -3.716   2.232  0.00  0.00    +0.107 C 
BRANCH  30  31
ATOM     31  C   UNL     1      -0.679  -2.225   1.891  0.00  0.00    +0.000 C 
BRANCH  31  32
ATOM     32  C   UNL     1      -1.387  -1.985   0.556  0.00  0.00    -0.077 C 
BRANCH  32  33
ATOM     33  N   UNL     1      -1.343  -0.554   0.229  0.00  0.00    +0.379 N 
ATOM     34  H   UNL     1      -1.734  -0.022   0.992  0.00  0.00    -0.082 HD
BRANCH  33  36
ATOM     35  C   UNL     1       0.110   1.372  -0.191  0.00  0.00    -0.017 C 
ATOM     36  C   UNL     1       0.050  -0.144   0.009  0.00  0.00    -0.082 C 
ENDBRANCH  33  36
BRANCH  33  37
ATOM     37  C   UNL     1      -2.124  -0.306  -0.991  0.00  0.00    -0.082 C 
ATOM     38  C   UNL     1      -3.602  -0.597  -0.718  0.00  0.00    -0.017 C 
ENDBRANCH  33  37
ENDBRANCH  32  33
ENDBRANCH  31  32
ENDBRANCH  30  31
ENDBRANCH   1  30
TORSDOF 9
