REMARK  Name = ZINC43407331
REMARK  4 active torsions:
REMARK  status: ('A' for Active; 'I' for Inactive)
REMARK    1  A    between atoms: C_1  and  C_2
REMARK    2  A    between atoms: C_7  and  S_8
REMARK    3  A    between atoms: S_8  and  C_9
REMARK    4  A    between atoms: C_10  and  C_18
REMARK                            x       y       z     vdW  Elec       q    Type
REMARK                         _______ _______ _______ _____ _____    ______ ____
ROOT
ATOM      1  C   UNL     1      -0.166  -1.105   3.936  0.00  0.00    +0.112 A 
ATOM      2  C   UNL     1      -0.229  -0.769   5.300  0.00  0.00    +0.045 A 
ATOM      3  C   UNL     1      -0.246  -1.801   6.243  0.00  0.00    +0.019 A 
ATOM      4  C   UNL     1      -0.201  -3.111   5.793  0.00  0.00    -0.025 A 
ATOM      5  C   UNL     1      -0.139  -3.367   4.435  0.00  0.00    +0.046 A 
ATOM      6  N   UNL     1      -0.129  -2.373   3.561  0.00  0.00    -0.244 NA
ATOM      7  C   UNL     1      -0.100  -4.864   4.203  0.00  0.00    +0.056 C 
ATOM      8  C   UNL     1       0.299  -5.474   5.563  0.00  0.00    +0.011 C 
ATOM      9  C   UNL     1      -0.205  -4.413   6.564  0.00  0.00    +0.037 C 
ENDROOT
BRANCH   2  10
ATOM     10  C   UNL     1      -0.276   0.642   5.726  0.00  0.00    +0.097 C 
ATOM     11  N   UNL     1      -1.236   1.446   5.268  0.00  0.00    -0.387 N 
ATOM     12  N   UNL     1       0.642   1.115   6.570  0.00  0.00    -0.344 N 
ATOM     13  H   UNL     1      -1.861   1.123   4.601  0.00  0.00    +0.157 HD
ATOM     14  H   UNL     1       1.341   0.530   6.904  0.00  0.00    +0.144 HD
ATOM     15  H   UNL     1       0.612   2.042   6.851  0.00  0.00    +0.144 HD
ATOM     16  H   UNL     1      -1.308   2.354   5.601  0.00  0.00    +0.157 HD
ENDBRANCH   2  10
BRANCH   1  17
ATOM     17  S   UNL     1      -0.142   0.169   2.720  0.00  0.00    -0.069 S 
BRANCH  17  24
ATOM     18  C   UNL     1       2.218  -1.280   1.479  0.00  0.00    +0.045 C 
ATOM     19  C   UNL     1       0.929  -1.335   0.701  0.00  0.00    -0.037 A 
ATOM     20  C   UNL     1       0.873  -2.021  -0.497  0.00  0.00    +0.004 A 
ATOM     21  C   UNL     1      -0.309  -2.072  -1.212  0.00  0.00    +0.000 A 
ATOM     22  C   UNL     1      -1.440  -1.437  -0.731  0.00  0.00    +0.001 A 
ATOM     23  C   UNL     1      -1.392  -0.750   0.466  0.00  0.00    +0.015 A 
ATOM     24  C   UNL     1      -0.206  -0.701   1.189  0.00  0.00    +0.017 A 
ENDBRANCH  17  24
ENDBRANCH   1  17
TORSDOF 3
