REMARK  Name = ZINC63694303
REMARK  6 active torsions:
REMARK  status: ('A' for Active; 'I' for Inactive)
REMARK    1  A    between atoms: C_6  and  C_10
REMARK    2  A    between atoms: C_10  and  C_11
REMARK    3  A    between atoms: C_11  and  N_12
REMARK    4  A    between atoms: C_13  and  C_15
REMARK    5  A    between atoms: C_18  and  C_30
REMARK    6  A    between atoms: N_20  and  C_22
REMARK                            x       y       z     vdW  Elec       q    Type
REMARK                         _______ _______ _______ _____ _____    ______ ____
ROOT
ATOM      1  N   UNL     1       3.456  -4.928  -2.477  0.00  0.00    -0.314 N 
ATOM      2  C   UNL     1       3.109  -6.213  -2.691  0.00  0.00    +0.231 C 
ATOM      3  O   UNL     1       2.415  -6.796  -1.885  0.00  0.00    -0.274 OA
ATOM      4  H   UNL     1       4.011  -4.462  -3.122  0.00  0.00    +0.149 HD
ENDROOT
BRANCH   2   5
ATOM      5  C   UNL     1       3.583  -6.925  -3.932  0.00  0.00    +0.157 C 
ATOM      6  C   UNL     1       2.685  -6.555  -5.133  0.00  0.00    +0.050 C 
ATOM      7  C   UNL     1       2.550  -7.907  -5.881  0.00  0.00    +0.078 C 
ATOM      8  N   UNL     1       2.508  -8.883  -4.761  0.00  0.00    -0.234 NA
ATOM      9  N   UNL     1       3.453  -8.386  -3.761  0.00  0.00    -0.241 NA
ATOM     10  H   UNL     1       4.349  -8.841  -3.850  0.00  0.00    +0.142 HD
BRANCH   8  11
ATOM     11  C   UNL     1       2.886 -10.227  -5.218  0.00  0.00    +0.096 C 
ATOM     12  C   UNL     1       2.880 -11.201  -4.029  0.00  0.00    +0.044 C 
ATOM     13  C   UNL     1       3.577 -12.525  -4.428  0.00  0.00    +0.167 C 
ATOM     14  S   UNL     1       4.765 -11.981  -5.723  0.00  0.00    -0.029 S 
ATOM     15  O   UNL     1       6.088 -12.106  -5.219  0.00  0.00    -0.174 OA
ATOM     16  O   UNL     1       4.423 -12.604  -6.954  0.00  0.00    -0.174 OA
ATOM     17  C   UNL     1       4.324 -10.195  -5.811  0.00  0.00    +0.186 C 
ENDBRANCH   8  11
BRANCH   7  18
ATOM     18  C   UNL     1       1.257  -7.952  -6.697  0.00  0.00    +0.008 C 
ATOM     19  C   UNL     1       1.362  -8.377  -8.164  0.00  0.00    +0.005 C 
ATOM     20  C   UNL     1       1.087  -6.914  -7.809  0.00  0.00    +0.005 C 
ENDBRANCH   7  18
ENDBRANCH   2   5
BRANCH   1  21
ATOM     21  C   UNL     1       2.996  -4.236  -1.271  0.00  0.00    +0.108 C 
BRANCH  21  22
ATOM     22  C   UNL     1       3.526  -2.801  -1.272  0.00  0.00    +0.065 C 
BRANCH  22  28
ATOM     23  C   UNL     1      -0.030   1.339   0.013  0.00  0.00    +0.002 A 
ATOM     24  C   UNL     1       1.147   2.108   0.021  0.00  0.00    +0.002 A 
ATOM     25  C   UNL     1       2.376   1.556   0.018  0.00  0.00    +0.027 A 
ATOM     26  C   UNL     1       2.514   0.093   0.005  0.00  0.00    +0.060 A 
ATOM     27  N   UNL     1       3.547  -0.698  -0.000  0.00  0.00    -0.363 N 
ATOM     28  C   UNL     1       3.045  -2.078  -0.012  0.00  0.00    +0.175 C 
ATOM     29  N   UNL     1       1.580  -1.985  -0.013  0.00  0.00    -0.363 N 
ATOM     30  C   UNL     1       1.268  -0.722  -0.003  0.00  0.00    +0.060 A 
ATOM     31  C   UNL     1      -0.017  -0.009   0.002  0.00  0.00    +0.027 A 
ATOM     32  H   UNL     1       4.479  -0.426   0.003  0.00  0.00    +0.162 HD
ATOM     33  H   UNL     1       0.958  -2.730  -0.020  0.00  0.00    +0.162 HD
ENDBRANCH  22  28
ENDBRANCH  21  22
ENDBRANCH   1  21
TORSDOF 6
