REMARK  Name = ZINC09237649
REMARK  3 active torsions:
REMARK  status: ('A' for Active; 'I' for Inactive)
REMARK    1  A    between atoms: C_1  and  C_2
REMARK    2  A    between atoms: C_7  and  C_8
REMARK    3  A    between atoms: N_24  and  C_27
REMARK                            x       y       z     vdW  Elec       q    Type
REMARK                         _______ _______ _______ _____ _____    ______ ____
ROOT
ATOM      1  C   UNL     1      -6.629   7.195   2.985  0.00  0.00    +0.044 C 
ATOM      2  C   UNL     1      -5.228   7.543   2.553  0.00  0.00    -0.046 A 
ATOM      3  C   UNL     1      -4.263   6.555   2.483  0.00  0.00    +0.004 A 
ATOM      4  C   UNL     1      -2.976   6.875   2.087  0.00  0.00    +0.005 A 
ATOM      5  C   UNL     1      -2.660   8.175   1.762  0.00  0.00    -0.027 A 
ATOM      6  C   UNL     1      -3.622   9.178   1.828  0.00  0.00    +0.039 A 
ATOM      7  C   UNL     1      -4.914   8.847   2.229  0.00  0.00    -0.026 A 
ATOM      8  C   UNL     1      -5.973   9.916   2.307  0.00  0.00    +0.046 C 
ATOM      9  N   UNL     1      -3.067  10.405   1.455  0.00  0.00    -0.286 N 
ATOM     10  C   UNL     1      -1.764  10.296   1.133  0.00  0.00    +0.212 C 
ATOM     11  O   UNL     1      -1.030  11.192   0.773  0.00  0.00    -0.277 OA
ATOM     12  C   UNL     1      -1.395   8.847   1.305  0.00  0.00    +0.053 C 
ATOM     13  C   UNL     1      -0.884   8.240  -0.007  0.00  0.00    +0.089 C 
ATOM     14  C   UNL     1       0.665   8.261   0.109  0.00  0.00    +0.074 C 
ATOM     15  C   UNL     1       0.942   8.885   1.505  0.00  0.00    -0.054 C 
ATOM     16  C   UNL     1      -0.251   7.268   2.734  0.00  0.00    -0.076 C 
ATOM     17  C   UNL     1       1.235   7.008   3.056  0.00  0.00    -0.020 C 
ATOM     18  C   UNL     1       2.013   8.055   2.235  0.00  0.00    -0.016 C 
ATOM     19  C   UNL     1       1.032   6.794   0.135  0.00  0.00    +0.228 C 
ATOM     20  O   UNL     1       2.158   6.355   0.228  0.00  0.00    -0.275 OA
ATOM     21  N   UNL     1      -0.080   6.056   0.037  0.00  0.00    -0.210 N 
ATOM     22  C   UNL     1      -1.212   6.764  -0.047  0.00  0.00    +0.229 C 
ATOM     23  O   UNL     1      -2.326   6.297  -0.140  0.00  0.00    -0.275 OA
ATOM     24  H   UNL     1      -3.563  11.238   1.430  0.00  0.00    +0.155 HD
ATOM     25  N   UNL     1      -0.281   8.659   2.240  0.00  0.00    +0.395 N 
ATOM     26  H   UNL     1      -0.363   9.314   3.027  0.00  0.00    -0.079 HD
ENDROOT
BRANCH  21  27
ATOM     27  C   UNL     1      -0.061   4.654   0.028  0.00  0.00    +0.044 A 
ATOM     28  C   UNL     1       0.491   3.972  -1.048  0.00  0.00    +0.025 A 
ATOM     29  C   UNL     1       0.509   2.591  -1.054  0.00  0.00    +0.017 A 
ATOM     30  C   UNL     1      -0.022   1.887   0.012  0.00  0.00    +0.018 A 
ATOM     31  C   UNL     1      -0.578   2.563   1.083  0.00  0.00    +0.017 A 
ATOM     32  C   UNL     1      -0.594   3.944   1.096  0.00  0.00    +0.025 A 
ATOM     33 BR   UNL     1       0.004  -0.004   0.001  0.00  0.00    -0.050 Br
ENDBRANCH  21  27
TORSDOF 1
