REMARK  Name = ZINC67397649
REMARK  11 active torsions:
REMARK  status: ('A' for Active; 'I' for Inactive)
REMARK    1  A    between atoms: C_1  and  C_2
REMARK    2  A    between atoms: C_4  and  O_26
REMARK    3  A    between atoms: C_7  and  N_8
REMARK    4  A    between atoms: C_9  and  C_11
REMARK    5  A    between atoms: N_13  and  C_14
REMARK    6  A    between atoms: C_14  and  C_16
REMARK    7  A    between atoms: C_14  and  C_17
REMARK    8  A    between atoms: C_17  and  N_18
REMARK    9  A    between atoms: C_22  and  C_25
REMARK   10  A    between atoms: O_26  and  C_27
REMARK   11  A    between atoms: C_27  and  C_28
REMARK                            x       y       z     vdW  Elec       q    Type
REMARK                         _______ _______ _______ _____ _____    ______ ____
ROOT
ATOM      1  N   UNL     1      -0.166   0.167   2.446  0.00  0.00    -0.278 N 
ATOM      2  C   UNL     1      -0.244  -0.532   3.595  0.00  0.00    +0.303 C 
ATOM      3  O   UNL     1      -0.316  -1.744   3.564  0.00  0.00    -0.265 OA
ATOM      4  H   UNL     1      -0.034   1.128   2.471  0.00  0.00    +0.155 HD
ENDROOT
BRANCH   1  11
ATOM      5  C   UNL     1      -1.424   1.540   0.296  0.00  0.00    +0.046 C 
ATOM      6  C   UNL     1      -0.883   0.142   0.140  0.00  0.00    -0.026 A 
ATOM      7  C   UNL     1      -0.987  -0.507  -1.074  0.00  0.00    +0.050 A 
ATOM      8  C   UNL     1      -0.488  -1.794  -1.217  0.00  0.00    +0.122 A 
ATOM      9  C   UNL     1       0.114  -2.430  -0.141  0.00  0.00    +0.047 A 
ATOM     10  C   UNL     1       0.217  -1.783   1.074  0.00  0.00    +0.027 A 
ATOM     11  C   UNL     1      -0.276  -0.492   1.217  0.00  0.00    +0.037 A 
BRANCH   8  12
ATOM     12  O   UNL     1      -0.590  -2.433  -2.413  0.00  0.00    -0.483 OA
BRANCH  12  13
ATOM     13  C   UNL     1      -0.056  -3.756  -2.490  0.00  0.00    +0.324 C 
BRANCH  13  14
ATOM     14  C   UNL     1      -0.259  -4.300  -3.881  0.00  0.00    +0.248 C 
ATOM     15  O   UNL     1      -0.807  -3.621  -4.723  0.00  0.00    -0.272 OA
ATOM     16  N   UNL     1       0.169  -5.540  -4.188  0.00  0.00    -0.327 N 
ATOM     17  H   UNL     1       0.607  -6.083  -3.514  0.00  0.00    +0.145 HD
ATOM     18  H   UNL     1       0.039  -5.890  -5.083  0.00  0.00    +0.145 HD
ENDBRANCH  13  14
ENDBRANCH  12  13
ENDBRANCH   8  12
ENDBRANCH   1  11
BRANCH   2  19
ATOM     19  C   UNL     1      -0.242   0.182   4.906  0.00  0.00    +0.299 C 
ATOM     20  O   UNL     1      -0.170   1.394   4.937  0.00  0.00    -0.265 OA
ATOM     21  N   UNL     1      -0.320  -0.517   6.055  0.00  0.00    -0.307 N 
ATOM     22  H   UNL     1      -0.377  -1.485   6.031  0.00  0.00    +0.149 HD
BRANCH  21  23
ATOM     23  C   UNL     1      -0.318   0.184   7.341  0.00  0.00    +0.054 C 
ATOM     24  C   UNL     1      -1.754   0.543   7.729  0.00  0.00    +0.026 C 
BRANCH  23  25
ATOM     25  C   UNL     1       0.289  -0.721   8.415  0.00  0.00    -0.057 C 
BRANCH  25  26
ATOM     26  N   UNL     1       1.630  -1.149   7.994  0.00  0.00    +0.381 N 
ATOM     27  C   UNL     1       2.150  -2.135   8.950  0.00  0.00    -0.079 C 
ATOM     28  C   UNL     1       3.512  -2.644   8.473  0.00  0.00    -0.018 C 
ATOM     29  C   UNL     1       4.485  -1.465   8.372  0.00  0.00    -0.001 C 
ATOM     30  C   UNL     1       3.897  -0.410   7.430  0.00  0.00    -0.031 C 
ATOM     31  C   UNL     1       2.521   0.016   7.946  0.00  0.00    -0.076 C 
ATOM     32  C   UNL     1       4.825   0.805   7.382  0.00  0.00    +0.005 C 
ATOM     33  H   UNL     1       1.576  -1.569   7.078  0.00  0.00    -0.082 HD
ENDBRANCH  25  26
ENDBRANCH  23  25
ENDBRANCH  21  23
ENDBRANCH   2  19
TORSDOF 8
