REMARK  Name = ZINC47687130
REMARK  8 active torsions:
REMARK  status: ('A' for Active; 'I' for Inactive)
REMARK    1  A    between atoms: C_1  and  C_2
REMARK    2  A    between atoms: C_5  and  C_28
REMARK    3  A    between atoms: C_6  and  N_8
REMARK    4  A    between atoms: N_11  and  C_12
REMARK    5  A    between atoms: C_12  and  C_14
REMARK    6  A    between atoms: C_12  and  C_15
REMARK    7  A    between atoms: C_18  and  N_21
REMARK    8  A    between atoms: N_24  and  C_25
REMARK                            x       y       z     vdW  Elec       q    Type
REMARK                         _______ _______ _______ _____ _____    ______ ____
ROOT
ATOM      1  C   UNL     1       0.363  -2.113   5.973  0.00  0.00    +0.102 C 
ATOM      2  C   UNL     1       1.825  -1.735   6.215  0.00  0.00    +0.033 C 
ENDROOT
BRANCH   1   6
ATOM      3  N   UNL     1       0.024  -2.820   2.380  0.00  0.00    -0.269 N 
ATOM      4  C   UNL     1       0.129  -2.154   3.547  0.00  0.00    +0.304 C 
ATOM      5  O   UNL     1       0.116  -0.939   3.558  0.00  0.00    -0.252 OA
ATOM      6  N   UNL     1       0.249  -2.837   4.704  0.00  0.00    -0.293 N 
ATOM      7  H   UNL     1      -0.048  -3.787   2.378  0.00  0.00    +0.156 HD
ATOM      8  H   UNL     1       0.259  -3.806   4.696  0.00  0.00    +0.151 HD
BRANCH   3  14
ATOM      9  C   UNL     1       1.243   1.194  -0.184  0.00  0.00    +0.044 C 
ATOM     10  C   UNL     1       0.603  -0.168  -0.100  0.00  0.00    -0.049 A 
ATOM     11  C   UNL     1       0.009  -0.722  -1.219  0.00  0.00    +0.004 A 
ATOM     12  C   UNL     1      -0.580  -1.971  -1.146  0.00  0.00    +0.005 A 
ATOM     13  C   UNL     1      -0.576  -2.669   0.046  0.00  0.00    -0.029 A 
ATOM     14  C   UNL     1       0.019  -2.115   1.171  0.00  0.00    +0.038 A 
ATOM     15  C   UNL     1       0.615  -0.863   1.093  0.00  0.00    +0.027 A 
ATOM     16  C   UNL     1      -1.219  -4.030   0.125  0.00  0.00    +0.045 C 
ENDBRANCH   3  14
ENDBRANCH   1   6
BRANCH   1  17
ATOM     17  C   UNL     1      -0.122  -2.992   7.097  0.00  0.00    -0.027 A 
ATOM     18  C   UNL     1       0.195  -4.338   7.106  0.00  0.00    +0.007 A 
ATOM     19  C   UNL     1      -0.248  -5.146   8.135  0.00  0.00    +0.023 A 
ATOM     20  C   UNL     1      -1.011  -4.605   9.161  0.00  0.00    +0.035 A 
ATOM     21  C   UNL     1      -1.327  -3.253   9.149  0.00  0.00    +0.023 A 
ATOM     22  C   UNL     1      -0.877  -2.449   8.120  0.00  0.00    +0.007 A 
BRANCH  20  23
ATOM     23  N   UNL     1      -1.462  -5.421  10.205  0.00  0.00    -0.269 N 
ATOM     24  C   UNL     1      -0.691  -6.433  10.650  0.00  0.00    +0.304 C 
ATOM     25  O   UNL     1       0.357  -6.691  10.089  0.00  0.00    -0.253 OA
ATOM     26  N   UNL     1      -1.081  -7.159  11.717  0.00  0.00    -0.296 N 
ATOM     27  H   UNL     1      -2.329  -5.259  10.608  0.00  0.00    +0.156 HD
ATOM     28  H   UNL     1      -1.917  -6.953  12.164  0.00  0.00    +0.151 HD
BRANCH  26  29
ATOM     29  C   UNL     1      -0.243  -8.259  12.200  0.00  0.00    +0.075 C 
ATOM     30  C   UNL     1      -0.941  -9.567  12.576  0.00  0.00    +0.024 C 
ATOM     31  C   UNL     1      -0.380  -8.658  13.671  0.00  0.00    +0.024 C 
ENDBRANCH  26  29
ENDBRANCH  20  23
ENDBRANCH   1  17
TORSDOF 5
