REMARK  Name = ZINC37287372
REMARK  8 active torsions:
REMARK  status: ('A' for Active; 'I' for Inactive)
REMARK    1  A    between atoms: C_1  and  C_2
REMARK    2  A    between atoms: C_2  and  C_3
REMARK    3  A    between atoms: C_3  and  C_4
REMARK    4  A    between atoms: C_7  and  N_10
REMARK    5  A    between atoms: N_10  and  S_11
REMARK    6  A    between atoms: S_11  and  C_14
REMARK    7  A    between atoms: C_17  and  O_21
REMARK    8  A    between atoms: C_18  and  N_20
REMARK                            x       y       z     vdW  Elec       q    Type
REMARK                         _______ _______ _______ _____ _____    ______ ____
ROOT
ATOM      1  S   UNL     1       1.073  -6.998  -0.207  0.00  0.00    +0.072 S 
ATOM      2  O   UNL     1       2.276  -6.483  -0.759  0.00  0.00    -0.150 OA
ATOM      3  O   UNL     1       0.895  -8.379   0.079  0.00  0.00    -0.150 OA
ENDROOT
BRANCH   1   4
ATOM      4  C   UNL     1      -0.223  -6.542  -1.310  0.00  0.00    +0.110 A 
ATOM      5  C   UNL     1      -1.436  -7.204  -1.261  0.00  0.00    +0.032 A 
ATOM      6  C   UNL     1      -2.457  -6.850  -2.123  0.00  0.00    +0.049 A 
ATOM      7  C   UNL     1      -2.267  -5.830  -3.041  0.00  0.00    +0.137 A 
ATOM      8  C   UNL     1      -1.045  -5.162  -3.091  0.00  0.00    +0.068 A 
ATOM      9  C   UNL     1      -0.027  -5.519  -2.219  0.00  0.00    +0.055 A 
BRANCH   8  10
ATOM     10  N   UNL     1      -0.847  -4.131  -4.017  0.00  0.00    -0.355 N 
ATOM     11  H   UNL     1      -1.560  -3.880  -4.624  0.00  0.00    +0.142 HD
ATOM     12  H   UNL     1       0.005  -3.667  -4.051  0.00  0.00    +0.142 HD
ENDBRANCH   8  10
BRANCH   7  13
ATOM     13  O   UNL     1      -3.270  -5.481  -3.890  0.00  0.00    -0.505 OA
ATOM     14  H   UNL     1      -3.856  -4.793  -3.545  0.00  0.00    +0.292 HD
ENDBRANCH   7  13
ENDBRANCH   1   4
BRANCH   1  15
ATOM     15  N   UNL     1       0.817  -6.184   1.212  0.00  0.00    -0.216 N 
ATOM     16  H   UNL     1       0.658  -6.677   2.032  0.00  0.00    +0.174 HD
BRANCH  15  20
ATOM     17  C   UNL     1       0.858  -2.021   1.261  0.00  0.00    -0.047 A 
ATOM     18  C   UNL     1      -0.152  -2.708   1.909  0.00  0.00    +0.005 A 
ATOM     19  C   UNL     1      -0.168  -4.089   1.895  0.00  0.00    +0.025 A 
ATOM     20  C   UNL     1       0.831  -4.788   1.228  0.00  0.00    +0.048 A 
ATOM     21  C   UNL     1       1.843  -4.094   0.579  0.00  0.00    +0.025 A 
ATOM     22  C   UNL     1       1.851  -2.713   0.592  0.00  0.00    +0.005 A 
BRANCH  17  23
ATOM     23  C   UNL     1       0.873  -0.514   1.279  0.00  0.00    +0.035 C 
BRANCH  23  25
ATOM     24  C   UNL     1       0.098   1.548   0.101  0.00  0.00    +0.004 C 
ATOM     25  C   UNL     1       0.083   0.018   0.082  0.00  0.00    +0.001 C 
ENDBRANCH  23  25
ENDBRANCH  17  23
ENDBRANCH  15  20
ENDBRANCH   1  15
TORSDOF 7
