REMARK  Name = ZINC34996184
REMARK  7 active torsions:
REMARK  status: ('A' for Active; 'I' for Inactive)
REMARK    1  A    between atoms: C_1  and  C_2
REMARK    2  A    between atoms: C_2  and  C_4
REMARK    3  A    between atoms: C_2  and  N_11
REMARK    4  A    between atoms: N_11  and  C_12
REMARK    5  A    between atoms: C_12  and  C_13
REMARK    6  A    between atoms: C_16  and  O_20
REMARK    7  A    between atoms: C_17  and  O_19
REMARK                            x       y       z     vdW  Elec       q    Type
REMARK                         _______ _______ _______ _____ _____    ______ ____
ROOT
ATOM      1  N   UNL     1       0.690  -0.478  -1.207  0.00  0.00    +0.386 N 
ATOM      2  H   UNL     1       0.632  -1.484  -1.254  0.00  0.00    -0.085 HD
ATOM      3  H   UNL     1       0.251  -0.077  -2.022  0.00  0.00    -0.085 HD
ENDROOT
BRANCH   1   5
ATOM      4  C   UNL     1      -0.019   1.526   0.010  0.00  0.00    -0.009 C 
ATOM      5  C   UNL     1       0.002  -0.004   0.002  0.00  0.00    -0.043 C 
BRANCH   5   6
ATOM      6  C   UNL     1      -1.412  -0.526   0.013  0.00  0.00    -0.048 A 
ATOM      7  C   UNL     1      -1.998  -0.959  -1.162  0.00  0.00    +0.003 A 
ATOM      8  C   UNL     1      -3.294  -1.438  -1.152  0.00  0.00    +0.000 A 
ATOM      9  C   UNL     1      -4.006  -1.484   0.032  0.00  0.00    +0.001 A 
ATOM     10  C   UNL     1      -3.421  -1.051   1.207  0.00  0.00    +0.015 A 
ATOM     11  C   UNL     1      -2.121  -0.576   1.199  0.00  0.00    +0.019 A 
ATOM     12 BR   UNL     1      -1.318   0.010   2.807  0.00  0.00    -0.050 Br
ENDBRANCH   5   6
ENDBRANCH   1   5
BRANCH   1  13
ATOM     13  C   UNL     1       2.100  -0.070  -1.159  0.00  0.00    -0.046 C 
BRANCH  13  14
ATOM     14  C   UNL     1       2.806  -0.556  -2.399  0.00  0.00    -0.061 A 
ATOM     15  C   UNL     1       3.400  -1.804  -2.410  0.00  0.00    +0.005 A 
ATOM     16  C   UNL     1       4.048  -2.255  -3.545  0.00  0.00    +0.049 A 
ATOM     17  C   UNL     1       4.103  -1.455  -4.675  0.00  0.00    +0.158 A 
ATOM     18  C   UNL     1       3.504  -0.199  -4.664  0.00  0.00    +0.158 A 
ATOM     19  C   UNL     1       2.852   0.244  -3.525  0.00  0.00    +0.051 A 
BRANCH  18  20
ATOM     20  O   UNL     1       3.555   0.590  -5.771  0.00  0.00    -0.503 OA
ATOM     21  H   UNL     1       2.815   0.460  -6.380  0.00  0.00    +0.292 HD
ENDBRANCH  18  20
BRANCH  17  22
ATOM     22  O   UNL     1       4.741  -1.896  -5.792  0.00  0.00    -0.503 OA
ATOM     23  H   UNL     1       4.171  -2.381  -6.404  0.00  0.00    +0.292 HD
ENDBRANCH  17  22
ENDBRANCH  13  14
ENDBRANCH   1  13
TORSDOF 6
