REMARK  Name = ZINC08607367
REMARK  11 active torsions:
REMARK  status: ('A' for Active; 'I' for Inactive)
REMARK    1  A    between atoms: C_1  and  C_2
REMARK    2  A    between atoms: C_5  and  C_8
REMARK    3  A    between atoms: C_8  and  C_10
REMARK    4  A    between atoms: C_10  and  S_11
REMARK    5  A    between atoms: S_11  and  C_12
REMARK    6  A    between atoms: C_17  and  C_34
REMARK    7  A    between atoms: C_19  and  C_23
REMARK    8  A    between atoms: C_20  and  C_22
REMARK    9  A    between atoms: N_25  and  C_26
REMARK   10  A    between atoms: C_29  and  C_33
REMARK   11  A    between atoms: C_31  and  C_32
REMARK                            x       y       z     vdW  Elec       q    Type
REMARK                         _______ _______ _______ _____ _____    ______ ____
ROOT
ATOM      1  C   UNL     1      -0.119  -7.493   2.572  0.00  0.00    +0.211 A 
ATOM      2  N   UNL     1      -0.070  -6.846   3.745  0.00  0.00    -0.187 NA
ATOM      3  C   UNL     1      -0.009  -7.713   4.719  0.00  0.00    +0.219 A 
ATOM      4  N   UNL     1      -0.014  -8.956   4.177  0.00  0.00    -0.220 N 
ATOM      5  N   UNL     1      -0.093  -8.789   2.795  0.00  0.00    -0.141 NA
ATOM      6  C   UNL     1       0.054 -10.183   4.967  0.00  0.00    +0.177 C 
ATOM      7  C   UNL     1      -0.173  -9.857   6.419  0.00  0.00    +0.060 C 
ATOM      8  C   UNL     1      -0.161  -8.604   6.899  0.00  0.00    +0.018 C 
ATOM      9  N   UNL     1       0.050  -7.513   6.091  0.00  0.00    -0.287 N 
ATOM     10  C   UNL     1      -0.387  -8.387   8.373  0.00  0.00    +0.061 C 
ATOM     11  H   UNL     1       0.233  -6.638   6.465  0.00  0.00    +0.155 HD
ENDROOT
BRANCH   6  12
ATOM     12  C   UNL     1       1.412 -10.814   4.800  0.00  0.00    -0.018 A 
ATOM     13  C   UNL     1       2.548 -10.119   5.172  0.00  0.00    +0.006 A 
ATOM     14  C   UNL     1       3.793 -10.698   5.019  0.00  0.00    +0.000 A 
ATOM     15  C   UNL     1       3.904 -11.972   4.493  0.00  0.00    +0.000 A 
ATOM     16  C   UNL     1       2.768 -12.667   4.122  0.00  0.00    +0.000 A 
ATOM     17  C   UNL     1       1.522 -12.090   4.279  0.00  0.00    +0.006 A 
ENDBRANCH   6  12
BRANCH   7  18
ATOM     18  C   UNL     1      -0.410 -10.921   7.320  0.00  0.00    +0.248 C 
ATOM     19  O   UNL     1      -1.517 -11.423   7.392  0.00  0.00    -0.270 OA
ATOM     20  N   UNL     1       0.590 -11.380   8.099  0.00  0.00    -0.281 N 
ATOM     21  H   UNL     1       1.454 -10.939   8.089  0.00  0.00    +0.155 HD
BRANCH  20  22
ATOM     22  C   UNL     1       0.382 -12.492   8.922  0.00  0.00    +0.037 A 
ATOM     23  C   UNL     1      -0.859 -12.698   9.513  0.00  0.00    +0.024 A 
ATOM     24  C   UNL     1      -1.061 -13.796  10.324  0.00  0.00    +0.005 A 
ATOM     25  C   UNL     1      -0.031 -14.691  10.549  0.00  0.00    -0.050 A 
ATOM     26  C   UNL     1       1.205 -14.489   9.962  0.00  0.00    +0.008 A 
ATOM     27  C   UNL     1       1.412 -13.396   9.145  0.00  0.00    -0.029 A 
ATOM     28  C   UNL     1       2.757 -13.180   8.500  0.00  0.00    +0.045 C 
ATOM     29  C   UNL     1      -0.255 -15.889  11.436  0.00  0.00    +0.044 C 
ENDBRANCH  20  22
ENDBRANCH   7  18
BRANCH   1  30
ATOM     30  S   UNL     1      -0.211  -6.730   0.986  0.00  0.00    -0.076 S 
BRANCH  30  31
ATOM     31  C   UNL     1      -0.210  -4.953   1.353  0.00  0.00    +0.157 C 
BRANCH  31  32
ATOM     32  C   UNL     1      -0.287  -4.174   0.066  0.00  0.00    +0.173 C 
ATOM     33  O   UNL     1      -0.337  -4.759  -0.995  0.00  0.00    -0.291 OA
BRANCH  32  38
ATOM     34  C   UNL     1      -0.344   1.573   0.183  0.00  0.00    +0.044 C 
ATOM     35  C   UNL     1      -0.329   0.067   0.152  0.00  0.00    -0.050 A 
ATOM     36  C   UNL     1      -0.385  -0.598  -1.061  0.00  0.00    +0.004 A 
ATOM     37  C   UNL     1      -0.372  -1.976  -1.097  0.00  0.00    +0.011 A 
ATOM     38  C   UNL     1      -0.301  -2.703   0.096  0.00  0.00    +0.018 A 
ATOM     39  C   UNL     1      -0.244  -2.024   1.317  0.00  0.00    +0.011 A 
ATOM     40  C   UNL     1      -0.253  -0.645   1.337  0.00  0.00    +0.004 A 
ENDBRANCH  32  38
ENDBRANCH  31  32
ENDBRANCH  30  31
ENDBRANCH   1  30
TORSDOF 7
