REMARK  Name = ZINC05945267
REMARK  14 active torsions:
REMARK  status: ('A' for Active; 'I' for Inactive)
REMARK    1  A    between atoms: C_1  and  C_2
REMARK    2  A    between atoms: C_2  and  C_34
REMARK    3  A    between atoms: C_4  and  N_9
REMARK    4  A    between atoms: C_6  and  C_7
REMARK    5  A    between atoms: C_6  and  C_8
REMARK    6  A    between atoms: N_9  and  C_10
REMARK    7  A    between atoms: N_9  and  C_20
REMARK    8  A    between atoms: C_10  and  C_11
REMARK    9  A    between atoms: C_14  and  N_17
REMARK   10  A    between atoms: N_17  and  C_18
REMARK   11  A    between atoms: N_17  and  C_19
REMARK   12  A    between atoms: C_20  and  N_22
REMARK   13  A    between atoms: N_22  and  C_23
REMARK   14  A    between atoms: C_27  and  C_29
REMARK                            x       y       z     vdW  Elec       q    Type
REMARK                         _______ _______ _______ _____ _____    ______ ____
ROOT
ATOM      1  N   UNL     1       4.726   4.150  -0.224  0.00  0.00    -0.305 N 
ENDROOT
BRANCH   1   5
ATOM      2  C   UNL     1       8.750   2.817   0.968  0.00  0.00    -0.010 C 
ATOM      3  C   UNL     1       7.564   1.857   0.824  0.00  0.00    -0.072 C 
ATOM      4  C   UNL     1       6.257   2.639   0.935  0.00  0.00    +0.009 C 
ATOM      5  C   UNL     1       5.996   3.424  -0.350  0.00  0.00    +0.073 C 
ATOM      6  C   UNL     1       5.898   2.436  -1.512  0.00  0.00    +0.009 C 
ATOM      7  C   UNL     1       7.198   1.649  -1.652  0.00  0.00    -0.072 C 
ATOM      8  C   UNL     1       8.271   2.542  -2.286  0.00  0.00    -0.010 C 
ATOM      9  C   UNL     1       6.934   0.486  -2.634  0.00  0.00    -0.010 C 
ATOM     10  C   UNL     1       7.622   0.876   2.016  0.00  0.00    -0.010 C 
ATOM     11  N   UNL     1       7.688   1.017  -0.398  0.00  0.00    +0.386 N 
ATOM     12  H   UNL     1       7.152   0.154  -0.247  0.00  0.00    -0.084 HD
ATOM     13  H   UNL     1       8.680   0.785  -0.525  0.00  0.00    -0.084 HD
ENDBRANCH   1   5
BRANCH   1  14
ATOM     14  C   UNL     1       3.568   3.469  -0.122  0.00  0.00    +0.138 C 
ATOM     15  S   UNL     1       2.077   4.311  -0.114  0.00  0.00    -0.018 S 
BRANCH  14  16
ATOM     16  N   UNL     1       3.583   2.125  -0.028  0.00  0.00    -0.297 N 
ATOM     17  H   UNL     1       4.427   1.653   0.047  0.00  0.00    +0.154 HD
BRANCH  16  18
ATOM     18  C   UNL     1       2.380   1.409  -0.037  0.00  0.00    +0.033 A 
ATOM     19  C   UNL     1       1.331   1.800   0.785  0.00  0.00    +0.025 A 
ATOM     20  C   UNL     1       0.146   1.092   0.774  0.00  0.00    +0.022 A 
ATOM     21  C   UNL     1       0.002  -0.006  -0.057  0.00  0.00    +0.053 A 
ATOM     22  C   UNL     1       1.044  -0.396  -0.878  0.00  0.00    +0.075 A 
ATOM     23  C   UNL     1       2.233   0.308  -0.870  0.00  0.00    +0.037 A 
ATOM     24 CL   UNL     1      -1.490  -0.893  -0.070  0.00  0.00    -0.083 Cl
BRANCH  22  25
ATOM     25  C   UNL     1       0.884  -1.592  -1.782  0.00  0.00    +0.419 C 
ATOM     26  F   UNL     1       2.063  -1.788  -2.509  0.00  0.00    -0.166 F 
ATOM     27  F   UNL     1       0.617  -2.728  -1.010  0.00  0.00    -0.166 F 
ATOM     28  F   UNL     1      -0.177  -1.369  -2.666  0.00  0.00    -0.166 F 
ENDBRANCH  22  25
ENDBRANCH  16  18
ENDBRANCH  14  16
ENDBRANCH   1  14
BRANCH   1  29
ATOM     29  C   UNL     1       4.718   5.615  -0.207  0.00  0.00    +0.142 C 
BRANCH  29  30
ATOM     30  C   UNL     1       4.848   6.103   1.212  0.00  0.00    -0.030 A 
ATOM     31  C   UNL     1       3.714   6.324   1.972  0.00  0.00    +0.007 A 
ATOM     32  C   UNL     1       3.829   6.765   3.276  0.00  0.00    +0.023 A 
ATOM     33  C   UNL     1       5.086   6.998   3.820  0.00  0.00    +0.029 A 
ATOM     34  C   UNL     1       6.223   6.780   3.052  0.00  0.00    +0.023 A 
ATOM     35  C   UNL     1       6.101   6.334   1.751  0.00  0.00    +0.007 A 
BRANCH  33  36
ATOM     36  N   UNL     1       5.206   7.450   5.136  0.00  0.00    -0.336 N 
ATOM     37  C   UNL     1       6.532   7.696   5.708  0.00  0.00    +0.129 C 
ATOM     38  C   UNL     1       4.006   7.679   5.944  0.00  0.00    +0.129 C 
ENDBRANCH  33  36
ENDBRANCH  29  30
ENDBRANCH   1  29
TORSDOF 8
