REMARK  Name = ZINC20801208
REMARK  9 active torsions:
REMARK  status: ('A' for Active; 'I' for Inactive)
REMARK    1  A    between atoms: C_1  and  C_2
REMARK    2  A    between atoms: C_5  and  C_8
REMARK    3  A    between atoms: C_11  and  C_14
REMARK    4  A    between atoms: C_19  and  C_21
REMARK    5  A    between atoms: C_21  and  N_22
REMARK    6  A    between atoms: N_25  and  C_28
REMARK    7  A    between atoms: C_28  and  C_29
REMARK    8  A    between atoms: N_31  and  C_32
REMARK    9  A    between atoms: C_35  and  C_38
REMARK                            x       y       z     vdW  Elec       q    Type
REMARK                         _______ _______ _______ _____ _____    ______ ____
ROOT
ATOM      1  C   UNL     1      -1.394   3.748   2.386  0.00  0.00    +0.182 C 
ENDROOT
BRANCH   1   7
ATOM      2  C   UNL     1      -1.995   4.968   6.355  0.00  0.00    +0.069 C 
ATOM      3  N   UNL     1      -1.930   4.628   5.115  0.00  0.00    -0.181 NA
ATOM      4  N   UNL     1      -0.693   4.114   4.730  0.00  0.00    -0.181 N 
ATOM      5  C   UNL     1       0.203   4.106   5.897  0.00  0.00    +0.173 C 
ATOM      6  C   UNL     1      -0.667   4.694   7.025  0.00  0.00    +0.090 C 
ATOM      7  C   UNL     1      -0.372   3.688   3.492  0.00  0.00    +0.249 C 
ATOM      8  O   UNL     1       0.739   3.257   3.268  0.00  0.00    -0.272 OA
BRANCH   2  13
ATOM      9  C   UNL     1      -6.625   7.186   8.948  0.00  0.00    +0.044 C 
ATOM     10  C   UNL     1      -5.412   6.605   8.269  0.00  0.00    -0.050 A 
ATOM     11  C   UNL     1      -5.466   6.278   6.925  0.00  0.00    +0.004 A 
ATOM     12  C   UNL     1      -4.359   5.746   6.297  0.00  0.00    +0.010 A 
ATOM     13  C   UNL     1      -3.182   5.537   7.020  0.00  0.00    -0.002 A 
ATOM     14  C   UNL     1      -3.137   5.864   8.378  0.00  0.00    +0.010 A 
ATOM     15  C   UNL     1      -4.250   6.400   8.992  0.00  0.00    +0.004 A 
ENDBRANCH   2  13
BRANCH   5  16
ATOM     16  C   UNL     1       0.627   2.698   6.230  0.00  0.00    +0.128 A 
ATOM     17  C   UNL     1       1.850   2.323   6.645  0.00  0.00    +0.046 A 
ATOM     18  C   UNL     1       1.805   0.923   6.839  0.00  0.00    +0.041 A 
ATOM     19  C   UNL     1       0.556   0.527   6.532  0.00  0.00    +0.195 A 
ATOM     20  O   UNL     1      -0.154   1.608   6.170  0.00  0.00    -0.466 OA
ENDBRANCH   5  16
ENDBRANCH   1   7
BRANCH   1  21
ATOM     21  N   UNL     1      -0.803   3.231   1.145  0.00  0.00    -0.298 NA
ATOM     22  C   UNL     1      -0.502   1.797   1.262  0.00  0.00    +0.066 C 
ATOM     23  C   UNL     1       0.183   1.315  -0.019  0.00  0.00    -0.063 C 
ATOM     24  N   UNL     1      -0.696   1.575  -1.169  0.00  0.00    +0.387 N 
ATOM     25  C   UNL     1      -0.996   3.008  -1.286  0.00  0.00    -0.063 C 
ATOM     26  C   UNL     1      -1.681   3.490  -0.005  0.00  0.00    +0.066 C 
ATOM     27  H   UNL     1      -1.643   1.042  -0.999  0.00  0.00    -0.081 HD
BRANCH  24  28
ATOM     28  C   UNL     1      -0.104   1.057  -2.410  0.00  0.00    +0.019 C 
BRANCH  28  29
ATOM     29  C   UNL     1      -0.049  -0.448  -2.351  0.00  0.00    +0.201 C 
ATOM     30  O   UNL     1      -0.566  -1.038  -1.426  0.00  0.00    -0.278 OA
ATOM     31  N   UNL     1       0.574  -1.138  -3.326  0.00  0.00    -0.287 N 
ATOM     32  H   UNL     1       1.108  -0.601  -4.125  0.00  0.00    +0.155 HD
BRANCH  31  33
ATOM     33  C   UNL     1       0.543  -2.537  -3.323  0.00  0.00    +0.033 A 
ATOM     34  C   UNL     1       0.577  -3.231  -2.120  0.00  0.00    +0.023 A 
ATOM     35  C   UNL     1       0.542  -4.611  -2.120  0.00  0.00    +0.005 A 
ATOM     36  C   UNL     1       0.483  -5.303  -3.316  0.00  0.00    -0.050 A 
ATOM     37  C   UNL     1       0.455  -4.615  -4.515  0.00  0.00    +0.005 A 
ATOM     38  C   UNL     1       0.485  -3.234  -4.522  0.00  0.00    +0.023 A 
ATOM     39  C   UNL     1       0.450  -6.810  -3.313  0.00  0.00    +0.044 C 
ENDBRANCH  31  33
ENDBRANCH  28  29
ENDBRANCH  24  28
ENDBRANCH   1  21
TORSDOF 7
