REMARK  Name = ZINC44594337
REMARK  8 active torsions:
REMARK  status: ('A' for Active; 'I' for Inactive)
REMARK    1  A    between atoms: C_1  and  C_2
REMARK    2  A    between atoms: C_6  and  N_9
REMARK    3  A    between atoms: C_7  and  C_8
REMARK    4  A    between atoms: N_9  and  S_10
REMARK    5  A    between atoms: S_10  and  C_13
REMARK    6  A    between atoms: C_16  and  C_19
REMARK    7  A    between atoms: C_19  and  C_20
REMARK    8  A    between atoms: C_20  and  N_21
REMARK                            x       y       z     vdW  Elec       q    Type
REMARK                         _______ _______ _______ _____ _____    ______ ____
ROOT
ATOM      1  S   UNL     1       0.788  -4.277   2.472  0.00  0.00    +0.072 S 
ATOM      2  O   UNL     1       0.558  -4.774   3.783  0.00  0.00    -0.150 OA
ATOM      3  O   UNL     1       0.396  -4.991   1.307  0.00  0.00    -0.150 OA
ENDROOT
BRANCH   1   4
ATOM      4  C   UNL     1       2.524  -4.003   2.334  0.00  0.00    +0.109 A 
ATOM      5  C   UNL     1       3.126  -3.995   1.090  0.00  0.00    +0.029 A 
ATOM      6  C   UNL     1       4.487  -3.780   0.982  0.00  0.00    +0.005 A 
ATOM      7  C   UNL     1       5.246  -3.574   2.119  0.00  0.00    -0.049 A 
ATOM      8  C   UNL     1       4.644  -3.582   3.363  0.00  0.00    +0.005 A 
ATOM      9  C   UNL     1       3.282  -3.792   3.470  0.00  0.00    +0.029 A 
BRANCH   7  10
ATOM     10  C   UNL     1       6.730  -3.341   2.001  0.00  0.00    +0.015 C 
BRANCH  10  11
ATOM     11  C   UNL     1       7.002  -1.842   1.858  0.00  0.00    -0.082 C 
BRANCH  11  12
ATOM     12  N   UNL     1       8.448  -1.614   1.743  0.00  0.00    +0.378 N 
ATOM     13  H   UNL     1       8.627  -0.626   1.649  0.00  0.00    -0.090 HD
ATOM     14  H   UNL     1       8.910  -1.962   2.571  0.00  0.00    -0.090 HD
ATOM     15  H   UNL     1       8.802  -2.099   0.932  0.00  0.00    -0.090 HD
ENDBRANCH  11  12
ENDBRANCH  10  11
ENDBRANCH   7  10
ENDBRANCH   1   4
BRANCH   1  16
ATOM     16  N   UNL     1       0.051  -2.796   2.390  0.00  0.00    -0.216 N 
ATOM     17  H   UNL     1      -0.487  -2.481   3.133  0.00  0.00    +0.174 HD
BRANCH  16  23
ATOM     18  C   UNL     1       0.515   1.662   0.375  0.00  0.00    +0.044 C 
ATOM     19  C   UNL     1       0.432   0.163   0.245  0.00  0.00    -0.046 A 
ATOM     20  C   UNL     1       0.507  -0.428  -1.003  0.00  0.00    +0.004 A 
ATOM     21  C   UNL     1       0.431  -1.803  -1.127  0.00  0.00    +0.002 A 
ATOM     22  C   UNL     1       0.280  -2.591  -0.004  0.00  0.00    +0.025 A 
ATOM     23  C   UNL     1       0.204  -2.002   1.252  0.00  0.00    +0.051 A 
ATOM     24  C   UNL     1       0.286  -0.620   1.373  0.00  0.00    -0.025 A 
ATOM     25  C   UNL     1       0.210   0.024   2.733  0.00  0.00    +0.046 C 
ENDBRANCH  16  23
ENDBRANCH   1  16
TORSDOF 6
