REMARK  Name = ZINC62980512
REMARK  5 active torsions:
REMARK  status: ('A' for Active; 'I' for Inactive)
REMARK    1  A    between atoms: C_1  and  C_2
REMARK    2  A    between atoms: C_2  and  C_4
REMARK    3  A    between atoms: C_2  and  N_8
REMARK    4  A    between atoms: N_5  and  O_6
REMARK    5  A    between atoms: C_11  and  N_14
REMARK                            x       y       z     vdW  Elec       q    Type
REMARK                         _______ _______ _______ _____ _____    ______ ____
ROOT
ATOM      1  N   UNL     1       0.579  -0.504   1.237  0.00  0.00    -0.295 NA
ATOM      2  C   UNL     1       2.008  -0.110   1.344  0.00  0.00    +0.083 C 
ATOM      3  C   UNL     1       2.611  -1.106   2.357  0.00  0.00    +0.001 C 
ATOM      4  C   UNL     1       1.690  -2.343   2.301  0.00  0.00    -0.053 C 
ATOM      5  C   UNL     1       0.608  -1.990   1.259  0.00  0.00    +0.070 C 
ENDROOT
BRANCH   4   6
ATOM      6  N   UNL     1       2.449  -3.525   1.872  0.00  0.00    +0.382 N 
ATOM      7  C   UNL     1       1.545  -4.678   1.783  0.00  0.00    -0.078 C 
ATOM      8  C   UNL     1       2.313  -5.894   1.259  0.00  0.00    -0.019 C 
ATOM      9  C   UNL     1       3.464  -6.216   2.217  0.00  0.00    -0.004 C 
ATOM     10  C   UNL     1       4.358  -4.981   2.359  0.00  0.00    -0.019 C 
ATOM     11  C   UNL     1       3.514  -3.800   2.843  0.00  0.00    -0.078 C 
ATOM     12  H   UNL     1       2.857  -3.350   0.966  0.00  0.00    -0.081 HD
ENDBRANCH   4   6
BRANCH   1  14
ATOM     13  C   UNL     1      -1.476  -0.444  -0.093  0.00  0.00    +0.032 C 
ATOM     14  C   UNL     1      -0.012  -0.007  -0.012  0.00  0.00    +0.120 C 
BRANCH  14  15
ATOM     15  C   UNL     1       0.065   1.497  -0.041  0.00  0.00    +0.149 C 
ATOM     16  N   UNL     1       0.791   2.090  -0.931  0.00  0.00    -0.075 NA
ATOM     17  N   UNL     1      -0.637   2.241   0.881  0.00  0.00    -0.343 N 
ATOM     18  H   UNL     1      -1.113   1.797   1.601  0.00  0.00    +0.144 HD
ATOM     19  H   UNL     1      -0.656   3.208   0.811  0.00  0.00    +0.144 HD
BRANCH  16  20
ATOM     20  O   UNL     1       0.863   3.504  -0.958  0.00  0.00    -0.408 OA
ATOM     21  H   UNL     1       1.430   3.855  -1.658  0.00  0.00    +0.328 HD
ENDBRANCH  16  20
ENDBRANCH  14  15
ENDBRANCH   1  14
TORSDOF 4
