REMARK  Name = ZINC39881504
REMARK  5 active torsions:
REMARK  status: ('A' for Active; 'I' for Inactive)
REMARK    1  A    between atoms: C_1  and  C_2
REMARK    2  A    between atoms: N_12  and  C_15
REMARK    3  A    between atoms: C_18  and  C_21
REMARK    4  A    between atoms: N_23  and  C_24
REMARK    5  A    between atoms: C_26  and  N_31
REMARK                            x       y       z     vdW  Elec       q    Type
REMARK                         _______ _______ _______ _____ _____    ______ ____
ROOT
ATOM      1  C   UNL     1       0.024  -4.529   4.776  0.00  0.00    +0.035 A 
ATOM      2  C   UNL     1       0.102  -3.170   5.071  0.00  0.00    +0.024 A 
ATOM      3  C   UNL     1       0.117  -2.749   6.381  0.00  0.00    +0.015 A 
ATOM      4  C   UNL     1       0.054  -3.687   7.416  0.00  0.00    +0.037 A 
ATOM      5  C   UNL     1      -0.024  -5.051   7.116  0.00  0.00    +0.015 A 
ATOM      6  C   UNL     1      -0.044  -5.465   5.804  0.00  0.00    +0.024 A 
ENDROOT
BRANCH   1  18
ATOM      7  C   UNL     1       6.164  -1.860   1.001  0.00  0.00    +0.044 C 
ATOM      8  C   UNL     1       4.928  -2.698   0.796  0.00  0.00    -0.048 A 
ATOM      9  C   UNL     1       4.674  -3.248  -0.459  0.00  0.00    +0.004 A 
ATOM     10  C   UNL     1       3.565  -4.009  -0.675  0.00  0.00    +0.010 A 
ATOM     11  C   UNL     1       2.668  -4.242   0.378  0.00  0.00    -0.001 A 
ATOM     12  C   UNL     1       1.509  -5.024   0.197  0.00  0.00    +0.017 A 
ATOM     13  C   UNL     1       0.682  -5.210   1.262  0.00  0.00    -0.007 A 
ATOM     14  C   UNL     1       0.978  -4.638   2.506  0.00  0.00    +0.107 A 
ATOM     15  N   UNL     1       2.074  -3.905   2.661  0.00  0.00    -0.342 N 
ATOM     16  C   UNL     1       2.923  -3.685   1.655  0.00  0.00    +0.048 A 
ATOM     17  C   UNL     1       4.081  -2.909   1.840  0.00  0.00    +0.029 A 
ATOM     18  N   UNL     1       0.008  -4.951   3.449  0.00  0.00    -0.286 N 
ATOM     19  C   UNL     1      -1.034  -5.789   2.852  0.00  0.00    +0.117 C 
ATOM     20  C   UNL     1      -0.612  -5.981   1.386  0.00  0.00    +0.058 C 
ATOM     21  H   UNL     1       2.262  -3.516   3.529  0.00  0.00    +0.167 HD
ENDBRANCH   1  18
BRANCH   4  22
ATOM     22  C   UNL     1       0.071  -3.240   8.821  0.00  0.00    +0.248 C 
ATOM     23  O   UNL     1       0.140  -2.054   9.081  0.00  0.00    -0.270 OA
ATOM     24  N   UNL     1       0.011  -4.145   9.818  0.00  0.00    -0.280 N 
ATOM     25  H   UNL     1       0.040  -5.093   9.614  0.00  0.00    +0.155 HD
BRANCH  24  26
ATOM     26  C   UNL     1      -0.093  -3.718  11.146  0.00  0.00    +0.050 A 
ATOM     27  C   UNL     1      -0.807  -2.567  11.452  0.00  0.00    +0.057 A 
ATOM     28  C   UNL     1      -0.908  -2.147  12.764  0.00  0.00    +0.128 A 
ATOM     29  C   UNL     1      -0.299  -2.872  13.773  0.00  0.00    +0.034 A 
ATOM     30  C   UNL     1       0.413  -4.018  13.471  0.00  0.00    +0.019 A 
ATOM     31  C   UNL     1       0.513  -4.447  12.161  0.00  0.00    +0.039 A 
ATOM     32 BR   UNL     1       1.480  -6.019  11.751  0.00  0.00    -0.048 Br
BRANCH  28  33
ATOM     33  N   UNL     1      -1.669  -0.921  13.092  0.00  0.00    +0.056 N 
ATOM     34  O   UNL     1      -2.201  -0.286  12.211  0.00  0.00    -0.126 OA
ATOM     35  O   UNL     1      -1.758  -0.553  14.240  0.00  0.00    -0.126 OA
ENDBRANCH  28  33
ENDBRANCH  24  26
ENDBRANCH   4  22
TORSDOF 4
