REMARK  Name = ZINC27355028
REMARK  12 active torsions:
REMARK  status: ('A' for Active; 'I' for Inactive)
REMARK    1  A    between atoms: C_1  and  C_2
REMARK    2  A    between atoms: C_4  and  C_28
REMARK    3  A    between atoms: C_5  and  N_9
REMARK    4  A    between atoms: C_6  and  C_8
REMARK    5  A    between atoms: C_10  and  C_12
REMARK    6  A    between atoms: C_12  and  N_13
REMARK    7  A    between atoms: N_13  and  C_14
REMARK    8  A    between atoms: N_13  and  C_15
REMARK    9  A    between atoms: C_15  and  C_17
REMARK   10  A    between atoms: C_15  and  C_18
REMARK   11  A    between atoms: N_24  and  C_25
REMARK   12  A    between atoms: N_24  and  C_26
REMARK                            x       y       z     vdW  Elec       q    Type
REMARK                         _______ _______ _______ _____ _____    ______ ____
ROOT
ATOM      1  N   UNL     1      -1.216  -0.025  -0.793  0.00  0.00    +0.390 N 
ATOM      2  C   UNL     1      -2.054   1.098  -1.234  0.00  0.00    -0.095 C 
ATOM      3  H   UNL     1      -1.867  -0.756  -0.291  0.00  0.00    -0.081 HD
ENDROOT
BRANCH   1   4
ATOM      4  C   UNL     1      -0.588  -0.694  -1.940  0.00  0.00    -0.002 C 
ATOM      5  C   UNL     1       0.195  -1.915  -1.452  0.00  0.00    -0.005 C 
BRANCH   4   6
ATOM      6  C   UNL     1      -1.653  -1.136  -2.910  0.00  0.00    +0.123 A 
ATOM      7  N   UNL     1      -2.745  -1.733  -2.463  0.00  0.00    -0.201 NA
ATOM      8  C   UNL     1      -3.688  -2.124  -3.316  0.00  0.00    +0.217 A 
ATOM      9  N   UNL     1      -3.532  -1.914  -4.619  0.00  0.00    -0.181 NA
ATOM     10  C   UNL     1      -2.433  -1.314  -5.064  0.00  0.00    +0.222 A 
ATOM     11  N   UNL     1      -1.496  -0.921  -4.204  0.00  0.00    -0.201 NA
ATOM     12  N   UNL     1      -2.266  -1.093  -6.416  0.00  0.00    -0.306 N 
ATOM     13  C   UNL     1      -3.301  -1.521  -7.361  0.00  0.00    +0.132 C 
ATOM     14  C   UNL     1      -1.055  -0.432  -6.906  0.00  0.00    +0.132 C 
ATOM     15  N   UNL     1      -4.827  -2.747  -2.849  0.00  0.00    -0.327 N 
ATOM     16  H   UNL     1      -5.606  -3.070  -3.555  0.00  0.00    +0.145 HD
ATOM     17  H   UNL     1      -4.956  -2.921  -1.770  0.00  0.00    +0.145 HD
ENDBRANCH   4   6
ENDBRANCH   1   4
BRANCH   1  18
ATOM     18  C   UNL     1      -0.205   0.420   0.175  0.00  0.00    +0.019 C 
BRANCH  18  20
ATOM     19  N   UNL     1      -0.154   1.330   2.475  0.00  0.00    -0.287 N 
ATOM     20  C   UNL     1      -0.887   0.876   1.440  0.00  0.00    +0.201 C 
ATOM     21  O   UNL     1      -2.097   0.834   1.525  0.00  0.00    -0.278 OA
ATOM     22  H   UNL     1       0.945   1.313   2.420  0.00  0.00    +0.155 HD
BRANCH  19  27
ATOM     23  C   UNL     1      -2.732   3.332   7.115  0.00  0.00    +0.044 C 
ATOM     24  C   UNL     1      -2.047   2.800   5.883  0.00  0.00    -0.050 A 
ATOM     25  C   UNL     1      -1.073   1.825   6.001  0.00  0.00    +0.008 A 
ATOM     26  C   UNL     1      -0.443   1.336   4.873  0.00  0.00    -0.029 A 
ATOM     27  C   UNL     1      -0.790   1.824   3.619  0.00  0.00    +0.039 A 
ATOM     28  C   UNL     1      -1.764   2.807   3.505  0.00  0.00    -0.029 A 
ATOM     29  C   UNL     1      -2.394   3.287   4.636  0.00  0.00    +0.008 A 
ATOM     30  C   UNL     1      -2.139   3.343   2.147  0.00  0.00    +0.045 C 
ATOM     31  C   UNL     1       0.618   0.275   5.002  0.00  0.00    +0.045 C 
ENDBRANCH  19  27
ENDBRANCH  18  20
ENDBRANCH   1  18
TORSDOF 5
