REMARK  Name = ZINC15377241
REMARK  9 active torsions:
REMARK  status: ('A' for Active; 'I' for Inactive)
REMARK    1  A    between atoms: C_1  and  C_2
REMARK    2  A    between atoms: C_2  and  C_3
REMARK    3  A    between atoms: C_2  and  C_4
REMARK    4  A    between atoms: C_2  and  N_39
REMARK    5  A    between atoms: C_5  and  C_6
REMARK    6  A    between atoms: C_5  and  N_39
REMARK    7  A    between atoms: N_8  and  C_9
REMARK    8  A    between atoms: C_9  and  C_10
REMARK    9  A    between atoms: N_12  and  C_13
REMARK                            x       y       z     vdW  Elec       q    Type
REMARK                         _______ _______ _______ _____ _____    ______ ____
ROOT
ATOM      1  C   UNL     1       3.671   1.508   0.008  0.00  0.00    +0.196 C 
ATOM      2  O   UNL     1       3.877   2.703   0.018  0.00  0.00    -0.278 OA
ATOM      3  N   UNL     1       2.406   1.042   0.007  0.00  0.00    -0.308 N 
ATOM      4  H   UNL     1       2.242   0.086  -0.001  0.00  0.00    +0.149 HD
ENDROOT
BRANCH   1   5
ATOM      5  C   UNL     1       4.829   0.544  -0.004  0.00  0.00    +0.016 C 
BRANCH   5   6
ATOM      6  N   UNL     1       6.092   1.306  -0.000  0.00  0.00    +0.388 N 
ATOM      7  H   UNL     1       6.129   1.904  -0.834  0.00  0.00    -0.084 HD
ATOM      8  H   UNL     1       6.133   1.890   0.843  0.00  0.00    -0.084 HD
BRANCH   6  10
ATOM      9  C   UNL     1       7.196  -0.486  -1.268  0.00  0.00    -0.011 C 
ATOM     10  C   UNL     1       7.245   0.386  -0.011  0.00  0.00    -0.076 C 
ATOM     11  C   UNL     1       8.539   1.203  -0.007  0.00  0.00    -0.011 C 
ATOM     12  C   UNL     1       7.203  -0.507   1.230  0.00  0.00    -0.011 C 
ENDBRANCH   6  10
ENDBRANCH   5   6
ENDBRANCH   1   5
BRANCH   3  13
ATOM     13  C   UNL     1       1.280   1.979   0.018  0.00  0.00    +0.200 C 
BRANCH  13  14
ATOM     14  C   UNL     1      -0.015   1.208   0.015  0.00  0.00    +0.234 C 
ATOM     15  O   UNL     1       0.001  -0.004   0.004  0.00  0.00    -0.274 OA
ATOM     16  N   UNL     1      -1.191   1.867   0.018  0.00  0.00    -0.283 N 
ATOM     17  H   UNL     1      -1.205   2.834   0.092  0.00  0.00    +0.155 HD
BRANCH  16  18
ATOM     18  C   UNL     1      -2.391   1.155  -0.086  0.00  0.00    +0.047 A 
ATOM     19  C   UNL     1      -2.510  -0.099   0.499  0.00  0.00    +0.024 A 
ATOM     20  C   UNL     1      -3.698  -0.796   0.399  0.00  0.00    +0.002 A 
ATOM     21  C   UNL     1      -4.765  -0.252  -0.291  0.00  0.00    +0.001 A 
ATOM     22  C   UNL     1      -4.649   0.994  -0.880  0.00  0.00    +0.017 A 
ATOM     23  C   UNL     1      -3.465   1.699  -0.779  0.00  0.00    +0.039 A 
ATOM     24 BR   UNL     1      -3.307   3.402  -1.585  0.00  0.00    -0.048 Br
ENDBRANCH  16  18
ENDBRANCH  13  14
ENDBRANCH   3  13
TORSDOF 6
