REMARK  Name = ZINC66701279
REMARK  10 active torsions:
REMARK  status: ('A' for Active; 'I' for Inactive)
REMARK    1  A    between atoms: C_1  and  C_2
REMARK    2  A    between atoms: C_2  and  O_3
REMARK    3  A    between atoms: O_3  and  C_4
REMARK    4  A    between atoms: C_4  and  C_5
REMARK    5  A    between atoms: N_7  and  N_8
REMARK    6  A    between atoms: N_11  and  C_12
REMARK    7  A    between atoms: C_12  and  C_14
REMARK    8  A    between atoms: C_12  and  C_15
REMARK    9  A    between atoms: C_15  and  N_16
REMARK   10  A    between atoms: C_20  and  C_23
REMARK                            x       y       z     vdW  Elec       q    Type
REMARK                         _______ _______ _______ _____ _____    ______ ____
ROOT
ATOM      1  N   UNL     1      -4.564  -4.019   0.024  0.00  0.00    -0.218 N 
ATOM      2  C   UNL     1      -4.896  -5.325   0.020  0.00  0.00    +0.316 C 
ATOM      3  O   UNL     1      -6.066  -5.654   0.030  0.00  0.00    -0.251 OA
ATOM      4  N   UNL     1      -3.931  -6.266   0.006  0.00  0.00    -0.297 N 
ATOM      5  H   UNL     1      -5.258  -3.341   0.034  0.00  0.00    +0.174 HD
ATOM      6  H   UNL     1      -2.998  -6.003  -0.002  0.00  0.00    +0.150 HD
ENDROOT
BRANCH   1   9
ATOM      7  C   UNL     1      -2.883  -2.333   0.017  0.00  0.00    +0.255 C 
ATOM      8  O   UNL     1      -3.751  -1.486   0.030  0.00  0.00    -0.272 OA
ATOM      9  N   UNL     1      -3.215  -3.639   0.013  0.00  0.00    -0.231 N 
ATOM     10  H   UNL     1      -2.521  -4.316   0.003  0.00  0.00    +0.173 HD
BRANCH   7  11
ATOM     11  C   UNL     1      -1.432  -1.925   0.005  0.00  0.00    +0.256 C 
BRANCH  11  12
ATOM     12  O   UNL     1      -1.339  -0.499   0.012  0.00  0.00    -0.371 OA
BRANCH  12  14
ATOM     13  C   UNL     1      -0.019   1.526   0.010  0.00  0.00    +0.034 C 
ATOM     14  C   UNL     1       0.002  -0.004   0.002  0.00  0.00    +0.157 C 
ENDBRANCH  12  14
ENDBRANCH  11  12
ENDBRANCH   7  11
ENDBRANCH   1   9
BRANCH   4  15
ATOM     15  C   UNL     1      -4.293  -7.686   0.002  0.00  0.00    +0.055 C 
ATOM     16  C   UNL     1      -4.526  -8.156   1.439  0.00  0.00    +0.026 C 
BRANCH  15  17
ATOM     17  C   UNL     1      -3.157  -8.499  -0.623  0.00  0.00    -0.057 C 
BRANCH  17  18
ATOM     18  N   UNL     1      -2.852  -7.968  -1.958  0.00  0.00    +0.381 N 
ATOM     19  C   UNL     1      -4.011  -8.164  -2.838  0.00  0.00    -0.079 C 
ATOM     20  C   UNL     1      -3.729  -7.541  -4.206  0.00  0.00    -0.018 C 
ATOM     21  C   UNL     1      -2.499  -8.213  -4.823  0.00  0.00    -0.001 C 
ATOM     22  C   UNL     1      -1.314  -8.066  -3.864  0.00  0.00    -0.031 C 
ATOM     23  C   UNL     1      -1.686  -8.670  -2.508  0.00  0.00    -0.076 C 
ATOM     24  C   UNL     1      -0.100  -8.801  -4.435  0.00  0.00    +0.005 C 
ATOM     25  H   UNL     1      -2.648  -6.982  -1.889  0.00  0.00    -0.082 HD
ENDBRANCH  17  18
ENDBRANCH  15  17
ENDBRANCH   4  15
TORSDOF 7
