REMARK  Name = ZINC32535249
REMARK  11 active torsions:
REMARK  status: ('A' for Active; 'I' for Inactive)
REMARK    1  A    between atoms: C_1  and  C_2
REMARK    2  A    between atoms: C_2  and  O_3
REMARK    3  A    between atoms: O_3  and  C_4
REMARK    4  A    between atoms: C_4  and  C_6
REMARK    5  A    between atoms: C_16  and  C_18
REMARK    6  A    between atoms: C_18  and  C_20
REMARK    7  A    between atoms: C_18  and  S_21
REMARK    8  A    between atoms: S_21  and  C_22
REMARK    9  A    between atoms: C_28  and  C_37
REMARK   10  A    between atoms: C_30  and  C_36
REMARK   11  A    between atoms: C_33  and  C_35
REMARK                            x       y       z     vdW  Elec       q    Type
REMARK                         _______ _______ _______ _____ _____    ______ ____
ROOT
ATOM      1  C   UNL     1       5.669   2.847  -2.394  0.00  0.00    +0.137 C 
ATOM      2  C   UNL     1       6.521   2.820  -1.123  0.00  0.00    +0.029 C 
ENDROOT
BRANCH   1  13
ATOM      3  C   UNL     1       9.502  -1.965  -8.292  0.00  0.00    +0.060 A 
ATOM      4  C   UNL     1       8.411  -2.578  -7.658  0.00  0.00    +0.017 A 
ATOM      5  C   UNL     1       7.699  -1.938  -6.698  0.00  0.00    +0.030 A 
ATOM      6  C   UNL     1       8.033  -0.621  -6.296  0.00  0.00    +0.080 A 
ATOM      7  C   UNL     1       9.138  -0.023  -6.951  0.00  0.00    +0.042 A 
ATOM      8  C   UNL     1       9.858  -0.664  -7.920  0.00  0.00    +0.032 A 
ATOM      9  S   UNL     1       9.210   1.578  -6.183  0.00  0.00    -0.052 S 
ATOM     10  C   UNL     1       7.826   1.354  -5.074  0.00  0.00    +0.165 A 
ATOM     11  N   UNL     1       7.428   0.136  -5.367  0.00  0.00    -0.225 NA
ATOM     12  N   UNL     1       7.303   2.240  -4.148  0.00  0.00    -0.264 N 
ATOM     13  C   UNL     1       6.239   1.883  -3.402  0.00  0.00    +0.232 C 
ATOM     14  O   UNL     1       5.740   0.787  -3.542  0.00  0.00    -0.274 OA
ATOM     15  H   UNL     1       7.755   3.234  -4.022  0.00  0.00    +0.157 HD
BRANCH   3  16
ATOM     16  C   UNL     1      10.260  -2.680  -9.334  0.00  0.00    +0.339 C 
ATOM     17  O   UNL     1      11.203  -2.139  -9.877  0.00  0.00    -0.245 OA
BRANCH  16  18
ATOM     18  O   UNL     1       9.908  -3.932  -9.684  0.00  0.00    -0.461 OA
BRANCH  18  20
ATOM     19  C   UNL     1      10.153  -5.981 -10.978  0.00  0.00    +0.048 C 
ATOM     20  C   UNL     1      10.699  -4.575 -10.717  0.00  0.00    +0.229 C 
ENDBRANCH  18  20
ENDBRANCH  16  18
ENDBRANCH   3  16
ENDBRANCH   1  13
BRANCH   1  21
ATOM     21  S   UNL     1       3.971   2.366  -1.992  0.00  0.00    -0.073 S 
BRANCH  21  22
ATOM     22  C   UNL     1       3.512   3.708  -0.945  0.00  0.00    +0.197 A 
ATOM     23  N   UNL     1       4.281   4.746  -0.675  0.00  0.00    -0.122 NA
ATOM     24  N   UNL     1       3.596   5.654  -0.085  0.00  0.00    -0.129 NA
ATOM     25  C   UNL     1       2.352   5.238   0.060  0.00  0.00    +0.162 A 
ATOM     26  N   UNL     1       2.319   3.910  -0.318  0.00  0.00    -0.270 N 
ATOM     27  C   UNL     1       1.190   3.152  -0.068  0.00  0.00    +0.061 A 
ATOM     28  C   UNL     1       1.183   1.771   0.000  0.00  0.00    -0.026 A 
ATOM     29  C   UNL     1      -0.013   1.075   0.008  0.00  0.00    +0.008 A 
ATOM     30  C   UNL     1      -1.221   1.751   0.029  0.00  0.00    -0.050 A 
ATOM     31  C   UNL     1      -1.238   3.127   0.104  0.00  0.00    +0.013 A 
ATOM     32  C   UNL     1      -0.033   3.831   0.159  0.00  0.00    +0.002 A 
ATOM     33  C   UNL     1      -0.009   5.262   0.468  0.00  0.00    -0.038 A 
ATOM     34  C   UNL     1       1.177   5.913   0.463  0.00  0.00    +0.052 A 
ATOM     35  C   UNL     1      -1.269   6.007   0.825  0.00  0.00    +0.044 C 
ATOM     36  C   UNL     1      -2.517   0.986  -0.036  0.00  0.00    +0.044 C 
ATOM     37  C   UNL     1       2.456   0.978   0.156  0.00  0.00    +0.046 C 
ENDBRANCH  21  22
ENDBRANCH   1  21
TORSDOF 6
