REMARK  Name = ZINC04416338
REMARK  11 active torsions:
REMARK  status: ('A' for Active; 'I' for Inactive)
REMARK    1  A    between atoms: C_1  and  C_2
REMARK    2  A    between atoms: C_4  and  O_37
REMARK    3  A    between atoms: C_6  and  O_36
REMARK    4  A    between atoms: C_8  and  O_35
REMARK    5  A    between atoms: C_10  and  O_13
REMARK    6  A    between atoms: O_13  and  C_14
REMARK    7  A    between atoms: C_18  and  O_34
REMARK    8  A    between atoms: C_20  and  O_33
REMARK    9  A    between atoms: C_24  and  C_25
REMARK   10  A    between atoms: C_28  and  O_32
REMARK   11  A    between atoms: C_29  and  O_31
REMARK                            x       y       z     vdW  Elec       q    Type
REMARK                         _______ _______ _______ _____ _____    ______ ____
ROOT
ATOM      1  C   UNL     1       2.836  -1.937   2.550  0.00  0.00    +0.214 A 
ATOM      2  C   UNL     1       3.556  -2.340   3.704  0.00  0.00    +0.238 A 
ATOM      3  O   UNL     1       3.049  -3.060   4.549  0.00  0.00    -0.283 OA
ATOM      4  C   UNL     1       4.939  -1.856   3.843  0.00  0.00    +0.109 A 
ATOM      5  C   UNL     1       5.724  -2.205   4.950  0.00  0.00    +0.135 A 
ATOM      6  C   UNL     1       7.019  -1.730   5.044  0.00  0.00    +0.091 A 
ATOM      7  C   UNL     1       7.537  -0.912   4.045  0.00  0.00    +0.124 A 
ATOM      8  C   UNL     1       6.767  -0.563   2.947  0.00  0.00    +0.092 A 
ATOM      9  C   UNL     1       5.466  -1.029   2.835  0.00  0.00    +0.147 A 
ATOM     10  O   UNL     1       4.703  -0.698   1.772  0.00  0.00    -0.451 OA
ATOM     11  C   UNL     1       3.441  -1.137   1.628  0.00  0.00    +0.181 A 
ENDROOT
BRANCH  11  12
ATOM     12  C   UNL     1       2.681  -0.732   0.431  0.00  0.00    +0.025 A 
ATOM     13  C   UNL     1       1.381  -0.236   0.562  0.00  0.00    +0.015 A 
ATOM     14  C   UNL     1       0.672   0.142  -0.558  0.00  0.00    +0.050 A 
ATOM     15  C   UNL     1       1.246   0.031  -1.817  0.00  0.00    +0.158 A 
ATOM     16  C   UNL     1       2.542  -0.463  -1.955  0.00  0.00    +0.159 A 
ATOM     17  C   UNL     1       3.261  -0.838  -0.836  0.00  0.00    +0.060 A 
BRANCH  16  18
ATOM     18  O   UNL     1       3.101  -0.569  -3.190  0.00  0.00    -0.503 OA
ATOM     19  H   UNL     1       3.583   0.220  -3.473  0.00  0.00    +0.292 HD
ENDBRANCH  16  18
BRANCH  15  20
ATOM     20  O   UNL     1       0.543   0.405  -2.918  0.00  0.00    -0.503 OA
ATOM     21  H   UNL     1       0.659   1.333  -3.163  0.00  0.00    +0.292 HD
ENDBRANCH  15  20
ENDBRANCH  11  12
BRANCH   7  22
ATOM     22  O   UNL     1       8.810  -0.451   4.148  0.00  0.00    -0.507 OA
ATOM     23  H   UNL     1       9.471  -1.030   3.745  0.00  0.00    +0.292 HD
ENDBRANCH   7  22
BRANCH   5  24
ATOM     24  O   UNL     1       5.216  -3.002   5.924  0.00  0.00    -0.506 OA
ATOM     25  H   UNL     1       5.361  -3.947   5.774  0.00  0.00    +0.292 HD
ENDBRANCH   5  24
BRANCH   1  26
ATOM     26  O   UNL     1       1.553  -2.350   2.363  0.00  0.00    -0.453 OA
BRANCH  26  32
ATOM     27  C   UNL     1       2.326  -5.791  -0.810  0.00  0.00    +0.041 C 
ATOM     28  C   UNL     1       1.723  -5.509   0.568  0.00  0.00    +0.150 C 
ATOM     29  C   UNL     1       0.240  -5.889   0.565  0.00  0.00    +0.174 C 
ATOM     30  C   UNL     1      -0.369  -5.547   1.928  0.00  0.00    +0.180 C 
ATOM     31  C   UNL     1      -0.152  -4.058   2.213  0.00  0.00    +0.214 C 
ATOM     32  C   UNL     1       1.347  -3.749   2.153  0.00  0.00    +0.339 C 
ATOM     33  O   UNL     1       1.857  -4.119   0.871  0.00  0.00    -0.334 OA
BRANCH  31  34
ATOM     34  O   UNL     1      -0.841  -3.279   1.235  0.00  0.00    -0.383 OA
ATOM     35  H   UNL     1      -0.747  -2.324   1.355  0.00  0.00    +0.210 HD
ENDBRANCH  31  34
BRANCH  30  36
ATOM     36  O   UNL     1      -1.769  -5.833   1.910  0.00  0.00    -0.386 OA
ATOM     37  H   UNL     1      -2.221  -5.640   2.744  0.00  0.00    +0.210 HD
ENDBRANCH  30  36
BRANCH  29  38
ATOM     38  O   UNL     1      -0.438  -5.159  -0.459  0.00  0.00    -0.387 OA
ATOM     39  H   UNL     1      -0.099  -5.324  -1.350  0.00  0.00    +0.210 HD
ENDBRANCH  29  38
ENDBRANCH  26  32
ENDBRANCH   1  26
TORSDOF 10
