REMARK  Name = ZINC15446422
REMARK  11 active torsions:
REMARK  status: ('A' for Active; 'I' for Inactive)
REMARK    1  A    between atoms: C_1  and  N_52
REMARK    2  A    between atoms: C_2  and  C_3
REMARK    3  A    between atoms: C_2  and  N_52
REMARK    4  A    between atoms: N_5  and  C_6
REMARK    5  A    between atoms: C_11  and  C_12
REMARK    6  A    between atoms: C_16  and  C_17
REMARK    7  A    between atoms: C_16  and  N_52
REMARK    8  A    between atoms: N_19  and  C_20
REMARK    9  A    between atoms: C_25  and  S_26
REMARK   10  A    between atoms: S_26  and  C_27
REMARK   11  A    between atoms: C_27  and  C_28
REMARK                            x       y       z     vdW  Elec       q    Type
REMARK                         _______ _______ _______ _____ _____    ______ ____
ROOT
ATOM      1  C   UNL     1       2.934   0.418   1.089  0.00  0.00    -0.095 C 
ATOM      2  N   UNL     1       2.913   1.205  -0.162  0.00  0.00    +0.389 N 
ATOM      3  H   UNL     1       2.748   0.570  -0.952  0.00  0.00    -0.081 HD
ENDROOT
BRANCH   2   4
ATOM      4  C   UNL     1       1.823   2.203  -0.113  0.00  0.00    +0.019 C 
BRANCH   4   5
ATOM      5  C   UNL     1       0.501   1.480  -0.139  0.00  0.00    +0.201 C 
ATOM      6  O   UNL     1       0.472   0.268  -0.176  0.00  0.00    -0.278 OA
ATOM      7  N   UNL     1      -0.650   2.181  -0.126  0.00  0.00    -0.287 N 
ATOM      8  H   UNL     1      -0.629   3.147  -0.039  0.00  0.00    +0.155 HD
BRANCH   7   9
ATOM      9  C   UNL     1      -1.876   1.516  -0.237  0.00  0.00    +0.045 A 
ATOM     10  C   UNL     1      -1.987   0.190   0.162  0.00  0.00    +0.024 A 
ATOM     11  C   UNL     1      -3.199  -0.463   0.055  0.00  0.00    +0.002 A 
ATOM     12  C   UNL     1      -4.300   0.199  -0.459  0.00  0.00    +0.001 A 
ATOM     13  C   UNL     1      -4.191   1.517  -0.861  0.00  0.00    +0.014 A 
ATOM     14  C   UNL     1      -2.983   2.177  -0.752  0.00  0.00    +0.076 A 
BRANCH  14  15
ATOM     15  C   UNL     1      -2.865   3.614  -1.192  0.00  0.00    +0.419 C 
ATOM     16  F   UNL     1      -4.103   4.057  -1.671  0.00  0.00    -0.166 F 
ATOM     17  F   UNL     1      -2.475   4.404  -0.105  0.00  0.00    -0.166 F 
ATOM     18  F   UNL     1      -1.909   3.714  -2.208  0.00  0.00    -0.166 F 
ENDBRANCH  14  15
ENDBRANCH   7   9
ENDBRANCH   4   5
ENDBRANCH   2   4
BRANCH   2  19
ATOM     19  C   UNL     1       4.211   1.884  -0.355  0.00  0.00    +0.019 C 
BRANCH  19  20
ATOM     20  C   UNL     1       5.269   0.844  -0.621  0.00  0.00    +0.201 C 
ATOM     21  O   UNL     1       4.973  -0.333  -0.632  0.00  0.00    -0.278 OA
ATOM     22  N   UNL     1       6.543   1.221  -0.848  0.00  0.00    -0.286 N 
ATOM     23  H   UNL     1       6.795   2.154  -0.761  0.00  0.00    +0.155 HD
BRANCH  22  24
ATOM     24  C   UNL     1       7.502   0.266  -1.210  0.00  0.00    +0.047 A 
ATOM     25  C   UNL     1       7.143  -0.818  -1.995  0.00  0.00    +0.024 A 
ATOM     26  C   UNL     1       8.092  -1.757  -2.355  0.00  0.00    +0.002 A 
ATOM     27  C   UNL     1       9.400  -1.624  -1.925  0.00  0.00    +0.001 A 
ATOM     28  C   UNL     1       9.766  -0.550  -1.137  0.00  0.00    +0.016 A 
ATOM     29  C   UNL     1       8.821   0.400  -0.775  0.00  0.00    +0.029 A 
BRANCH  29  30
ATOM     30  S   UNL     1       9.285   1.771   0.230  0.00  0.00    -0.119 S 
BRANCH  30  31
ATOM     31  C   UNL     1      11.055   1.514   0.532  0.00  0.00    +0.101 C 
BRANCH  31  32
ATOM     32  C   UNL     1      11.586   2.632   1.393  0.00  0.00    -0.024 C 
ATOM     33  C   UNL     1      12.030   2.377   2.598  0.00  0.00    +0.005 C 
ENDBRANCH  31  32
ENDBRANCH  30  31
ENDBRANCH  29  30
ENDBRANCH  22  24
ENDBRANCH  19  20
ENDBRANCH   2  19
TORSDOF 10
