REMARK  Name = ZINC39334780
REMARK  3 active torsions:
REMARK  status: ('A' for Active; 'I' for Inactive)
REMARK    1  A    between atoms: C_1  and  C_2
REMARK    2  A    between atoms: C_3  and  C_13
REMARK    3  A    between atoms: C_8  and  C_10
REMARK                            x       y       z     vdW  Elec       q    Type
REMARK                         _______ _______ _______ _____ _____    ______ ____
ROOT
ATOM      1  C   UNL     1      -0.018   1.503   0.010  0.00  0.00    +0.042 C 
ATOM      2  C   UNL     1       0.002  -0.004   0.002  0.00  0.00    -0.029 C 
ATOM      3  C   UNL     1       0.006  -0.700  -1.158  0.00  0.00    +0.089 C 
ATOM      4  C   UNL     1       0.026  -2.171  -1.137  0.00  0.00    +0.124 C 
ATOM      5  N   UNL     1       0.041  -2.870  -0.024  0.00  0.00    -0.194 NA
ATOM      6  C   UNL     1       0.039  -2.306   1.182  0.00  0.00    +0.097 C 
ATOM      7  S   UNL     1       0.059  -3.277   2.592  0.00  0.00    -0.036 S 
ATOM      8  C   UNL     1       0.025  -0.798   1.292  0.00  0.00    +0.172 C 
ATOM      9  N   UNL     1       0.030  -2.840  -2.329  0.00  0.00    -0.344 N 
ATOM     10  H   UNL     1       0.019  -2.345  -3.163  0.00  0.00    +0.144 HD
ATOM     11  H   UNL     1       0.043  -3.810  -2.341  0.00  0.00    +0.144 HD
ENDROOT
BRANCH   8  12
ATOM     12  C   UNL     1       1.215  -0.385   2.055  0.00  0.00    +0.077 C 
ATOM     13  N   UNL     1       2.133  -0.067   2.643  0.00  0.00    -0.196 NA
ENDBRANCH   8  12
BRANCH   3  14
ATOM     14  C   UNL     1      -0.009  -0.004  -2.409  0.00  0.00    +0.102 C 
ATOM     15  N   UNL     1      -0.022   0.549  -3.402  0.00  0.00    -0.191 NA
ENDBRANCH   3  14
TORSDOF 2
