REMARK  Name = ZINC43226720
REMARK  10 active torsions:
REMARK  status: ('A' for Active; 'I' for Inactive)
REMARK    1  A    between atoms: C_1  and  C_2
REMARK    2  A    between atoms: C_2  and  C_3
REMARK    3  A    between atoms: C_3  and  C_4
REMARK    4  A    between atoms: C_4  and  C_6
REMARK    5  A    between atoms: C_4  and  N_27
REMARK    6  A    between atoms: C_8  and  C_11
REMARK    7  A    between atoms: N_13  and  C_14
REMARK    8  A    between atoms: C_14  and  C_15
REMARK    9  A    between atoms: C_24  and  C_25
REMARK   10  A    between atoms: C_24  and  C_26
REMARK                            x       y       z     vdW  Elec       q    Type
REMARK                         _______ _______ _______ _____ _____    ______ ____
ROOT
ATOM      1  C   UNL     1       0.738  -4.011  -5.683  0.00  0.00    +0.263 C 
ATOM      2  O   UNL     1       1.457  -4.302  -6.620  0.00  0.00    -0.269 OA
ATOM      3  N   UNL     1      -0.592  -4.208  -5.767  0.00  0.00    -0.310 N 
ATOM      4  H   UNL     1      -1.165  -3.976  -5.019  0.00  0.00    +0.149 HD
ENDROOT
BRANCH   1   7
ATOM      5  C   UNL     1       1.162  -2.613  -2.351  0.00  0.00    +0.065 A 
ATOM      6  N   UNL     1       0.570  -3.110  -3.403  0.00  0.00    -0.241 NA
ATOM      7  C   UNL     1       1.323  -3.444  -4.456  0.00  0.00    +0.133 A 
ATOM      8  C   UNL     1       2.668  -3.228  -4.327  0.00  0.00    +0.079 A 
ATOM      9  S   UNL     1       2.784  -2.581  -2.780  0.00  0.00    -0.081 S 
BRANCH   5  10
ATOM     10  C   UNL     1       0.534  -2.166  -1.056  0.00  0.00    -0.018 C 
BRANCH  10  11
ATOM     11  N   UNL     1       1.327  -2.671   0.073  0.00  0.00    +0.384 N 
ATOM     12  H   UNL     1       0.907  -2.372   0.940  0.00  0.00    -0.089 HD
ATOM     13  H   UNL     1       1.353  -3.679   0.042  0.00  0.00    -0.089 HD
ATOM     14  H   UNL     1       2.267  -2.309   0.012  0.00  0.00    -0.089 HD
ENDBRANCH  10  11
BRANCH  10  15
ATOM     15  C   UNL     1       0.496  -0.637  -1.008  0.00  0.00    -0.010 C 
BRANCH  15  17
ATOM     16  C   UNL     1      -0.290   1.345   0.294  0.00  0.00    +0.004 C 
ATOM     17  C   UNL     1      -0.252  -0.184   0.247  0.00  0.00    -0.005 C 
ENDBRANCH  15  17
ENDBRANCH  10  15
ENDBRANCH   5  10
ENDBRANCH   1   7
BRANCH   3  18
ATOM     18  C   UNL     1      -1.173  -4.772  -6.988  0.00  0.00    +0.108 C 
BRANCH  18  19
ATOM     19  C   UNL     1      -2.692  -4.891  -6.823  0.00  0.00    +0.010 C 
ATOM     20  C   UNL     1      -3.037  -5.845  -5.688  0.00  0.00    +0.005 C 
ATOM     21  C   UNL     1      -4.338  -6.603  -5.921  0.00  0.00    +0.004 C 
ATOM     22  C   UNL     1      -4.736  -6.651  -7.396  0.00  0.00    -0.005 C 
ATOM     23  C   UNL     1      -4.890  -5.232  -7.984  0.00  0.00    +0.008 C 
ATOM     24  C   UNL     1      -3.350  -5.298  -8.140  0.00  0.00    -0.000 C 
ATOM     25  C   UNL     1      -3.546  -6.800  -8.354  0.00  0.00    -0.029 C 
ATOM     26  C   UNL     1      -3.973  -7.158  -9.792  0.00  0.00    +0.011 C 
ATOM     27  C   UNL     1      -2.430  -7.721  -7.873  0.00  0.00    +0.011 C 
ENDBRANCH  18  19
ENDBRANCH   3  18
TORSDOF 7
