REMARK  Name = ZINC09542766
REMARK  10 active torsions:
REMARK  status: ('A' for Active; 'I' for Inactive)
REMARK    1  A    between atoms: C_1  and  C_2
REMARK    2  A    between atoms: C_2  and  O_3
REMARK    3  A    between atoms: O_3  and  C_4
REMARK    4  A    between atoms: C_8  and  C_11
REMARK    5  A    between atoms: C_9  and  O_10
REMARK    6  A    between atoms: C_14  and  C_27
REMARK    7  A    between atoms: C_16  and  C_18
REMARK    8  A    between atoms: C_21  and  O_25
REMARK    9  A    between atoms: O_25  and  C_26
REMARK   10  A    between atoms: C_30  and  C_33
REMARK                            x       y       z     vdW  Elec       q    Type
REMARK                         _______ _______ _______ _____ _____    ______ ____
ROOT
ATOM      1  C   UNL     1       2.404  -4.321   0.346  0.00  0.00    -0.028 C 
ATOM      2  C   UNL     1       2.585  -2.849  -0.044  0.00  0.00    +0.044 C 
ATOM      3  C   UNL     1       1.250  -2.158  -0.021  0.00  0.00    +0.040 C 
ATOM      4  N   UNL     1       0.137  -2.789  -0.013  0.00  0.00    -0.299 NA
ATOM      5  C   UNL     1       0.020  -4.242  -0.010  0.00  0.00    +0.081 C 
ATOM      6  N   UNL     1       1.280  -4.868  -0.438  0.00  0.00    +0.401 N 
ATOM      7  H   UNL     1       1.223  -5.883  -0.290  0.00  0.00    -0.081 HD
ATOM      8  H   UNL     1       1.434  -4.676  -1.435  0.00  0.00    -0.081 HD
ENDROOT
BRANCH   5   9
ATOM      9  C   UNL     1      -1.081  -4.654  -0.954  0.00  0.00    -0.039 A 
ATOM     10  C   UNL     1      -1.009  -5.869  -1.608  0.00  0.00    +0.007 A 
ATOM     11  C   UNL     1      -2.019  -6.251  -2.470  0.00  0.00    +0.047 A 
ATOM     12  C   UNL     1      -3.100  -5.410  -2.687  0.00  0.00    +0.134 A 
ATOM     13  C   UNL     1      -3.167  -4.188  -2.033  0.00  0.00    +0.060 A 
ATOM     14  C   UNL     1      -2.157  -3.812  -1.167  0.00  0.00    +0.022 A 
ATOM     15 BR   UNL     1      -4.639  -3.037  -2.325  0.00  0.00    -0.047 Br
BRANCH  12  16
ATOM     16  O   UNL     1      -4.092  -5.782  -3.539  0.00  0.00    -0.494 OA
ATOM     17  C   UNL     1      -3.957  -7.053  -4.177  0.00  0.00    +0.277 C 
ENDBRANCH  12  16
ENDBRANCH   5   9
BRANCH   3  18
ATOM     18  C   UNL     1       1.222  -0.682  -0.013  0.00  0.00    -0.004 A 
ATOM     19  C   UNL     1       0.002  -0.004   0.002  0.00  0.00    +0.010 A 
ATOM     20  C   UNL     1      -0.017   1.375   0.010  0.00  0.00    +0.004 A 
ATOM     21  C   UNL     1       1.170   2.086   0.002  0.00  0.00    -0.050 A 
ATOM     22  C   UNL     1       2.383   1.421  -0.013  0.00  0.00    +0.004 A 
ATOM     23  C   UNL     1       2.416   0.042  -0.021  0.00  0.00    +0.010 A 
ATOM     24  C   UNL     1       1.142   3.593   0.010  0.00  0.00    +0.044 C 
ENDBRANCH   3  18
BRANCH   1  29
ATOM     25  C   UNL     1       5.852  -5.851   0.657  0.00  0.00    +0.162 A 
ATOM     26  C   UNL     1       5.970  -6.503  -0.560  0.00  0.00    +0.049 A 
ATOM     27  C   UNL     1       4.938  -6.447  -1.477  0.00  0.00    +0.004 A 
ATOM     28  C   UNL     1       3.785  -5.741  -1.183  0.00  0.00    +0.006 A 
ATOM     29  C   UNL     1       3.661  -5.089   0.029  0.00  0.00    -0.016 A 
ATOM     30  C   UNL     1       4.695  -5.137   0.951  0.00  0.00    +0.160 A 
BRANCH  30  31
ATOM     31  O   UNL     1       4.576  -4.492   2.142  0.00  0.00    -0.503 OA
ATOM     32  H   UNL     1       4.189  -5.032   2.845  0.00  0.00    +0.292 HD
ENDBRANCH  30  31
BRANCH  25  33
ATOM     33  O   UNL     1       6.867  -5.906   1.561  0.00  0.00    -0.489 OA
BRANCH  33  35
ATOM     34  C   UNL     1       9.053  -6.601   2.323  0.00  0.00    +0.048 C 
ATOM     35  C   UNL     1       8.027  -6.654   1.189  0.00  0.00    +0.226 C 
ENDBRANCH  33  35
ENDBRANCH  25  33
ENDBRANCH   1  29
TORSDOF 7
