REMARK  Name = ZINC20758590
REMARK  7 active torsions:
REMARK  status: ('A' for Active; 'I' for Inactive)
REMARK    1  A    between atoms: C_1  and  C_2
REMARK    2  A    between atoms: C_5  and  N_8
REMARK    3  A    between atoms: C_9  and  C_11
REMARK    4  A    between atoms: C_11  and  S_12
REMARK    5  A    between atoms: S_12  and  C_13
REMARK    6  A    between atoms: C_17  and  C_21
REMARK    7  A    between atoms: N_24  and  C_25
REMARK                            x       y       z     vdW  Elec       q    Type
REMARK                         _______ _______ _______ _____ _____    ______ ____
ROOT
ATOM      1  C   UNL     1       3.864  -6.549  -0.522  0.00  0.00    +0.177 A 
ATOM      2  N   UNL     1       2.632  -6.996  -0.490  0.00  0.00    -0.201 NA
ATOM      3  C   UNL     1       2.339  -8.302  -0.580  0.00  0.00    +0.187 A 
ATOM      4  C   UNL     1       3.374  -9.237  -0.712  0.00  0.00    +0.082 A 
ATOM      5  C   UNL     1       2.783 -10.511  -0.782  0.00  0.00    +0.046 A 
ATOM      6  N   UNL     1       1.489 -10.368  -0.700  0.00  0.00    -0.279 N 
ATOM      7  N   UNL     1       1.176  -9.009  -0.573  0.00  0.00    -0.153 NA
ATOM      8  H   UNL     1       0.835 -11.252  -0.735  0.00  0.00    +0.189 HD
ATOM      9  C   UNL     1       3.519 -11.818  -0.929  0.00  0.00    +0.066 C 
ATOM     10  C   UNL     1       4.758  -8.744  -0.748  0.00  0.00    +0.124 A 
ATOM     11  N   UNL     1       5.771  -9.566  -0.870  0.00  0.00    -0.384 N 
ATOM     12  N   UNL     1       4.947  -7.374  -0.653  0.00  0.00    -0.275 N 
ATOM     13  H   UNL     1       6.798  -9.173  -0.894  0.00  0.00    +0.157 HD
ATOM     14  H   UNL     1       5.595 -10.649  -0.948  0.00  0.00    +0.157 HD
ENDROOT
BRANCH  12  15
ATOM     15  C   UNL     1       6.241  -6.838  -0.686  0.00  0.00    +0.050 A 
ATOM     16  C   UNL     1       7.014  -6.957  -1.833  0.00  0.00    +0.027 A 
ATOM     17  C   UNL     1       8.288  -6.423  -1.865  0.00  0.00    +0.017 A 
ATOM     18  C   UNL     1       8.797  -5.781  -0.750  0.00  0.00    +0.018 A 
ATOM     19  C   UNL     1       8.031  -5.666   0.396  0.00  0.00    +0.017 A 
ATOM     20  C   UNL     1       6.755  -6.193   0.431  0.00  0.00    +0.027 A 
ATOM     21 BR   UNL     1      10.544  -5.058  -0.795  0.00  0.00    -0.050 Br
ENDBRANCH  12  15
BRANCH   1  22
ATOM     22  S   UNL     1       4.135  -4.812  -0.397  0.00  0.00    -0.078 S 
BRANCH  22  23
ATOM     23  C   UNL     1       2.425  -4.236  -0.258  0.00  0.00    +0.173 C 
BRANCH  23  25
ATOM     24  N   UNL     1       1.237  -2.080  -0.019  0.00  0.00    -0.285 N 
ATOM     25  C   UNL     1       2.410  -2.734  -0.136  0.00  0.00    +0.227 C 
ATOM     26  O   UNL     1       3.452  -2.114  -0.143  0.00  0.00    -0.275 OA
ATOM     27  H   UNL     1       0.299  -2.645   0.074  0.00  0.00    +0.155 HD
BRANCH  24  32
ATOM     28  C   UNL     1       1.143   3.593  -0.014  0.00  0.00    +0.044 C 
ATOM     29  C   UNL     1       1.168   2.086  -0.015  0.00  0.00    -0.050 A 
ATOM     30  C   UNL     1       2.111   1.412  -0.770  0.00  0.00    +0.005 A 
ATOM     31  C   UNL     1       2.137   0.031  -0.773  0.00  0.00    +0.023 A 
ATOM     32  C   UNL     1       1.214  -0.681  -0.018  0.00  0.00    +0.033 A 
ATOM     33  C   UNL     1       0.269  -0.001   0.739  0.00  0.00    +0.023 A 
ATOM     34  C   UNL     1       0.248   1.380   0.738  0.00  0.00    +0.005 A 
ENDBRANCH  24  32
ENDBRANCH  23  25
ENDBRANCH  22  23
ENDBRANCH   1  22
TORSDOF 5
