REMARK  Name = ZINC44170738
REMARK  14 active torsions:
REMARK  status: ('A' for Active; 'I' for Inactive)
REMARK    1  A    between atoms: C_1  and  C_2
REMARK    2  A    between atoms: C_2  and  C_3
REMARK    3  A    between atoms: C_2  and  C_4
REMARK    4  A    between atoms: C_2  and  O_39
REMARK    5  A    between atoms: C_12  and  O_13
REMARK    6  A    between atoms: O_13  and  C_14
REMARK    7  A    between atoms: C_18  and  C_20
REMARK    8  A    between atoms: C_20  and  O_21
REMARK    9  A    between atoms: O_21  and  C_22
REMARK   10  A    between atoms: C_24  and  O_37
REMARK   11  A    between atoms: C_26  and  O_36
REMARK   12  A    between atoms: C_28  and  O_35
REMARK   13  A    between atoms: C_30  and  C_33
REMARK   14  A    between atoms: C_33  and  O_34
REMARK                            x       y       z     vdW  Elec       q    Type
REMARK                         _______ _______ _______ _____ _____    ______ ____
ROOT
ATOM      1  C   UNL     1      -1.410  -0.560  -0.190  0.00  0.00    +0.209 C 
ATOM      2  C   UNL     1      -1.446  -2.078   0.109  0.00  0.00    +0.090 C 
ATOM      3  C   UNL     1      -2.806  -2.235   0.763  0.00  0.00    +0.040 A 
ATOM      4  C   UNL     1      -3.237  -0.960   1.121  0.00  0.00    +0.131 A 
ATOM      5  C   UNL     1      -4.475  -0.802   1.738  0.00  0.00    +0.093 A 
ATOM      6  C   UNL     1      -5.272  -1.902   2.003  0.00  0.00    +0.146 A 
ATOM      7  C   UNL     1      -4.825  -3.186   1.645  0.00  0.00    +0.106 A 
ATOM      8  C   UNL     1      -3.580  -3.346   1.020  0.00  0.00    +0.141 A 
ATOM      9  C   UNL     1      -5.691  -4.338   1.941  0.00  0.00    +0.196 A 
ATOM     10  O   UNL     1      -5.355  -5.475   1.655  0.00  0.00    -0.287 OA
ATOM     11  C   UNL     1      -6.935  -4.069   2.574  0.00  0.00    +0.095 A 
ATOM     12  C   UNL     1      -7.267  -2.802   2.873  0.00  0.00    +0.135 A 
ATOM     13  O   UNL     1      -6.474  -1.760   2.600  0.00  0.00    -0.457 OA
ATOM     14  O   UNL     1      -2.309  -0.016   0.791  0.00  0.00    -0.485 OA
ENDROOT
BRANCH   1  16
ATOM     15  C   UNL     1       0.958  -0.690  -0.977  0.00  0.00    +0.045 C 
ATOM     16  C   UNL     1       0.002  -0.004   0.002  0.00  0.00    +0.097 C 
ATOM     17  C   UNL     1      -0.003   1.503  -0.262  0.00  0.00    +0.045 C 
BRANCH  16  18
ATOM     18  O   UNL     1       0.434  -0.251   1.342  0.00  0.00    -0.385 OA
ATOM     19  H   UNL     1       0.462  -1.188   1.579  0.00  0.00    +0.210 HD
ENDBRANCH  16  18
ENDBRANCH   1  16
BRANCH   8  20
ATOM     20  O   UNL     1      -3.143  -4.582   0.672  0.00  0.00    -0.494 OA
ATOM     21  C   UNL     1      -2.377  -5.297   1.644  0.00  0.00    +0.277 C 
ENDBRANCH   8  20
BRANCH  12  22
ATOM     22  C   UNL     1      -8.591  -2.543   3.545  0.00  0.00    +0.237 C 
BRANCH  22  23
ATOM     23  O   UNL     1      -8.367  -2.021   4.856  0.00  0.00    -0.341 OA
BRANCH  23  24
ATOM     24  C   UNL     1      -9.564  -1.740   5.583  0.00  0.00    +0.282 C 
ATOM     25  C   UNL     1      -9.207  -1.308   7.007  0.00  0.00    +0.201 C 
ATOM     26  C   UNL     1     -10.492  -0.950   7.761  0.00  0.00    +0.179 C 
ATOM     27  C   UNL     1     -11.236   0.145   6.990  0.00  0.00    +0.177 C 
ATOM     28  C   UNL     1     -11.514  -0.344   5.566  0.00  0.00    +0.178 C 
ATOM     29  O   UNL     1     -10.281  -0.689   4.932  0.00  0.00    -0.341 OA
BRANCH  27  30
ATOM     30  O   UNL     1     -10.431   1.325   6.942  0.00  0.00    -0.386 OA
ATOM     31  H   UNL     1     -10.213   1.688   7.812  0.00  0.00    +0.210 HD
ENDBRANCH  27  30
BRANCH  26  32
ATOM     32  O   UNL     1     -10.163  -0.477   9.069  0.00  0.00    -0.386 OA
ATOM     33  H   UNL     1      -9.685  -1.119   9.611  0.00  0.00    +0.210 HD
ENDBRANCH  26  32
BRANCH  25  34
ATOM     34  O   UNL     1      -8.541  -2.378   7.679  0.00  0.00    -0.384 OA
ATOM     35  H   UNL     1      -7.720  -2.659   7.252  0.00  0.00    +0.210 HD
ENDBRANCH  25  34
BRANCH  28  36
ATOM     36  C   UNL     1     -12.204   0.767   4.771  0.00  0.00    +0.190 C 
BRANCH  36  37
ATOM     37  O   UNL     1     -12.568   0.273   3.481  0.00  0.00    -0.392 OA
ATOM     38  H   UNL     1     -13.011   0.925   2.921  0.00  0.00    +0.210 HD
ENDBRANCH  36  37
ENDBRANCH  28  36
ENDBRANCH  23  24
ENDBRANCH  22  23
ENDBRANCH  12  22
TORSDOF 11
