REMARK  Name = ZINC50458436
REMARK  4 active torsions:
REMARK  status: ('A' for Active; 'I' for Inactive)
REMARK    1  A    between atoms: C_1  and  C_2
REMARK    2  A    between atoms: C_7  and  N_10
REMARK    3  A    between atoms: C_11  and  C_13
REMARK    4  A    between atoms: C_16  and  N_18
REMARK                            x       y       z     vdW  Elec       q    Type
REMARK                         _______ _______ _______ _____ _____    ______ ____
ROOT
ATOM      1  N   UNL     1      -0.612  -2.548   1.244  0.00  0.00    -0.312 N 
ATOM      2  C   UNL     1      -0.873  -3.776   1.733  0.00  0.00    +0.215 C 
ATOM      3  O   UNL     1       0.030  -4.462   2.164  0.00  0.00    -0.276 OA
ATOM      4  H   UNL     1      -1.333  -2.000   0.898  0.00  0.00    +0.149 HD
ENDROOT
BRANCH   1  10
ATOM      5  C   UNL     1      -0.019   1.526   0.010  0.00  0.00    +0.007 C 
ATOM      6  C   UNL     1       0.002  -0.004   0.002  0.00  0.00    -0.012 C 
ATOM      7  C   UNL     1       0.718  -0.497  -1.257  0.00  0.00    +0.003 C 
ATOM      8  C   UNL     1       0.739  -2.027  -1.265  0.00  0.00    +0.002 C 
ATOM      9  C   UNL     1       1.479  -2.534  -0.026  0.00  0.00    +0.022 C 
ATOM     10  C   UNL     1       0.763  -2.041   1.233  0.00  0.00    +0.073 C 
ATOM     11  C   UNL     1       0.742  -0.511   1.242  0.00  0.00    +0.025 C 
ENDBRANCH   1  10
BRANCH   2  12
ATOM     12  C   UNL     1      -2.287  -4.298   1.743  0.00  0.00    +0.059 C 
ATOM     13  C   UNL     1      -2.967  -4.466   3.103  0.00  0.00    -0.005 C 
ATOM     14  C   UNL     1      -2.519  -5.699   2.314  0.00  0.00    -0.063 C 
BRANCH  14  15
ATOM     15  N   UNL     1      -1.346  -6.432   2.809  0.00  0.00    +0.380 N 
ATOM     16  H   UNL     1      -0.913  -5.909   3.555  0.00  0.00    -0.090 HD
ATOM     17  H   UNL     1      -1.635  -7.335   3.155  0.00  0.00    -0.090 HD
ATOM     18  H   UNL     1      -0.685  -6.556   2.057  0.00  0.00    -0.090 HD
ENDBRANCH  14  15
ENDBRANCH   2  12
TORSDOF 3
