REMARK  Name = ZINC58904353
REMARK  8 active torsions:
REMARK  status: ('A' for Active; 'I' for Inactive)
REMARK    1  A    between atoms: C_1  and  C_2
REMARK    2  A    between atoms: N_4  and  C_5
REMARK    3  A    between atoms: C_5  and  C_6
REMARK    4  A    between atoms: N_8  and  C_9
REMARK    5  A    between atoms: C_9  and  C_10
REMARK    6  A    between atoms: N_12  and  C_13
REMARK    7  A    between atoms: C_13  and  C_14
REMARK    8  A    between atoms: C_14  and  N_19
REMARK                            x       y       z     vdW  Elec       q    Type
REMARK                         _______ _______ _______ _____ _____    ______ ____
ROOT
ATOM      1  C   UNL     1      -3.947  -6.223  -0.207  0.00  0.00    +0.230 C 
ATOM      2  O   UNL     1      -2.936  -6.891  -0.231  0.00  0.00    -0.274 OA
ATOM      3  N   UNL     1      -5.151  -6.824  -0.127  0.00  0.00    -0.315 N 
ATOM      4  H   UNL     1      -5.960  -6.289  -0.108  0.00  0.00    +0.149 HD
ENDROOT
BRANCH   1   5
ATOM      5  C   UNL     1      -3.859  -4.720  -0.269  0.00  0.00    +0.200 C 
BRANCH   5   8
ATOM      6  C   UNL     1      -2.129  -3.010  -0.416  0.00  0.00    +0.231 C 
ATOM      7  O   UNL     1      -3.002  -2.168  -0.406  0.00  0.00    -0.274 OA
ATOM      8  N   UNL     1      -2.453  -4.316  -0.351  0.00  0.00    -0.305 N 
ATOM      9  H   UNL     1      -1.755  -4.990  -0.360  0.00  0.00    +0.149 HD
BRANCH   6  10
ATOM     10  C   UNL     1      -0.683  -2.595  -0.502  0.00  0.00    +0.200 C 
BRANCH  10  14
ATOM     11  C   UNL     1       0.695   0.971  -0.703  0.00  0.00    +0.109 C 
ATOM     12  C   UNL     1       0.607  -0.532  -0.642  0.00  0.00    +0.210 C 
ATOM     13  O   UNL     1       1.618  -1.201  -0.665  0.00  0.00    -0.276 OA
ATOM     14  N   UNL     1      -0.597  -1.133  -0.561  0.00  0.00    -0.307 N 
ATOM     15  H   UNL     1      -1.406  -0.599  -0.542  0.00  0.00    +0.149 HD
ENDBRANCH  10  14
ENDBRANCH   6  10
ENDBRANCH   5   8
ENDBRANCH   1   5
BRANCH   3  16
ATOM     16  C   UNL     1      -5.237  -8.285  -0.067  0.00  0.00    +0.092 C 
BRANCH  16  17
ATOM     17  C   UNL     1      -6.705  -8.707   0.019  0.00  0.00    -0.050 C 
ATOM     18  C   UNL     1      -6.815 -10.245   0.015  0.00  0.00    -0.010 C 
ATOM     19  C   UNL     1      -6.899 -10.624   1.515  0.00  0.00    -0.001 C 
ATOM     20  C   UNL     1      -7.772  -9.490   2.106  0.00  0.00    -0.001 C 
ATOM     21  C   UNL     1      -7.314  -8.226   1.348  0.00  0.00    -0.010 C 
BRANCH  17  22
ATOM     22  N   UNL     1      -7.457  -8.145  -1.111  0.00  0.00    +0.386 N 
ATOM     23  C   UNL     1      -8.864  -8.534  -0.992  0.00  0.00    -0.067 C 
ATOM     24  C   UNL     1      -9.723  -7.671  -1.924  0.00  0.00    +0.050 C 
ATOM     25  S   UNL     1      -9.193  -7.982  -3.638  0.00  0.00    -0.164 S 
ATOM     26  C   UNL     1      -7.386  -7.787  -3.537  0.00  0.00    +0.050 C 
ATOM     27  C   UNL     1      -6.877  -8.632  -2.363  0.00  0.00    -0.067 C 
ATOM     28  H   UNL     1      -7.390  -7.138  -1.085  0.00  0.00    -0.081 HD
ENDBRANCH  17  22
ENDBRANCH  16  17
ENDBRANCH   3  16
TORSDOF 7
