REMARK  Name = ZINC40708944
REMARK  9 active torsions:
REMARK  status: ('A' for Active; 'I' for Inactive)
REMARK    1  A    between atoms: C_1  and  C_2
REMARK    2  A    between atoms: C_2  and  C_22
REMARK    3  A    between atoms: C_4  and  N_10
REMARK    4  A    between atoms: C_6  and  C_8
REMARK    5  A    between atoms: C_6  and  C_9
REMARK    6  A    between atoms: C_12  and  N_21
REMARK    7  A    between atoms: C_13  and  N_17
REMARK    8  A    between atoms: N_17  and  C_18
REMARK    9  A    between atoms: C_18  and  C_19
REMARK                            x       y       z     vdW  Elec       q    Type
REMARK                         _______ _______ _______ _____ _____    ______ ____
ROOT
ATOM      1  N   UNL     1       1.633  -2.333  -2.511  0.00  0.00    -0.325 N 
ATOM      2  C   UNL     1       1.545  -3.643  -2.968  0.00  0.00    +0.145 A 
ATOM      3  C   UNL     1       2.183  -4.026  -4.149  0.00  0.00    +0.105 A 
ATOM      4  C   UNL     1       2.063  -5.354  -4.562  0.00  0.00    +0.145 A 
ATOM      5  N   UNL     1       1.351  -6.198  -3.820  0.00  0.00    -0.219 NA
ATOM      6  C   UNL     1       0.764  -5.795  -2.711  0.00  0.00    +0.225 A 
ATOM      7  N   UNL     1       0.856  -4.552  -2.283  0.00  0.00    -0.219 NA
ATOM      8  H   UNL     1       2.137  -1.676  -3.016  0.00  0.00    +0.148 HD
ENDROOT
BRANCH   1  12
ATOM      9  C   UNL     1      -0.019   1.542   0.011  0.00  0.00    -0.010 C 
ATOM     10  C   UNL     1       0.002  -0.004   0.002  0.00  0.00    -0.072 C 
ATOM     11  C   UNL     1       0.670  -0.443  -1.297  0.00  0.00    +0.009 C 
ATOM     12  C   UNL     1       0.963  -1.944  -1.265  0.00  0.00    +0.069 C 
ATOM     13  C   UNL     1       1.892  -2.223  -0.084  0.00  0.00    +0.009 C 
ATOM     14  C   UNL     1       1.233  -1.798   1.224  0.00  0.00    -0.072 C 
ATOM     15  N   UNL     1       0.711  -0.443   1.191  0.00  0.00    +0.386 N 
ATOM     16  C   UNL     1       2.314  -1.859   2.328  0.00  0.00    -0.010 C 
ATOM     17  C   UNL     1       0.143  -2.805   1.606  0.00  0.00    -0.010 C 
ATOM     18  C   UNL     1      -1.457  -0.473   0.018  0.00  0.00    -0.010 C 
ATOM     19  H   UNL     1       1.489   0.204   1.356  0.00  0.00    -0.084 HD
ATOM     20  H   UNL     1       0.093  -0.317   1.998  0.00  0.00    -0.084 HD
ENDBRANCH   1  12
BRANCH   3  21
ATOM     21  N   UNL     1       2.926  -3.100  -4.901  0.00  0.00    -0.353 N 
ATOM     22  H   UNL     1       3.000  -2.181  -4.602  0.00  0.00    +0.143 HD
ATOM     23  H   UNL     1       3.364  -3.381  -5.720  0.00  0.00    +0.143 HD
ENDBRANCH   3  21
BRANCH   4  24
ATOM     24  N   UNL     1       2.679  -5.787  -5.731  0.00  0.00    -0.324 N 
ATOM     25  H   UNL     1       3.196  -5.166  -6.266  0.00  0.00    +0.148 HD
BRANCH  24  26
ATOM     26  C   UNL     1       2.545  -7.184  -6.154  0.00  0.00    +0.130 C 
BRANCH  26  27
ATOM     27  C   UNL     1       3.300  -7.393  -7.441  0.00  0.00    -0.016 C 
ATOM     28  C   UNL     1       4.213  -8.329  -7.520  0.00  0.00    +0.005 C 
ENDBRANCH  26  27
ENDBRANCH  24  26
ENDBRANCH   4  24
TORSDOF 5
