REMARK  Name = ZINC62533228
REMARK  4 active torsions:
REMARK  status: ('A' for Active; 'I' for Inactive)
REMARK    1  A    between atoms: C_1  and  C_2
REMARK    2  A    between atoms: C_10  and  C_15
REMARK    3  A    between atoms: C_15  and  C_16
REMARK    4  A    between atoms: C_16  and  N_17
REMARK                            x       y       z     vdW  Elec       q    Type
REMARK                         _______ _______ _______ _____ _____    ______ ____
ROOT
ATOM      1  C   UNL     1      -0.018   1.503   0.010  0.00  0.00    +0.045 C 
ATOM      2  C   UNL     1       0.002  -0.004   0.002  0.00  0.00    -0.030 A 
ATOM      3  C   UNL     1       0.006  -0.687  -1.200  0.00  0.00    +0.031 A 
ATOM      4  C   UNL     1       0.029  -2.072  -1.208  0.00  0.00    +0.076 A 
ATOM      5  C   UNL     1       0.029  -2.774  -0.003  0.00  0.00    +0.144 A 
ATOM      6  C   UNL     1       0.029  -2.085   1.197  0.00  0.00    +0.067 A 
ATOM      7  C   UNL     1       0.023  -0.700   1.197  0.00  0.00    +0.047 A 
ATOM      8 CL   UNL     1       0.034   0.164   2.703  0.00  0.00    -0.083 Cl
ATOM      9  O   UNL     1       0.008  -4.134  -0.017  0.00  0.00    -0.478 OA
ATOM     10  C   UNL     1       0.664  -4.782  -1.108  0.00  0.00    +0.257 C 
ATOM     11  C   UNL     1       0.282  -4.108  -2.402  0.00  0.00    +0.258 C 
ATOM     12  O   UNL     1       0.194  -4.755  -3.423  0.00  0.00    -0.271 OA
ATOM     13  N   UNL     1       0.039  -2.780  -2.417  0.00  0.00    -0.280 N 
ATOM     14  H   UNL     1      -0.126  -2.322  -3.256  0.00  0.00    +0.155 HD
ENDROOT
BRANCH  10  15
ATOM     15  C   UNL     1       2.180  -4.694  -0.917  0.00  0.00    +0.035 C 
BRANCH  15  16
ATOM     16  C   UNL     1       2.584  -5.487   0.328  0.00  0.00    -0.082 C 
BRANCH  16  17
ATOM     17  N   UNL     1       4.039  -5.402   0.511  0.00  0.00    +0.378 N 
ATOM     18  H   UNL     1       4.503  -5.786  -0.298  0.00  0.00    -0.090 HD
ATOM     19  H   UNL     1       4.307  -4.436   0.627  0.00  0.00    -0.090 HD
ATOM     20  H   UNL     1       4.305  -5.926   1.332  0.00  0.00    -0.090 HD
ENDBRANCH  16  17
ENDBRANCH  15  16
ENDBRANCH  10  15
TORSDOF 3
