REMARK  Name = ZINC08749873
REMARK  8 active torsions:
REMARK  status: ('A' for Active; 'I' for Inactive)
REMARK    1  A    between atoms: C_1  and  N_55
REMARK    2  A    between atoms: C_2  and  C_3
REMARK    3  A    between atoms: C_2  and  N_55
REMARK    4  A    between atoms: C_9  and  C_10
REMARK    5  A    between atoms: C_9  and  N_55
REMARK    6  A    between atoms: N_12  and  C_13
REMARK    7  A    between atoms: C_15  and  S_20
REMARK    8  A    between atoms: S_20  and  N_23
REMARK                            x       y       z     vdW  Elec       q    Type
REMARK                         _______ _______ _______ _____ _____    ______ ____
ROOT
ATOM      1  C   UNL     1       7.218  -2.584  -4.553  0.00  0.00    +0.054 A 
ATOM      2  C   UNL     1       6.295  -2.235  -5.530  0.00  0.00    +0.053 A 
ATOM      3  C   UNL     1       6.503  -2.613  -6.842  0.00  0.00    +0.107 A 
ATOM      4  C   UNL     1       7.625  -3.347  -7.182  0.00  0.00    +0.030 A 
ATOM      5  C   UNL     1       8.544  -3.701  -6.211  0.00  0.00    +0.024 A 
ATOM      6  C   UNL     1       8.344  -3.322  -4.897  0.00  0.00    +0.062 A 
ATOM      7 CL   UNL     1       9.498  -3.766  -3.679  0.00  0.00    -0.082 Cl
ENDROOT
BRANCH   1  10
ATOM      8  C   UNL     1       6.253  -1.120  -2.944  0.00  0.00    +0.201 C 
ATOM      9  O   UNL     1       5.832  -0.425  -3.845  0.00  0.00    -0.278 OA
ATOM     10  N   UNL     1       7.011  -2.199  -3.223  0.00  0.00    -0.286 N 
ATOM     11  H   UNL     1       7.414  -2.708  -2.502  0.00  0.00    +0.155 HD
BRANCH   8  12
ATOM     12  C   UNL     1       5.928  -0.777  -1.513  0.00  0.00    +0.019 C 
BRANCH  12  14
ATOM     13  C   UNL     1       5.844   1.602  -1.954  0.00  0.00    -0.095 C 
ATOM     14  N   UNL     1       5.073   0.428  -1.494  0.00  0.00    +0.387 N 
ATOM     15  H   UNL     1       4.277   0.283  -2.127  0.00  0.00    -0.081 HD
BRANCH  14  16
ATOM     16  C   UNL     1       4.562   0.663  -0.127  0.00  0.00    -0.035 C 
BRANCH  16  17
ATOM     17  C   UNL     1       3.526   1.757  -0.177  0.00  0.00    -0.025 A 
ATOM     18  C   UNL     1       2.189   1.657  -0.378  0.00  0.00    +0.011 A 
ATOM     19  C   UNL     1       1.424   2.809  -0.384  0.00  0.00    +0.028 A 
ATOM     20  C   UNL     1       2.035   4.004  -0.188  0.00  0.00    +0.078 A 
ATOM     21  S   UNL     1       3.741   3.519   0.013  0.00  0.00    -0.084 S 
ATOM     22 CL   UNL     1       1.339   5.594  -0.151  0.00  0.00    -0.076 Cl
ENDBRANCH  16  17
ENDBRANCH  14  16
ENDBRANCH  12  14
ENDBRANCH   8  12
ENDBRANCH   1  10
BRANCH   3  23
ATOM     23  S   UNL     1       5.335  -2.165  -8.082  0.00  0.00    +0.061 S 
ATOM     24  O   UNL     1       4.653  -1.014  -7.602  0.00  0.00    -0.153 OA
ATOM     25  O   UNL     1       6.033  -2.175  -9.320  0.00  0.00    -0.153 OA
BRANCH  23  26
ATOM     26  N   UNL     1       4.214  -3.381  -8.161  0.00  0.00    -0.177 NA
ATOM     27  C   UNL     1       4.445  -4.479  -9.074  0.00  0.00    +0.109 C 
ATOM     28  C   UNL     1       3.841  -4.150 -10.455  0.00  0.00    +0.017 C 
ATOM     29  C   UNL     1       2.372  -4.190 -10.392  0.00  0.00    +0.001 C 
ATOM     30  C   UNL     1       1.754  -3.159  -9.453  0.00  0.00    +0.001 C 
ATOM     31  C   UNL     1       1.736  -3.710  -8.048  0.00  0.00    +0.017 C 
ATOM     32  C   UNL     1       3.017  -3.297  -7.301  0.00  0.00    +0.109 C 
ENDBRANCH  23  26
ENDBRANCH   3  23
TORSDOF 7
