REMARK  Name = ZINC52305701
REMARK  10 active torsions:
REMARK  status: ('A' for Active; 'I' for Inactive)
REMARK    1  A    between atoms: C_1  and  C_2
REMARK    2  A    between atoms: C_5  and  C_27
REMARK    3  A    between atoms: N_8  and  C_10
REMARK    4  A    between atoms: C_10  and  C_11
REMARK    5  A    between atoms: C_11  and  C_12
REMARK    6  A    between atoms: C_12  and  N_13
REMARK    7  A    between atoms: N_13  and  C_14
REMARK    8  A    between atoms: C_17  and  N_24
REMARK    9  A    between atoms: C_19  and  S_20
REMARK   10  A    between atoms: S_20  and  N_23
REMARK                            x       y       z     vdW  Elec       q    Type
REMARK                         _______ _______ _______ _____ _____    ______ ____
ROOT
ATOM      1  C   UNL     1       6.133  -2.458   4.273  0.00  0.00    +0.054 A 
ATOM      2  C   UNL     1       5.741  -3.199   5.381  0.00  0.00    +0.027 A 
ATOM      3  C   UNL     1       6.668  -3.537   6.347  0.00  0.00    +0.034 A 
ATOM      4  C   UNL     1       7.986  -3.140   6.211  0.00  0.00    +0.128 A 
ATOM      5  C   UNL     1       8.380  -2.403   5.110  0.00  0.00    +0.063 A 
ATOM      6  C   UNL     1       7.459  -2.066   4.137  0.00  0.00    +0.128 A 
ENDROOT
BRANCH   6   7
ATOM      7  S   UNL     1       7.963  -1.133   2.731  0.00  0.00    +0.058 S 
ATOM      8  O   UNL     1       7.034  -0.066   2.596  0.00  0.00    -0.153 OA
ATOM      9  O   UNL     1       9.360  -0.913   2.868  0.00  0.00    -0.153 OA
BRANCH   7  10
ATOM     10  N   UNL     1       7.765  -2.103   1.403  0.00  0.00    -0.203 NA
ATOM     11  H   UNL     1       7.559  -1.709   0.541  0.00  0.00    +0.144 HD
ATOM     12  H   UNL     1       7.854  -3.065   1.488  0.00  0.00    +0.144 HD
ENDBRANCH   7  10
ENDBRANCH   6   7
BRANCH   4  13
ATOM     13  N   UNL     1       8.977  -3.505   7.248  0.00  0.00    +0.056 N 
ATOM     14  O   UNL     1       8.634  -4.149   8.212  0.00  0.00    -0.126 OA
ATOM     15  O   UNL     1      10.130  -3.159   7.131  0.00  0.00    -0.126 OA
ENDBRANCH   4  13
BRANCH   1  16
ATOM     16  N   UNL     1       5.198  -2.115   3.294  0.00  0.00    -0.342 N 
ATOM     17  H   UNL     1       5.474  -1.601   2.519  0.00  0.00    +0.146 HD
BRANCH  16  18
ATOM     18  C   UNL     1       3.800  -2.529   3.438  0.00  0.00    +0.100 C 
BRANCH  18  19
ATOM     19  C   UNL     1       2.993  -2.028   2.239  0.00  0.00    +0.000 C 
BRANCH  19  20
ATOM     20  C   UNL     1       1.534  -2.461   2.390  0.00  0.00    -0.077 C 
BRANCH  20  26
ATOM     21  C   UNL     1      -0.019   1.526   0.010  0.00  0.00    +0.005 C 
ATOM     22  C   UNL     1       0.002  -0.004   0.002  0.00  0.00    -0.031 C 
ATOM     23  C   UNL     1      -1.434  -0.535   0.015  0.00  0.00    +0.003 C 
ATOM     24  C   UNL     1      -1.402  -2.064   0.086  0.00  0.00    -0.031 C 
ATOM     25  C   UNL     1      -0.613  -2.496   1.324  0.00  0.00    -0.076 C 
ATOM     26  N   UNL     1       0.758  -1.980   1.239  0.00  0.00    +0.380 N 
ATOM     27  C   UNL     1       0.740  -0.512   1.242  0.00  0.00    -0.076 C 
ATOM     28  C   UNL     1      -2.832  -2.602   0.177  0.00  0.00    +0.005 C 
ATOM     29  H   UNL     1       1.188  -2.307   0.386  0.00  0.00    -0.082 HD
ENDBRANCH  20  26
ENDBRANCH  19  20
ENDBRANCH  18  19
ENDBRANCH  16  18
ENDBRANCH   1  16
TORSDOF 8
