REMARK  Name = ZINC38081040
REMARK  5 active torsions:
REMARK  status: ('A' for Active; 'I' for Inactive)
REMARK    1  A    between atoms: C_1  and  C_2
REMARK    2  A    between atoms: C_4  and  C_19
REMARK    3  A    between atoms: C_7  and  O_8
REMARK    4  A    between atoms: O_8  and  C_9
REMARK    5  A    between atoms: C_12  and  N_16
REMARK                            x       y       z     vdW  Elec       q    Type
REMARK                         _______ _______ _______ _____ _____    ______ ____
ROOT
ATOM      1  C   UNL     1       0.429   1.487   0.035  0.00  0.00    +0.047 C 
ATOM      2  C   UNL     1       0.308  -0.015   0.019  0.00  0.00    -0.008 A 
ATOM      3  C   UNL     1       0.399  -0.700  -1.173  0.00  0.00    +0.018 A 
ATOM      4  C   UNL     1       0.287  -2.092  -1.187  0.00  0.00    +0.013 A 
ATOM      5  C   UNL     1       0.082  -2.784   0.009  0.00  0.00    +0.015 A 
ATOM      6  C   UNL     1      -0.009  -2.093   1.196  0.00  0.00    +0.047 A 
ATOM      7  C   UNL     1       0.109  -0.708   1.207  0.00  0.00    +0.131 A 
ENDROOT
BRANCH   4   8
ATOM      8  C   UNL     1       0.384  -2.830  -2.463  0.00  0.00    +0.094 C 
ATOM      9  N   UNL     1       0.276  -4.158  -2.474  0.00  0.00    -0.387 N 
ATOM     10  N   UNL     1       0.579  -2.168  -3.602  0.00  0.00    -0.345 N 
ATOM     11  H   UNL     1       0.134  -4.640  -1.644  0.00  0.00    +0.157 HD
ATOM     12  H   UNL     1       0.657  -1.201  -3.594  0.00  0.00    +0.144 HD
ATOM     13  H   UNL     1       0.643  -2.652  -4.440  0.00  0.00    +0.144 HD
ATOM     14  H   UNL     1       0.340  -4.643  -3.312  0.00  0.00    +0.157 HD
ENDBRANCH   4   8
BRANCH   7  15
ATOM     15  O   UNL     1       0.025  -0.030   2.380  0.00  0.00    -0.454 OA
BRANCH  15  16
ATOM     16  C   UNL     1      -0.065  -0.751   3.528  0.00  0.00    +0.147 A 
ATOM     17  C   UNL     1      -1.308  -1.040   4.072  0.00  0.00    +0.050 A 
ATOM     18  C   UNL     1      -1.396  -1.773   5.240  0.00  0.00    +0.036 A 
ATOM     19  C   UNL     1      -0.247  -2.219   5.867  0.00  0.00    +0.128 A 
ATOM     20  C   UNL     1       0.993  -1.932   5.328  0.00  0.00    +0.056 A 
ATOM     21  C   UNL     1       1.087  -1.204   4.157  0.00  0.00    +0.085 A 
ATOM     22 CL   UNL     1       2.645  -0.851   3.476  0.00  0.00    -0.080 Cl
BRANCH  19  23
ATOM     23  N   UNL     1      -0.346  -3.004   7.118  0.00  0.00    +0.056 N 
ATOM     24  O   UNL     1      -1.430  -3.255   7.590  0.00  0.00    -0.126 OA
ATOM     25  O   UNL     1       0.658  -3.394   7.667  0.00  0.00    -0.126 OA
ENDBRANCH  19  23
ENDBRANCH  15  16
ENDBRANCH   7  15
TORSDOF 4
