REMARK  Name = ZINC37382782
REMARK  5 active torsions:
REMARK  status: ('A' for Active; 'I' for Inactive)
REMARK    1  A    between atoms: N_8  and  C_11
REMARK    2  A    between atoms: C_11  and  C_12
REMARK    3  A    between atoms: C_12  and  C_14
REMARK    4  A    between atoms: C_12  and  O_16
REMARK    5  A    between atoms: C_14  and  N_15
REMARK                            x       y       z     vdW  Elec       q    Type
REMARK                         _______ _______ _______ _____ _____    ______ ____
ROOT
ATOM      1  C   UNL     1      -0.017   1.397   0.010  0.00  0.00    +0.036 A 
ATOM      2  C   UNL     1       1.141   2.092   0.002  0.00  0.00    +0.048 A 
ATOM      3  S   UNL     1       2.374   0.802  -0.016  0.00  0.00    -0.090 S 
ATOM      4  C   UNL     1       1.279  -0.592  -0.013  0.00  0.00    +0.102 A 
ATOM      5  C   UNL     1       0.002  -0.004   0.002  0.00  0.00    +0.085 A 
ATOM      6  N   UNL     1      -1.060  -0.875   0.007  0.00  0.00    -0.236 NA
ATOM      7  C   UNL     1      -0.894  -2.158  -0.002  0.00  0.00    +0.202 A 
ATOM      8  N   UNL     1       0.329  -2.751  -0.017  0.00  0.00    -0.296 N 
ATOM      9  C   UNL     1       1.441  -1.978  -0.023  0.00  0.00    +0.268 A 
ATOM     10  O   UNL     1       2.553  -2.479  -0.036  0.00  0.00    -0.266 OA
ENDROOT
BRANCH   8  11
ATOM     11  C   UNL     1       0.443  -4.211  -0.026  0.00  0.00    +0.155 C 
BRANCH  11  12
ATOM     12  C   UNL     1       0.469  -4.712  -1.471  0.00  0.00    +0.117 C 
BRANCH  12  13
ATOM     13  O   UNL     1       1.650  -4.237  -2.119  0.00  0.00    -0.392 OA
ATOM     14  H   UNL     1       2.472  -4.528  -1.701  0.00  0.00    +0.210 HD
ENDBRANCH  12  13
BRANCH  12  15
ATOM     15  C   UNL     1       0.462  -6.242  -1.481  0.00  0.00    -0.053 C 
BRANCH  15  16
ATOM     16  N   UNL     1       0.487  -6.723  -2.869  0.00  0.00    +0.380 N 
ATOM     17  H   UNL     1       1.321  -6.387  -3.326  0.00  0.00    -0.090 HD
ATOM     18  H   UNL     1       0.483  -7.732  -2.876  0.00  0.00    -0.090 HD
ATOM     19  H   UNL     1      -0.326  -6.380  -3.358  0.00  0.00    -0.090 HD
ENDBRANCH  15  16
ENDBRANCH  12  15
ENDBRANCH  11  12
ENDBRANCH   8  11
TORSDOF 5
