REMARK  Name = ZINC08694873
REMARK  3 active torsions:
REMARK  status: ('A' for Active; 'I' for Inactive)
REMARK    1  A    between atoms: C_6  and  C_7
REMARK    2  A    between atoms: C_10  and  C_12
REMARK    3  A    between atoms: C_10  and  O_16
REMARK                            x       y       z     vdW  Elec       q    Type
REMARK                         _______ _______ _______ _____ _____    ______ ____
ROOT
ATOM      1  C   UNL     1       3.434   5.564  -1.998  0.00  0.00    +0.071 C 
ATOM      2  N   UNL     1       2.191   5.246  -1.874  0.00  0.00    -0.178 NA
ATOM      3  N   UNL     1       1.980   3.954  -1.397  0.00  0.00    -0.149 N 
ATOM      4  C   UNL     1       3.284   3.314  -1.162  0.00  0.00    +0.257 C 
ATOM      5  C   UNL     1       4.298   4.399  -1.573  0.00  0.00    +0.124 C 
ATOM      6  C   UNL     1       0.744   3.370  -1.175  0.00  0.00    +0.258 C 
ATOM      7  N   UNL     1       0.790   2.175  -0.735  0.00  0.00    -0.143 NA
ATOM      8  N   UNL     1      -0.307   1.355  -0.530  0.00  0.00    -0.223 N 
ATOM      9  C   UNL     1      -1.516   1.822  -0.134  0.00  0.00    +0.093 C 
ATOM     10  C   UNL     1      -2.355   2.659  -1.045  0.00  0.00    +0.146 C 
ATOM     11  C   UNL     1      -1.655   3.952  -1.372  0.00  0.00    +0.143 A 
ATOM     12  N   UNL     1      -0.335   4.174  -1.466  0.00  0.00    -0.183 N 
ATOM     13  N   UNL     1      -0.202   5.506  -1.928  0.00  0.00    -0.151 NA
ATOM     14  C   UNL     1      -1.403   6.003  -2.018  0.00  0.00    +0.245 A 
ATOM     15  N   UNL     1      -2.283   5.068  -1.669  0.00  0.00    -0.218 NA
ATOM     16  H   UNL     1      -0.206   0.402  -0.682  0.00  0.00    +0.176 HD
ATOM     17  H   UNL     1      -1.492   1.005   1.724  0.00  0.00    +0.157 HD
ATOM     18  N   UNL     1      -2.018   1.571   1.058  0.00  0.00    -0.389 N 
ATOM     19  H   UNL     1      -2.938   1.945   1.317  0.00  0.00    +0.157 HD
ENDROOT
BRANCH   1  25
ATOM     20  C   UNL     1       5.310   7.098  -2.567  0.00  0.00    +0.011 A 
ATOM     21  C   UNL     1       5.772   8.314  -3.023  0.00  0.00    +0.020 A 
ATOM     22  C   UNL     1       4.877   9.307  -3.384  0.00  0.00    +0.041 A 
ATOM     23  C   UNL     1       3.513   9.085  -3.295  0.00  0.00    +0.020 A 
ATOM     24  C   UNL     1       3.038   7.871  -2.845  0.00  0.00    +0.011 A 
ATOM     25  C   UNL     1       3.935   6.864  -2.479  0.00  0.00    -0.002 A 
ATOM     26 CL   UNL     1       5.467  10.838  -3.952  0.00  0.00    -0.084 Cl
ENDBRANCH   1  25
BRANCH   4  27
ATOM     27  C   UNL     1       3.440   2.072  -2.042  0.00  0.00    +0.438 C 
ATOM     28  F   UNL     1       3.320   2.436  -3.387  0.00  0.00    -0.166 F 
ATOM     29  F   UNL     1       4.699   1.502  -1.824  0.00  0.00    -0.166 F 
ATOM     30  F   UNL     1       2.446   1.143  -1.719  0.00  0.00    -0.166 F 
ENDBRANCH   4  27
BRANCH   4  31
ATOM     31  O   UNL     1       3.436   2.976   0.218  0.00  0.00    -0.363 OA
ATOM     32  H   UNL     1       2.779   2.346   0.544  0.00  0.00    +0.212 HD
ENDBRANCH   4  31
TORSDOF 3
