REMARK  Name = ZINC40568245
REMARK  6 active torsions:
REMARK  status: ('A' for Active; 'I' for Inactive)
REMARK    1  A    between atoms: C_1  and  C_2
REMARK    2  A    between atoms: C_2  and  O_3
REMARK    3  A    between atoms: O_3  and  C_4
REMARK    4  A    between atoms: C_4  and  C_6
REMARK    5  A    between atoms: C_7  and  N_30
REMARK    6  A    between atoms: C_20  and  C_22
REMARK                            x       y       z     vdW  Elec       q    Type
REMARK                         _______ _______ _______ _____ _____    ______ ____
ROOT
ATOM      1  C   UNL     1       1.463  -2.349   2.421  0.00  0.00    +0.106 C 
ATOM      2  C   UNL     1       1.487  -3.694   2.605  0.00  0.00    +0.195 C 
ATOM      3  O   UNL     1       2.116  -4.250   3.654  0.00  0.00    -0.441 OA
ATOM      4  C   UNL     1       2.408  -3.504   4.737  0.00  0.00    +0.152 A 
ATOM      5  C   UNL     1       2.707  -4.152   6.024  0.00  0.00    +0.060 A 
ATOM      6  C   UNL     1       2.699  -5.542   6.149  0.00  0.00    +0.015 A 
ATOM      7  C   UNL     1       2.985  -6.117   7.368  0.00  0.00    +0.001 A 
ATOM      8  C   UNL     1       3.278  -5.321   8.466  0.00  0.00    +0.004 A 
ATOM      9  C   UNL     1       3.289  -3.946   8.355  0.00  0.00    +0.047 A 
ATOM     10  C   UNL     1       3.004  -3.347   7.135  0.00  0.00    +0.143 A 
ATOM     11  O   UNL     1       3.010  -2.002   7.007  0.00  0.00    -0.422 OA
ATOM     12  C   UNL     1       2.743  -1.404   5.836  0.00  0.00    +0.345 A 
ATOM     13  O   UNL     1       2.767  -0.188   5.773  0.00  0.00    -0.245 OA
ATOM     14  C   UNL     1       2.436  -2.142   4.679  0.00  0.00    +0.092 A 
ATOM     15  C   UNL     1       2.150  -1.423   3.387  0.00  0.00    +0.104 C 
ENDROOT
BRANCH  15  16
ATOM     16  C   UNL     1       3.442  -0.939   2.781  0.00  0.00    +0.002 A 
ATOM     17  C   UNL     1       4.422  -1.848   2.426  0.00  0.00    +0.046 A 
ATOM     18  C   UNL     1       5.609  -1.404   1.870  0.00  0.00    +0.020 A 
ATOM     19  C   UNL     1       5.815  -0.051   1.671  0.00  0.00    +0.003 A 
ATOM     20  C   UNL     1       4.836   0.857   2.026  0.00  0.00    +0.020 A 
ATOM     21  C   UNL     1       3.646   0.413   2.576  0.00  0.00    +0.046 A 
ATOM     22 CL   UNL     1       2.413   1.554   3.014  0.00  0.00    -0.083 Cl
ATOM     23 CL   UNL     1       4.164  -3.546   2.677  0.00  0.00    -0.083 Cl
ENDBRANCH  15  16
BRANCH   2  24
ATOM     24  N   UNL     1       0.854  -4.504   1.700  0.00  0.00    -0.329 N 
ATOM     25  H   UNL     1       0.462  -4.122   0.899  0.00  0.00    +0.145 HD
ATOM     26  H   UNL     1       0.798  -5.459   1.859  0.00  0.00    +0.145 HD
ENDBRANCH   2  24
BRANCH   1  27
ATOM     27  C   UNL     1       0.793  -1.815   1.310  0.00  0.00    +0.341 C 
ATOM     28  O   UNL     1      -0.318  -1.333   1.443  0.00  0.00    -0.245 OA
BRANCH  27  29
ATOM     29  O   UNL     1       1.378  -1.837   0.093  0.00  0.00    -0.462 OA
BRANCH  29  31
ATOM     30  C   UNL     1       1.457  -1.390  -2.280  0.00  0.00    +0.048 C 
ATOM     31  C   UNL     1       0.638  -1.276  -0.993  0.00  0.00    +0.229 C 
ENDBRANCH  29  31
ENDBRANCH  27  29
ENDBRANCH   1  27
TORSDOF 5
