REMARK  Name = ZINC63503233
REMARK  11 active torsions:
REMARK  status: ('A' for Active; 'I' for Inactive)
REMARK    1  A    between atoms: C_4  and  C_7
REMARK    2  A    between atoms: C_10  and  C_13
REMARK    3  A    between atoms: C_13  and  C_15
REMARK    4  A    between atoms: C_15  and  O_16
REMARK    5  A    between atoms: O_16  and  C_17
REMARK    6  A    between atoms: C_17  and  C_19
REMARK    7  A    between atoms: C_19  and  C_21
REMARK    8  A    between atoms: C_19  and  N_31
REMARK    9  A    between atoms: C_21  and  C_22
REMARK   10  A    between atoms: C_32  and  O_34
REMARK   11  A    between atoms: O_34  and  C_35
REMARK                            x       y       z     vdW  Elec       q    Type
REMARK                         _______ _______ _______ _____ _____    ______ ____
ROOT
ATOM      1  C   UNL     1      10.448  -6.717  -0.268  0.00  0.00    +0.189 C 
ENDROOT
BRANCH   1   2
ATOM      2  N   UNL     1      10.394  -8.146   0.047  0.00  0.00    -0.267 N 
ATOM      3  C   UNL     1      11.463  -8.931  -0.196  0.00  0.00    +0.406 C 
ATOM      4  O   UNL     1      12.471  -8.453  -0.676  0.00  0.00    -0.226 OA
ATOM      5  H   UNL     1       9.589  -8.528   0.431  0.00  0.00    +0.153 HD
BRANCH   3   6
ATOM      6  O   UNL     1      11.413 -10.245   0.095  0.00  0.00    -0.412 OA
BRANCH   6   7
ATOM      7  C   UNL     1      12.474 -11.018  -0.262  0.00  0.00    +0.133 A 
ATOM      8  C   UNL     1      12.399 -11.823  -1.389  0.00  0.00    +0.046 A 
ATOM      9  C   UNL     1      13.478 -12.607  -1.748  0.00  0.00    +0.004 A 
ATOM     10  C   UNL     1      14.632 -12.590  -0.986  0.00  0.00    +0.000 A 
ATOM     11  C   UNL     1      14.708 -11.789   0.138  0.00  0.00    +0.004 A 
ATOM     12  C   UNL     1      13.634 -10.998   0.499  0.00  0.00    +0.046 A 
ENDBRANCH   6   7
ENDBRANCH   3   6
ENDBRANCH   1   2
BRANCH   1  13
ATOM     13  C   UNL     1       9.056  -6.212  -0.550  0.00  0.00    +0.328 C 
ATOM     14  O   UNL     1       8.116  -6.968  -0.492  0.00  0.00    -0.249 OA
BRANCH  13  15
ATOM     15  O   UNL     1       8.862  -4.921  -0.864  0.00  0.00    -0.455 OA
BRANCH  15  16
ATOM     16  C   UNL     1       7.516  -4.512  -1.118  0.00  0.00    +0.311 C 
BRANCH  16  17
ATOM     17  C   UNL     1       7.494  -3.042  -1.452  0.00  0.00    +0.200 C 
ATOM     18  O   UNL     1       8.527  -2.408  -1.470  0.00  0.00    -0.288 OA
BRANCH  17  22
ATOM     19  C   UNL     1       3.816  -1.125  -2.327  0.00  0.00    -0.018 A 
ATOM     20  C   UNL     1       5.005  -0.394  -2.348  0.00  0.00    +0.009 A 
ATOM     21  C   UNL     1       6.196  -1.012  -2.065  0.00  0.00    +0.012 A 
ATOM     22  C   UNL     1       6.218  -2.377  -1.755  0.00  0.00    +0.021 A 
ATOM     23  C   UNL     1       5.024  -3.108  -1.735  0.00  0.00    +0.012 A 
ATOM     24  C   UNL     1       3.835  -2.485  -2.013  0.00  0.00    +0.009 A 
BRANCH  19  28
ATOM     25  C   UNL     1       0.128   0.798  -3.205  0.00  0.00    +0.000 A 
ATOM     26  C   UNL     1       1.306   1.523  -3.232  0.00  0.00    +0.001 A 
ATOM     27  C   UNL     1       2.506   0.904  -2.947  0.00  0.00    +0.008 A 
ATOM     28  C   UNL     1       2.530  -0.454  -2.633  0.00  0.00    -0.018 A 
ATOM     29  C   UNL     1       1.339  -1.179  -2.608  0.00  0.00    +0.008 A 
ATOM     30  C   UNL     1       0.145  -0.550  -2.894  0.00  0.00    +0.001 A 
ENDBRANCH  19  28
ENDBRANCH  17  22
ENDBRANCH  16  17
ENDBRANCH  15  16
ENDBRANCH  13  15
ENDBRANCH   1  13
BRANCH   1  31
ATOM     31  C   UNL     1      11.037  -5.954   0.920  0.00  0.00    +0.067 C 
BRANCH  31  32
ATOM     32  C   UNL     1      10.195  -6.204   2.144  0.00  0.00    -0.039 C 
ATOM     33  C   UNL     1      10.400  -7.144   3.095  0.00  0.00    -0.001 A 
ATOM     34  C   UNL     1      11.429  -8.177   3.265  0.00  0.00    +0.010 A 
ATOM     35  C   UNL     1      11.369  -8.991   4.344  0.00  0.00    +0.001 A 
ATOM     36  C   UNL     1      10.352  -8.873   5.300  0.00  0.00    +0.002 A 
ATOM     37  C   UNL     1       9.372  -7.949   5.212  0.00  0.00    +0.026 A 
ATOM     38  C   UNL     1       9.337  -7.040   4.119  0.00  0.00    +0.043 A 
ATOM     39  N   UNL     1       8.506  -6.073   3.814  0.00  0.00    -0.380 N 
ATOM     40  C   UNL     1       8.953  -5.450   2.563  0.00  0.00    +0.144 C 
ATOM     41  H   UNL     1       7.728  -5.811   4.331  0.00  0.00    +0.160 HD
ENDBRANCH  31  32
ENDBRANCH   1  31
TORSDOF 11
