REMARK  Name = ZINC39685705
REMARK  14 active torsions:
REMARK  status: ('A' for Active; 'I' for Inactive)
REMARK    1  A    between atoms: C_1  and  C_2
REMARK    2  A    between atoms: C_2  and  C_3
REMARK    3  A    between atoms: C_3  and  C_4
REMARK    4  A    between atoms: C_4  and  C_5
REMARK    5  A    between atoms: C_9  and  C_18
REMARK    6  A    between atoms: N_20  and  C_21
REMARK    7  A    between atoms: C_21  and  C_23
REMARK    8  A    between atoms: C_21  and  C_26
REMARK    9  A    between atoms: C_23  and  C_24
REMARK   10  A    between atoms: C_23  and  C_25
REMARK   11  A    between atoms: N_28  and  C_29
REMARK   12  A    between atoms: C_29  and  C_30
REMARK   13  A    between atoms: C_29  and  C_31
REMARK   14  A    between atoms: C_29  and  C_32
REMARK                            x       y       z     vdW  Elec       q    Type
REMARK                         _______ _______ _______ _____ _____    ______ ____
ROOT
ATOM      1  C   UNL     1       0.573  -2.834   1.699  0.00  0.00    +0.216 C 
ATOM      2  O   UNL     1       0.754  -1.807   2.318  0.00  0.00    -0.276 OA
ATOM      3  N   UNL     1       1.042  -4.002   2.179  0.00  0.00    -0.300 N 
ATOM      4  C   UNL     1       0.927  -5.348   1.569  0.00  0.00    +0.121 C 
ATOM      5  C   UNL     1       2.293  -6.018   1.840  0.00  0.00    +0.100 C 
ATOM      6  C   UNL     1       2.853  -5.283   3.069  0.00  0.00    -0.004 C 
ATOM      7  C   UNL     1       1.796  -4.231   3.436  0.00  0.00    +0.115 C 
ATOM      8  C   UNL     1       4.171  -4.598   2.720  0.00  0.00    -0.010 C 
ATOM      9  C   UNL     1       4.737  -3.922   3.972  0.00  0.00    -0.082 C 
ATOM     10  N   UNL     1       4.948  -4.928   5.020  0.00  0.00    +0.379 N 
ATOM     11  C   UNL     1       3.662  -5.516   5.416  0.00  0.00    -0.082 C 
ATOM     12  C   UNL     1       3.051  -6.259   4.225  0.00  0.00    -0.010 C 
ATOM     13  H   UNL     1       5.555  -5.654   4.670  0.00  0.00    -0.086 HD
ATOM     14  H   UNL     1       5.377  -4.491   5.822  0.00  0.00    -0.086 HD
ENDROOT
BRANCH   5  15
ATOM     15  C   UNL     1       3.209  -5.840   0.657  0.00  0.00    +0.219 C 
ATOM     16  O   UNL     1       3.860  -6.778   0.248  0.00  0.00    -0.275 OA
ATOM     17  N   UNL     1       3.304  -4.639   0.052  0.00  0.00    -0.303 N 
ATOM     18  H   UNL     1       2.783  -3.889   0.379  0.00  0.00    +0.149 HD
BRANCH  17  19
ATOM     19  C   UNL     1       4.195  -4.467  -1.098  0.00  0.00    +0.161 C 
BRANCH  19  20
ATOM     20  C   UNL     1       4.602  -3.020  -1.205  0.00  0.00    +0.234 C 
ATOM     21  O   UNL     1       4.189  -2.212  -0.400  0.00  0.00    -0.274 OA
ATOM     22  N   UNL     1       5.425  -2.623  -2.196  0.00  0.00    -0.309 N 
ATOM     23  H   UNL     1       5.755  -3.269  -2.840  0.00  0.00    +0.149 HD
BRANCH  22  24
ATOM     24  C   UNL     1       5.821  -1.216  -2.301  0.00  0.00    +0.026 C 
ATOM     25  C   UNL     1       6.550  -0.796  -1.023  0.00  0.00    +0.031 C 
ATOM     26  C   UNL     1       6.751  -1.036  -3.502  0.00  0.00    +0.031 C 
ATOM     27  C   UNL     1       4.574  -0.348  -2.486  0.00  0.00    +0.031 C 
ENDBRANCH  22  24
ENDBRANCH  19  20
BRANCH  19  28
ATOM     28  C   UNL     1       3.465  -4.888  -2.375  0.00  0.00    +0.012 C 
ATOM     29  C   UNL     1       3.052  -6.357  -2.266  0.00  0.00    +0.009 C 
ATOM     30  C   UNL     1       2.219  -4.020  -2.561  0.00  0.00    +0.009 C 
ENDBRANCH  19  28
ENDBRANCH  17  19
ENDBRANCH   5  15
BRANCH   1  31
ATOM     31  C   UNL     1      -0.176  -2.803   0.392  0.00  0.00    +0.096 C 
BRANCH  31  32
ATOM     32  C   UNL     1      -0.596  -1.366   0.078  0.00  0.00    +0.009 C 
BRANCH  32  34
ATOM     33  C   UNL     1      -1.776   0.103  -1.563  0.00  0.00    +0.004 C 
ATOM     34  C   UNL     1      -1.356  -1.335  -1.250  0.00  0.00    -0.003 C 
ENDBRANCH  32  34
ENDBRANCH  31  32
ENDBRANCH   1  31
TORSDOF 8
