REMARK  Name = ZINC44149422
REMARK  10 active torsions:
REMARK  status: ('A' for Active; 'I' for Inactive)
REMARK    1  A    between atoms: C_1  and  O_2
REMARK    2  A    between atoms: O_2  and  C_3
REMARK    3  A    between atoms: C_6  and  S_25
REMARK    4  A    between atoms: C_8  and  N_9
REMARK    5  A    between atoms: C_10  and  C_12
REMARK    6  A    between atoms: C_12  and  C_13
REMARK    7  A    between atoms: C_13  and  C_14
REMARK    8  A    between atoms: C_14  and  N_15
REMARK    9  A    between atoms: N_18  and  C_19
REMARK   10  A    between atoms: S_25  and  N_28
REMARK                            x       y       z     vdW  Elec       q    Type
REMARK                         _______ _______ _______ _____ _____    ______ ____
ROOT
ATOM      1  N   UNL     1      -0.074  -2.780  -0.012  0.00  0.00    -0.283 N 
ATOM      2  C   UNL     1      -0.127  -4.124   0.083  0.00  0.00    +0.217 C 
ATOM      3  O   UNL     1      -1.200  -4.689   0.090  0.00  0.00    -0.275 OA
ATOM      4  H   UNL     1       0.783  -2.334  -0.098  0.00  0.00    +0.155 HD
ENDROOT
BRANCH   1  10
ATOM      5  C   UNL     1      -1.294  -0.766  -0.572  0.00  0.00    +0.141 A 
ATOM      6  C   UNL     1      -2.468  -0.030  -0.548  0.00  0.00    +0.049 A 
ATOM      7  C   UNL     1      -3.596  -0.546   0.062  0.00  0.00    +0.032 A 
ATOM      8  C   UNL     1      -3.557  -1.798   0.649  0.00  0.00    +0.107 A 
ATOM      9  C   UNL     1      -2.391  -2.538   0.629  0.00  0.00    +0.055 A 
ATOM     10  C   UNL     1      -1.256  -2.029   0.014  0.00  0.00    +0.077 A 
BRANCH   8  11
ATOM     11  S   UNL     1      -4.998  -2.449   1.426  0.00  0.00    +0.056 S 
ATOM     12  O   UNL     1      -4.551  -3.406   2.376  0.00  0.00    -0.153 OA
ATOM     13  O   UNL     1      -5.803  -1.335   1.787  0.00  0.00    -0.153 OA
BRANCH  11  14
ATOM     14  N   UNL     1      -5.840  -3.286   0.271  0.00  0.00    -0.204 NA
ATOM     15  H   UNL     1      -5.500  -3.338  -0.635  0.00  0.00    +0.144 HD
ATOM     16  H   UNL     1      -6.674  -3.725   0.502  0.00  0.00    +0.144 HD
ENDBRANCH  11  14
ENDBRANCH   8  11
BRANCH   5  18
ATOM     17  C   UNL     1      -0.297   1.042  -1.753  0.00  0.00    +0.277 C 
ATOM     18  O   UNL     1      -0.184  -0.259  -1.172  0.00  0.00    -0.493 OA
ENDBRANCH   5  18
ENDBRANCH   1  10
BRANCH   2  19
ATOM     19  C   UNL     1       1.147  -4.923   0.181  0.00  0.00    +0.097 C 
BRANCH  19  20
ATOM     20  C   UNL     1       0.809  -6.412   0.278  0.00  0.00    +0.028 C 
BRANCH  20  21
ATOM     21  C   UNL     1       2.102  -7.223   0.377  0.00  0.00    +0.106 C 
BRANCH  21  22
ATOM     22  N   UNL     1       1.778  -8.649   0.469  0.00  0.00    -0.299 N 
ATOM     23  C   UNL     1       2.767  -9.560   0.566  0.00  0.00    +0.300 C 
ATOM     24  O   UNL     1       3.928  -9.198   0.576  0.00  0.00    -0.253 OA
ATOM     25  N   UNL     1       2.469 -10.872   0.651  0.00  0.00    -0.297 N 
ATOM     26  H   UNL     1       0.852  -8.938   0.461  0.00  0.00    +0.150 HD
ATOM     27  H   UNL     1       1.542 -11.160   0.642  0.00  0.00    +0.151 HD
BRANCH  25  28
ATOM     28  C   UNL     1       3.543 -11.862   0.756  0.00  0.00    +0.074 C 
ATOM     29  C   UNL     1       4.048 -12.217  -0.644  0.00  0.00    +0.022 C 
ATOM     30  C   UNL     1       5.170 -13.251  -0.534  0.00  0.00    +0.002 C 
ATOM     31  C   UNL     1       4.638 -14.511   0.151  0.00  0.00    +0.000 C 
ATOM     32  C   UNL     1       4.133 -14.156   1.551  0.00  0.00    +0.002 C 
ATOM     33  C   UNL     1       3.011 -13.122   1.441  0.00  0.00    +0.022 C 
ENDBRANCH  25  28
ENDBRANCH  21  22
ENDBRANCH  20  21
ENDBRANCH  19  20
ENDBRANCH   2  19
TORSDOF 9
