REMARK  Name = ZINC35338726
REMARK  11 active torsions:
REMARK  status: ('A' for Active; 'I' for Inactive)
REMARK    1  A    between atoms: C_3  and  N_27
REMARK    2  A    between atoms: C_6  and  C_7
REMARK    3  A    between atoms: C_10  and  N_13
REMARK    4  A    between atoms: N_13  and  C_14
REMARK    5  A    between atoms: C_16  and  O_26
REMARK    6  A    between atoms: C_18  and  O_25
REMARK    7  A    between atoms: C_20  and  O_24
REMARK    8  A    between atoms: N_27  and  C_28
REMARK    9  A    between atoms: C_30  and  O_40
REMARK   10  A    between atoms: C_32  and  O_39
REMARK   11  A    between atoms: C_34  and  O_38
REMARK                            x       y       z     vdW  Elec       q    Type
REMARK                         _______ _______ _______ _____ _____    ______ ____
ROOT
ATOM      1  C   UNL     1      -0.028   1.295  -1.497  0.00  0.00    +0.010 A 
ATOM      2  C   UNL     1       1.155   1.954  -1.758  0.00  0.00    +0.023 A 
ATOM      3  C   UNL     1       2.369   1.298  -1.589  0.00  0.00    +0.029 A 
ATOM      4  C   UNL     1       2.393  -0.023  -1.157  0.00  0.00    +0.023 A 
ATOM      5  C   UNL     1       1.213  -0.685  -0.895  0.00  0.00    +0.010 A 
ATOM      6  C   UNL     1      -0.006  -0.030  -1.064  0.00  0.00    -0.018 A 
ENDROOT
BRANCH   6   7
ATOM      7  C   UNL     1      -1.277  -0.741  -0.783  0.00  0.00    -0.018 A 
ATOM      8  C   UNL     1      -2.496  -0.087  -0.957  0.00  0.00    +0.010 A 
ATOM      9  C   UNL     1      -3.676  -0.749  -0.696  0.00  0.00    +0.023 A 
ATOM     10  C   UNL     1      -3.651  -2.069  -0.258  0.00  0.00    +0.029 A 
ATOM     11  C   UNL     1      -2.437  -2.723  -0.084  0.00  0.00    +0.023 A 
ATOM     12  C   UNL     1      -1.255  -2.065  -0.349  0.00  0.00    +0.010 A 
BRANCH  10  13
ATOM     13  N   UNL     1      -4.848  -2.738   0.007  0.00  0.00    -0.317 N 
ATOM     14  H   UNL     1      -4.838  -3.685   0.213  0.00  0.00    +0.149 HD
BRANCH  13  15
ATOM     15  C   UNL     1      -6.118  -2.008  -0.026  0.00  0.00    +0.235 C 
ATOM     16  C   UNL     1      -7.079  -2.609   1.003  0.00  0.00    +0.192 C 
ATOM     17  C   UNL     1      -8.424  -1.881   0.921  0.00  0.00    +0.178 C 
ATOM     18  C   UNL     1      -8.963  -1.986  -0.509  0.00  0.00    +0.171 C 
ATOM     19  C   UNL     1      -7.929  -1.409  -1.479  0.00  0.00    +0.196 C 
ATOM     20  O   UNL     1      -6.693  -2.111  -1.330  0.00  0.00    -0.354 OA
BRANCH  18  21
ATOM     21  O   UNL     1      -9.205  -3.358  -0.827  0.00  0.00    -0.387 OA
ATOM     22  H   UNL     1      -9.549  -3.499  -1.720  0.00  0.00    +0.210 HD
ENDBRANCH  18  21
BRANCH  17  23
ATOM     23  O   UNL     1      -9.349  -2.482   1.829  0.00  0.00    -0.386 OA
ATOM     24  H   UNL     1     -10.224  -2.070   1.829  0.00  0.00    +0.210 HD
ENDBRANCH  17  23
BRANCH  16  25
ATOM     25  O   UNL     1      -7.269  -3.998   0.725  0.00  0.00    -0.385 OA
ATOM     26  H   UNL     1      -6.455  -4.520   0.756  0.00  0.00    +0.210 HD
ENDBRANCH  16  25
ENDBRANCH  13  15
ENDBRANCH  10  13
ENDBRANCH   6   7
BRANCH   3  27
ATOM     27  N   UNL     1       3.565   1.967  -1.853  0.00  0.00    -0.317 N 
ATOM     28  H   UNL     1       4.413   1.554  -1.625  0.00  0.00    +0.149 HD
BRANCH  27  29
ATOM     29  C   UNL     1       3.541   3.294  -2.475  0.00  0.00    +0.235 C 
ATOM     30  C   UNL     1       4.746   3.443  -3.408  0.00  0.00    +0.192 C 
ATOM     31  C   UNL     1       4.746   4.852  -4.007  0.00  0.00    +0.178 C 
ATOM     32  C   UNL     1       4.761   5.879  -2.870  0.00  0.00    +0.171 C 
ATOM     33  C   UNL     1       3.556   5.636  -1.958  0.00  0.00    +0.196 C 
ATOM     34  O   UNL     1       3.599   4.297  -1.459  0.00  0.00    -0.354 OA
BRANCH  32  35
ATOM     35  O   UNL     1       5.967   5.739  -2.117  0.00  0.00    -0.387 OA
ATOM     36  H   UNL     1       6.044   6.360  -1.379  0.00  0.00    +0.210 HD
ENDBRANCH  32  35
BRANCH  31  37
ATOM     37  O   UNL     1       5.906   5.024  -4.824  0.00  0.00    -0.386 OA
ATOM     38  H   UNL     1       5.971   5.896  -5.236  0.00  0.00    +0.210 HD
ENDBRANCH  31  37
BRANCH  30  39
ATOM     39  O   UNL     1       5.951   3.236  -2.668  0.00  0.00    -0.385 OA
ATOM     40  H   UNL     1       6.015   2.364  -2.256  0.00  0.00    +0.210 HD
ENDBRANCH  30  39
ENDBRANCH  27  29
ENDBRANCH   3  27
TORSDOF 11
