REMARK  Name = ZINC14184926
REMARK  5 active torsions:
REMARK  status: ('A' for Active; 'I' for Inactive)
REMARK    1  A    between atoms: C_1  and  C_2
REMARK    2  A    between atoms: C_2  and  C_3
REMARK    3  A    between atoms: C_2  and  S_14
REMARK    4  A    between atoms: S_14  and  C_15
REMARK    5  A    between atoms: C_17  and  N_22
REMARK                            x       y       z     vdW  Elec       q    Type
REMARK                         _______ _______ _______ _____ _____    ______ ____
ROOT
ATOM      1  C   UNL     1      -0.019   1.526   0.010  0.00  0.00    +0.029 C 
ATOM      2  C   UNL     1       0.002  -0.004   0.002  0.00  0.00    +0.137 C 
ENDROOT
BRANCH   2   3
ATOM      3  C   UNL     1      -1.412  -0.526   0.013  0.00  0.00    +0.231 C 
ATOM      4  O   UNL     1      -1.927  -0.901  -1.019  0.00  0.00    -0.274 OA
ATOM      5  N   UNL     1      -2.103  -0.575   1.169  0.00  0.00    -0.268 N 
ATOM      6  C   UNL     1      -3.412  -1.058   1.179  0.00  0.00    +0.143 A 
ATOM      7  C   UNL     1      -4.122  -1.101   2.374  0.00  0.00    +0.082 A 
ATOM      8  C   UNL     1      -5.420  -1.581   2.370  0.00  0.00    +0.045 A 
ATOM      9  C   UNL     1      -5.965  -2.005   1.164  0.00  0.00    +0.061 A 
ATOM     10  C   UNL     1      -5.202  -1.934   0.015  0.00  0.00    +0.133 A 
ATOM     11  N   UNL     1      -3.968  -1.466   0.050  0.00  0.00    -0.237 NA
ATOM     12 CL   UNL     1      -7.588  -2.617   1.103  0.00  0.00    -0.082 Cl
ATOM     13 CL   UNL     1      -3.389  -0.558   3.852  0.00  0.00    -0.080 Cl
ATOM     14  H   UNL     1      -1.691  -0.275   1.994  0.00  0.00    +0.156 HD
ENDBRANCH   2   3
BRANCH   2  15
ATOM     15  S   UNL     1       0.851  -0.589  -1.490  0.00  0.00    -0.075 S 
BRANCH  15  16
ATOM     16  C   UNL     1       2.509  -0.029  -1.285  0.00  0.00    +0.171 A 
ATOM     17  N   UNL     1       2.833   0.645  -0.200  0.00  0.00    -0.209 NA
ATOM     18  C   UNL     1       4.080   1.087  -0.007  0.00  0.00    +0.124 A 
ATOM     19  C   UNL     1       5.056   0.837  -0.962  0.00  0.00    +0.113 A 
ATOM     20  C   UNL     1       4.704   0.121  -2.111  0.00  0.00    +0.254 A 
ATOM     21  N   UNL     1       3.431  -0.305  -2.249  0.00  0.00    -0.302 N 
ATOM     22  O   UNL     1       5.536  -0.118  -2.972  0.00  0.00    -0.268 OA
ATOM     23  H   UNL     1       3.171  -0.806  -3.038  0.00  0.00    +0.171 HD
BRANCH  18  24
ATOM     24  N   UNL     1       4.396   1.792   1.137  0.00  0.00    -0.343 N 
ATOM     25  H   UNL     1       3.713   1.966   1.804  0.00  0.00    +0.144 HD
ATOM     26  H   UNL     1       5.301   2.112   1.276  0.00  0.00    +0.144 HD
ENDBRANCH  18  24
ENDBRANCH  15  16
ENDBRANCH   2  15
TORSDOF 4
