REMARK  Name = ZINC43757655
REMARK  8 active torsions:
REMARK  status: ('A' for Active; 'I' for Inactive)
REMARK    1  A    between atoms: C_1  and  C_2
REMARK    2  A    between atoms: C_15  and  O_31
REMARK    3  A    between atoms: C_18  and  C_30
REMARK    4  A    between atoms: C_23  and  C_24
REMARK    5  A    between atoms: C_23  and  O_29
REMARK    6  A    between atoms: C_24  and  C_26
REMARK    7  A    between atoms: C_24  and  O_28
REMARK    8  A    between atoms: C_26  and  O_27
REMARK                            x       y       z     vdW  Elec       q    Type
REMARK                         _______ _______ _______ _____ _____    ______ ____
ROOT
ATOM      1  C   UNL     1       0.008   1.116  -0.347  0.00  0.00    +0.016 C 
ATOM      2  C   UNL     1      -0.022  -0.409  -0.222  0.00  0.00    -0.005 C 
ATOM      3  C   UNL     1       0.670  -1.060  -1.414  0.00  0.00    +0.019 C 
ATOM      4  C   UNL     1       2.151  -0.670  -1.445  0.00  0.00    +0.080 C 
ATOM      5  C   UNL     1       2.786  -1.026  -0.125  0.00  0.00    +0.156 C 
ATOM      6  O   UNL     1       3.976  -1.258  -0.068  0.00  0.00    -0.293 OA
ATOM      7  C   UNL     1       1.971  -1.090   1.086  0.00  0.00    +0.046 C 
ATOM      8  C   UNL     1       0.673  -0.810   1.060  0.00  0.00    -0.060 C 
ATOM      9  C   UNL     1      -0.149  -0.889   2.326  0.00  0.00    +0.032 C 
ATOM     10  C   UNL     1      -1.227  -1.961   2.150  0.00  0.00    +0.008 C 
ATOM     11  C   UNL     1      -1.494  -2.196   0.673  0.00  0.00    -0.001 C 
ATOM     12  C   UNL     1      -1.476  -0.890  -0.120  0.00  0.00    +0.031 C 
ATOM     13  C   UNL     1      -2.094  -1.098  -1.496  0.00  0.00    +0.119 C 
ATOM     14  C   UNL     1      -3.583  -1.463  -1.406  0.00  0.00    +0.041 C 
ATOM     15  C   UNL     1      -3.908  -2.110  -0.085  0.00  0.00    +0.005 C 
ATOM     16  C   UNL     1      -2.736  -2.989   0.397  0.00  0.00    +0.001 C 
ATOM     17  C   UNL     1      -3.358  -3.734   1.588  0.00  0.00    +0.007 C 
ATOM     18  C   UNL     1      -4.803  -4.036   1.106  0.00  0.00    +0.038 C 
ATOM     19  C   UNL     1      -5.043  -3.153  -0.143  0.00  0.00    +0.100 C 
ATOM     20  C   UNL     1      -4.314  -1.059   0.953  0.00  0.00    +0.014 C 
ENDROOT
BRANCH  19  21
ATOM     21  O   UNL     1      -4.941  -3.931  -1.332  0.00  0.00    -0.385 OA
ATOM     22  H   UNL     1      -5.629  -4.604  -1.423  0.00  0.00    +0.210 HD
ENDBRANCH  19  21
BRANCH  13  23
ATOM     23  O   UNL     1      -1.974   0.096  -2.280  0.00  0.00    -0.391 OA
ATOM     24  H   UNL     1      -2.350   0.023  -3.167  0.00  0.00    +0.210 HD
ENDBRANCH  13  23
BRANCH  19  25
ATOM     25  C   UNL     1      -6.398  -2.456  -0.058  0.00  0.00    +0.172 C 
BRANCH  25  26
ATOM     26  O   UNL     1      -7.434  -3.437   0.028  0.00  0.00    -0.387 OA
ATOM     27  H   UNL     1      -7.469  -4.039  -0.728  0.00  0.00    +0.210 HD
ENDBRANCH  25  26
BRANCH  25  28
ATOM     28  C   UNL     1      -6.610  -1.599  -1.308  0.00  0.00    +0.190 C 
BRANCH  28  29
ATOM     29  O   UNL     1      -7.839  -0.881  -1.191  0.00  0.00    -0.392 OA
ATOM     30  H   UNL     1      -8.039  -0.316  -1.949  0.00  0.00    +0.210 HD
ENDBRANCH  28  29
ENDBRANCH  25  28
ENDBRANCH  19  25
TORSDOF 6
