REMARK  Name = ZINC49539685
REMARK  11 active torsions:
REMARK  status: ('A' for Active; 'I' for Inactive)
REMARK    1  A    between atoms: C_1  and  C_2
REMARK    2  A    between atoms: C_2  and  C_3
REMARK    3  A    between atoms: C_6  and  N_9
REMARK    4  A    between atoms: C_13  and  C_34
REMARK    5  A    between atoms: C_19  and  S_20
REMARK    6  A    between atoms: S_20  and  C_21
REMARK    7  A    between atoms: C_21  and  C_22
REMARK    8  A    between atoms: N_24  and  C_25
REMARK    9  A    between atoms: C_28  and  O_31
REMARK   10  A    between atoms: O_31  and  C_32
REMARK   11  A    between atoms: C_32  and  C_33
REMARK                            x       y       z     vdW  Elec       q    Type
REMARK                         _______ _______ _______ _____ _____    ______ ____
ROOT
ATOM      1  N   UNL     1      -5.304  -1.958   0.032  0.00  0.00    -0.277 N 
ATOM      2  C   UNL     1      -5.550  -3.171  -0.462  0.00  0.00    +0.115 A 
ATOM      3  N   UNL     1      -4.538  -3.953  -0.970  0.00  0.00    -0.344 N 
ATOM      4  C   UNL     1      -6.933  -3.642  -0.445  0.00  0.00    +0.079 A 
ATOM      5  C   UNL     1      -7.595  -4.783  -0.840  0.00  0.00    +0.046 A 
ATOM      6  N   UNL     1      -8.895  -4.620  -0.557  0.00  0.00    -0.279 N 
ATOM      7  N   UNL     1      -9.102  -3.366   0.029  0.00  0.00    -0.153 NA
ATOM      8  H   UNL     1      -9.589  -5.275  -0.733  0.00  0.00    +0.189 HD
ATOM      9  C   UNL     1      -7.951  -2.737   0.119  0.00  0.00    +0.187 A 
ATOM     10  N   UNL     1      -7.544  -1.538   0.581  0.00  0.00    -0.201 NA
ATOM     11  C   UNL     1      -6.278  -1.190   0.533  0.00  0.00    +0.177 A 
ATOM     12  C   UNL     1      -6.969  -5.997  -1.476  0.00  0.00    +0.066 C 
ATOM     13  H   UNL     1      -3.626  -3.623  -0.973  0.00  0.00    +0.144 HD
ATOM     14  H   UNL     1      -4.737  -4.833  -1.325  0.00  0.00    +0.144 HD
ENDROOT
BRANCH   1  18
ATOM     15  C   UNL     1      -1.410  -0.533   0.028  0.00  0.00    -0.047 A 
ATOM     16  C   UNL     1      -2.053  -0.777   1.228  0.00  0.00    +0.005 A 
ATOM     17  C   UNL     1      -3.349  -1.251   1.235  0.00  0.00    +0.026 A 
ATOM     18  C   UNL     1      -4.010  -1.484   0.030  0.00  0.00    +0.050 A 
ATOM     19  C   UNL     1      -3.357  -1.237  -1.176  0.00  0.00    +0.026 A 
ATOM     20  C   UNL     1      -2.062  -0.758  -1.171  0.00  0.00    +0.005 A 
BRANCH  15  22
ATOM     21  C   UNL     1      -0.010   1.514   0.042  0.00  0.00    +0.009 C 
ATOM     22  C   UNL     1       0.006  -0.016   0.027  0.00  0.00    +0.032 C 
ENDBRANCH  15  22
ENDBRANCH   1  18
BRANCH  11  23
ATOM     23  S   UNL     1      -5.835   0.394   1.165  0.00  0.00    -0.078 S 
BRANCH  23  24
ATOM     24  C   UNL     1      -7.408   1.095   1.736  0.00  0.00    +0.173 C 
BRANCH  24  25
ATOM     25  C   UNL     1      -7.168   2.468   2.308  0.00  0.00    +0.227 C 
ATOM     26  O   UNL     1      -6.046   2.929   2.328  0.00  0.00    -0.275 OA
ATOM     27  N   UNL     1      -8.200   3.184   2.796  0.00  0.00    -0.285 N 
ATOM     28  H   UNL     1      -9.105   2.845   2.719  0.00  0.00    +0.155 HD
BRANCH  27  29
ATOM     29  C   UNL     1      -7.965   4.419   3.415  0.00  0.00    +0.034 A 
ATOM     30  C   UNL     1      -8.743   4.813   4.496  0.00  0.00    +0.027 A 
ATOM     31  C   UNL     1      -8.510   6.030   5.106  0.00  0.00    +0.047 A 
ATOM     32  C   UNL     1      -7.501   6.859   4.639  0.00  0.00    +0.121 A 
ATOM     33  C   UNL     1      -6.724   6.466   3.559  0.00  0.00    +0.047 A 
ATOM     34  C   UNL     1      -6.951   5.247   2.952  0.00  0.00    +0.027 A 
BRANCH  32  35
ATOM     35  O   UNL     1      -7.273   8.057   5.240  0.00  0.00    -0.492 OA
BRANCH  35  36
ATOM     36  C   UNL     1      -6.217   8.860   4.707  0.00  0.00    +0.225 C 
ATOM     37  C   UNL     1      -6.112  10.160   5.506  0.00  0.00    +0.048 C 
ENDBRANCH  35  36
ENDBRANCH  32  35
ENDBRANCH  27  29
ENDBRANCH  24  25
ENDBRANCH  23  24
ENDBRANCH  11  23
TORSDOF 8
