REMARK  Name = ZINC20922447
REMARK  8 active torsions:
REMARK  status: ('A' for Active; 'I' for Inactive)
REMARK    1  A    between atoms: C_1  and  C_2
REMARK    2  A    between atoms: C_2  and  C_3
REMARK    3  A    between atoms: N_5  and  N_6
REMARK    4  A    between atoms: C_7  and  C_9
REMARK    5  A    between atoms: C_9  and  S_10
REMARK    6  A    between atoms: S_10  and  C_11
REMARK    7  A    between atoms: N_15  and  N_16
REMARK    8  A    between atoms: N_17  and  N_18
REMARK                            x       y       z     vdW  Elec       q    Type
REMARK                         _______ _______ _______ _____ _____    ______ ____
ROOT
ATOM      1  C   UNL     1      -2.080   1.760  -1.031  0.00  0.00    +0.210 A 
ATOM      2  N   UNL     1      -2.411   2.209  -2.217  0.00  0.00    -0.119 NA
ATOM      3  N   UNL     1      -1.257   2.228  -3.010  0.00  0.00    -0.110 NA
ATOM      4  C   UNL     1      -0.257   1.797  -2.281  0.00  0.00    +0.248 A 
ATOM      5  N   UNL     1      -0.741   1.490  -1.041  0.00  0.00    -0.211 N 
ATOM      6  N   UNL     1       1.062   1.669  -2.698  0.00  0.00    -0.251 N 
ATOM      7  H   UNL     1       1.824   1.291  -2.001  0.00  0.00    +0.169 HD
ENDROOT
BRANCH   5   8
ATOM      8  N   UNL     1      -0.012   1.005   0.008  0.00  0.00    -0.294 N 
ATOM      9  H   UNL     1       1.067   0.823  -0.110  0.00  0.00    +0.163 HD
ATOM     10  H   UNL     1      -0.503   0.796   0.969  0.00  0.00    +0.163 HD
ENDBRANCH   5   8
BRANCH   6  11
ATOM     11  N   UNL     1       1.412   2.013  -3.973  0.00  0.00    -0.254 NA
ATOM     12  H   UNL     1       2.489   1.844  -4.115  0.00  0.00    +0.140 HD
ATOM     13  H   UNL     1       0.846   1.396  -4.687  0.00  0.00    +0.140 HD
ENDBRANCH   6  11
BRANCH   1  14
ATOM     14  S   UNL     1      -3.171   1.545   0.336  0.00  0.00    -0.075 S 
BRANCH  14  15
ATOM     15  C   UNL     1      -4.783   2.078  -0.300  0.00  0.00    +0.174 C 
BRANCH  15  17
ATOM     16  N   UNL     1      -7.102   2.282   0.538  0.00  0.00    -0.234 N 
ATOM     17  C   UNL     1      -5.821   1.942   0.784  0.00  0.00    +0.239 C 
ATOM     18  O   UNL     1      -5.504   1.526   1.879  0.00  0.00    -0.273 OA
ATOM     19  H   UNL     1      -7.389   2.659  -0.455  0.00  0.00    +0.173 HD
BRANCH  16  22
ATOM     20  C   UNL     1      -9.347   2.496   1.300  0.00  0.00    +0.229 C 
ATOM     21  O   UNL     1      -9.664   2.911   0.205  0.00  0.00    -0.274 OA
ATOM     22  N   UNL     1      -8.066   2.156   1.546  0.00  0.00    -0.234 N 
ATOM     23  H   UNL     1      -7.779   1.779   2.538  0.00  0.00    +0.173 HD
BRANCH  20  25
ATOM     24  C   UNL     1     -11.745   2.810   1.847  0.00  0.00    +0.013 C 
ATOM     25  C   UNL     1     -10.385   2.360   2.384  0.00  0.00    +0.094 C 
ENDBRANCH  20  25
ENDBRANCH  16  22
ENDBRANCH  15  17
ENDBRANCH  14  15
ENDBRANCH   1  14
TORSDOF 7
