REMARK  Name = ZINC01256346
REMARK  7 active torsions:
REMARK  status: ('A' for Active; 'I' for Inactive)
REMARK    1  A    between atoms: C_4  and  C_7
REMARK    2  A    between atoms: C_7  and  C_8
REMARK    3  A    between atoms: C_8  and  C_9
REMARK    4  A    between atoms: N_19  and  C_20
REMARK    5  A    between atoms: C_20  and  C_21
REMARK    6  A    between atoms: C_27  and  C_29
REMARK    7  A    between atoms: C_27  and  C_33
REMARK                            x       y       z     vdW  Elec       q    Type
REMARK                         _______ _______ _______ _____ _____    ______ ____
ROOT
ATOM      1  C   UNL     1       5.111  -1.999   0.898  0.00  0.00    +0.097 C 
ATOM      2  N   UNL     1       5.545  -1.957   2.200  0.00  0.00    -0.289 N 
ATOM      3  C   UNL     1       6.895  -1.931   2.463  0.00  0.00    +0.119 A 
ATOM      4  C   UNL     1       7.778  -2.282   1.484  0.00  0.00    +0.100 A 
ATOM      5  C   UNL     1       9.154  -2.242   1.762  0.00  0.00    +0.262 A 
ATOM      6  O   UNL     1       9.964  -2.546   0.902  0.00  0.00    -0.267 OA
ATOM      7  N   UNL     1       9.573  -1.865   2.986  0.00  0.00    -0.275 N 
ATOM      8  H   UNL     1      10.523  -1.837   3.182  0.00  0.00    +0.173 HD
ATOM      9  C   UNL     1       8.686  -1.528   3.941  0.00  0.00    +0.331 A 
ATOM     10  O   UNL     1       9.087  -1.194   5.039  0.00  0.00    -0.246 OA
ATOM     11  N   UNL     1       7.362  -1.555   3.697  0.00  0.00    -0.277 N 
ATOM     12  C   UNL     1       7.285  -2.710   0.131  0.00  0.00    +0.284 C 
ATOM     13  N   UNL     1       5.889  -2.342  -0.064  0.00  0.00    -0.244 NA
ATOM     14  H   UNL     1       4.905  -1.946   2.929  0.00  0.00    +0.155 HD
ENDROOT
BRANCH  12  15
ATOM     15  C   UNL     1       8.139  -2.041  -0.948  0.00  0.00    +0.428 C 
ATOM     16  F   UNL     1       9.384  -2.676  -1.018  0.00  0.00    -0.167 F 
ATOM     17  F   UNL     1       7.492  -2.143  -2.184  0.00  0.00    -0.167 F 
ATOM     18  F   UNL     1       8.322  -0.691  -0.628  0.00  0.00    -0.167 F 
ENDBRANCH  12  15
BRANCH  12  19
ATOM     19  C   UNL     1       7.421  -4.229   0.006  0.00  0.00    +0.428 C 
ATOM     20  F   UNL     1       6.658  -4.849   1.001  0.00  0.00    -0.167 F 
ATOM     21  F   UNL     1       6.964  -4.635  -1.252  0.00  0.00    -0.167 F 
ATOM     22  F   UNL     1       8.764  -4.591   0.154  0.00  0.00    -0.167 F 
ENDBRANCH  12  19
BRANCH   1  23
ATOM     23  C   UNL     1       3.680  -1.639   0.591  0.00  0.00    +0.076 C 
BRANCH  23  24
ATOM     24  C   UNL     1       3.434  -1.766  -0.913  0.00  0.00    +0.042 C 
BRANCH  24  28
ATOM     25  C   UNL     1      -0.621  -0.747  -1.786  0.00  0.00    +0.000 A 
ATOM     26  C   UNL     1       0.354   0.233  -1.793  0.00  0.00    +0.000 A 
ATOM     27  C   UNL     1       1.667  -0.097  -1.510  0.00  0.00    +0.003 A 
ATOM     28  C   UNL     1       2.003  -1.406  -1.221  0.00  0.00    -0.047 A 
ATOM     29  C   UNL     1       1.027  -2.385  -1.213  0.00  0.00    +0.003 A 
ATOM     30  C   UNL     1      -0.285  -2.056  -1.497  0.00  0.00    +0.000 A 
ENDBRANCH  24  28
ENDBRANCH  23  24
ENDBRANCH   1  23
BRANCH  11  31
ATOM     31  C   UNL     1       6.418  -1.182   4.753  0.00  0.00    +0.163 C 
BRANCH  31  32
ATOM     32  C   UNL     1       6.042  -2.406   5.547  0.00  0.00    -0.028 A 
ATOM     33  C   UNL     1       4.959  -3.174   5.161  0.00  0.00    +0.005 A 
ATOM     34  C   UNL     1       4.614  -4.298   5.889  0.00  0.00    +0.000 A 
ATOM     35  C   UNL     1       5.352  -4.654   7.002  0.00  0.00    +0.000 A 
ATOM     36  C   UNL     1       6.436  -3.886   7.387  0.00  0.00    +0.000 A 
ATOM     37  C   UNL     1       6.783  -2.765   6.657  0.00  0.00    +0.005 A 
ENDBRANCH  31  32
ENDBRANCH  11  31
TORSDOF 7
