REMARK  Name = ZINC25390257
REMARK  11 active torsions:
REMARK  status: ('A' for Active; 'I' for Inactive)
REMARK    1  A    between atoms: C_1  and  C_2
REMARK    2  A    between atoms: C_2  and  C_3
REMARK    3  A    between atoms: C_7  and  C_37
REMARK    4  A    between atoms: C_8  and  N_9
REMARK    5  A    between atoms: C_10  and  C_12
REMARK    6  A    between atoms: C_12  and  S_13
REMARK    7  A    between atoms: S_13  and  C_14
REMARK    8  A    between atoms: C_17  and  C_19
REMARK    9  A    between atoms: N_28  and  C_30
REMARK   10  A    between atoms: C_30  and  C_31
REMARK   11  A    between atoms: C_37  and  C_38
REMARK                            x       y       z     vdW  Elec       q    Type
REMARK                         _______ _______ _______ _____ _____    ______ ____
ROOT
ATOM      1  C   UNL     1      -3.449  -4.079  -0.240  0.00  0.00    +0.278 A 
ATOM      2  N   UNL     1      -2.389  -4.807  -0.512  0.00  0.00    -0.101 NA
ATOM      3  N   UNL     1      -2.720  -6.050  -0.541  0.00  0.00    -0.105 NA
ATOM      4  C   UNL     1      -4.004  -6.165  -0.298  0.00  0.00    +0.270 A 
ATOM      5  O   UNL     1      -4.492  -4.920  -0.102  0.00  0.00    -0.409 OA
ENDROOT
BRANCH   4   6
ATOM      6  C   UNL     1      -4.774  -7.422  -0.247  0.00  0.00    +0.155 A 
ATOM      7  C   UNL     1      -4.101  -8.710  -0.482  0.00  0.00    +0.020 A 
ATOM      8  C   UNL     1      -2.737  -8.786  -0.757  0.00  0.00    +0.011 A 
ATOM      9  C   UNL     1      -2.153 -10.015  -0.969  0.00  0.00    +0.001 A 
ATOM     10  C   UNL     1      -2.909 -11.179  -0.913  0.00  0.00    +0.001 A 
ATOM     11  C   UNL     1      -4.259 -11.127  -0.643  0.00  0.00    +0.014 A 
ATOM     12  C   UNL     1      -4.870  -9.892  -0.425  0.00  0.00    +0.050 A 
ATOM     13  C   UNL     1      -6.305  -9.777  -0.134  0.00  0.00    +0.275 A 
ATOM     14  O   UNL     1      -7.005 -10.772  -0.075  0.00  0.00    -0.266 OA
ATOM     15  N   UNL     1      -6.835  -8.554   0.069  0.00  0.00    -0.224 N 
ATOM     16  N   UNL     1      -6.059  -7.396   0.013  0.00  0.00    -0.162 NA
BRANCH  15  17
ATOM     17  C   UNL     1      -8.266  -8.438   0.360  0.00  0.00    +0.182 C 
BRANCH  17  18
ATOM     18  C   UNL     1      -8.482  -8.509   1.850  0.00  0.00    -0.026 A 
ATOM     19  C   UNL     1      -8.698  -9.731   2.460  0.00  0.00    +0.005 A 
ATOM     20  C   UNL     1      -8.892  -9.797   3.827  0.00  0.00    +0.000 A 
ATOM     21  C   UNL     1      -8.880  -8.639   4.583  0.00  0.00    +0.000 A 
ATOM     22  C   UNL     1      -8.669  -7.417   3.973  0.00  0.00    +0.000 A 
ATOM     23  C   UNL     1      -8.470  -7.352   2.606  0.00  0.00    +0.005 A 
ENDBRANCH  17  18
ENDBRANCH  15  17
ENDBRANCH   4   6
BRANCH   1  24
ATOM     24  S   UNL     1      -3.497  -2.324  -0.090  0.00  0.00    -0.056 S 
BRANCH  24  25
ATOM     25  C   UNL     1      -1.757  -1.934  -0.401  0.00  0.00    +0.175 C 
BRANCH  25  27
ATOM     26  N   UNL     1      -0.330   0.082  -0.520  0.00  0.00    -0.284 N 
ATOM     27  C   UNL     1      -1.555  -0.443  -0.322  0.00  0.00    +0.228 C 
ATOM     28  O   UNL     1      -2.495   0.284  -0.079  0.00  0.00    -0.275 OA
ATOM     29  H   UNL     1       0.515  -0.574  -0.775  0.00  0.00    +0.155 HD
BRANCH  26  35
ATOM     30  C   UNL     1       0.142   2.023   0.838  0.00  0.00    -0.026 A 
ATOM     31  C   UNL     1       0.341   3.385   0.949  0.00  0.00    +0.005 A 
ATOM     32  C   UNL     1       0.256   4.192  -0.171  0.00  0.00    +0.001 A 
ATOM     33  C   UNL     1      -0.023   3.638  -1.406  0.00  0.00    +0.005 A 
ATOM     34  C   UNL     1      -0.218   2.276  -1.526  0.00  0.00    -0.026 A 
ATOM     35  C   UNL     1      -0.133   1.463  -0.403  0.00  0.00    +0.040 A 
BRANCH  30  37
ATOM     36  C   UNL     1       1.641   0.571   2.176  0.00  0.00    +0.009 C 
ATOM     37  C   UNL     1       0.228   1.146   2.060  0.00  0.00    +0.033 C 
ENDBRANCH  30  37
BRANCH  34  38
ATOM     38  C   UNL     1      -0.522   1.672  -2.873  0.00  0.00    +0.033 C 
ATOM     39  C   UNL     1      -2.037   1.527  -3.035  0.00  0.00    +0.009 C 
ENDBRANCH  34  38
ENDBRANCH  26  35
ENDBRANCH  25  27
ENDBRANCH  24  25
ENDBRANCH   1  24
TORSDOF 9
