REMARK  Name = ZINC19536090
REMARK  10 active torsions:
REMARK  status: ('A' for Active; 'I' for Inactive)
REMARK    1  A    between atoms: C_1  and  C_2
REMARK    2  A    between atoms: C_5  and  C_8
REMARK    3  A    between atoms: C_8  and  C_10
REMARK    4  A    between atoms: C_8  and  N_16
REMARK    5  A    between atoms: N_16  and  C_17
REMARK    6  A    between atoms: C_17  and  C_18
REMARK    7  A    between atoms: N_20  and  N_21
REMARK    8  A    between atoms: C_22  and  C_24
REMARK    9  A    between atoms: C_27  and  O_30
REMARK   10  A    between atoms: O_30  and  C_31
REMARK                            x       y       z     vdW  Elec       q    Type
REMARK                         _______ _______ _______ _____ _____    ______ ____
ROOT
ATOM      1  N   UNL     1       5.943   2.141  -0.043  0.00  0.00    +0.392 N 
ATOM      2  H   UNL     1       5.867   2.766   0.859  0.00  0.00    -0.084 HD
ATOM      3  H   UNL     1       5.850   2.776  -0.937  0.00  0.00    -0.084 HD
ENDROOT
BRANCH   1   4
ATOM      4  C   UNL     1       7.243   1.458  -0.059  0.00  0.00    -0.009 C 
BRANCH   4   9
ATOM      5  C   UNL     1      11.266   4.923   2.223  0.00  0.00    +0.044 C 
ATOM      6  C   UNL     1      10.217   4.020   1.628  0.00  0.00    -0.050 A 
ATOM      7  C   UNL     1      10.227   2.667   1.913  0.00  0.00    +0.003 A 
ATOM      8  C   UNL     1       9.264   1.838   1.368  0.00  0.00    +0.002 A 
ATOM      9  C   UNL     1       8.292   2.362   0.536  0.00  0.00    -0.057 A 
ATOM     10  C   UNL     1       8.286   3.714   0.246  0.00  0.00    +0.002 A 
ATOM     11  C   UNL     1       9.245   4.543   0.796  0.00  0.00    +0.003 A 
ENDBRANCH   4   9
BRANCH   4  12
ATOM     12  C   UNL     1       7.617   1.123  -1.480  0.00  0.00    -0.057 A 
ATOM     13  C   UNL     1       7.358   2.026  -2.494  0.00  0.00    +0.002 A 
ATOM     14  C   UNL     1       7.705   1.720  -3.797  0.00  0.00    +0.000 A 
ATOM     15  C   UNL     1       8.302   0.507  -4.087  0.00  0.00    +0.000 A 
ATOM     16  C   UNL     1       8.556  -0.398  -3.073  0.00  0.00    +0.000 A 
ATOM     17  C   UNL     1       8.214  -0.090  -1.770  0.00  0.00    +0.002 A 
ENDBRANCH   4  12
ENDBRANCH   1   4
BRANCH   1  18
ATOM     18  C   UNL     1       4.839   1.171  -0.038  0.00  0.00    +0.018 C 
BRANCH  18  19
ATOM     19  C   UNL     1       3.524   1.907  -0.021  0.00  0.00    +0.212 C 
ATOM     20  O   UNL     1       3.508   3.120  -0.015  0.00  0.00    -0.276 OA
ATOM     21  N   UNL     1       2.366   1.217  -0.014  0.00  0.00    -0.236 N 
ATOM     22  H   UNL     1       2.381   0.117  -0.020  0.00  0.00    +0.173 HD
BRANCH  21  23
ATOM     23  N   UNL     1       1.143   1.901   0.001  0.00  0.00    -0.230 N 
ATOM     24  C   UNL     1      -0.014   1.212   0.009  0.00  0.00    +0.260 C 
ATOM     25  O   UNL     1       0.002  -0.004   0.002  0.00  0.00    -0.269 OA
ATOM     26  H   UNL     1       1.129   3.001   0.007  0.00  0.00    +0.173 HD
BRANCH  24  27
ATOM     27  C   UNL     1      -1.303   1.932   0.019  0.00  0.00    +0.038 A 
ATOM     28  C   UNL     1      -1.324   3.329   0.032  0.00  0.00    +0.016 A 
ATOM     29  C   UNL     1      -2.527   3.998   0.037  0.00  0.00    +0.046 A 
ATOM     30  C   UNL     1      -3.721   3.285   0.039  0.00  0.00    +0.120 A 
ATOM     31  C   UNL     1      -3.704   1.895   0.030  0.00  0.00    +0.046 A 
ATOM     32  C   UNL     1      -2.504   1.219   0.021  0.00  0.00    +0.016 A 
BRANCH  30  33
ATOM     33  O   UNL     1      -4.905   3.947   0.049  0.00  0.00    -0.495 OA
ATOM     34  C   UNL     1      -4.849   5.375   0.057  0.00  0.00    +0.277 C 
ENDBRANCH  30  33
ENDBRANCH  24  27
ENDBRANCH  21  23
ENDBRANCH  18  19
ENDBRANCH   1  18
TORSDOF 8
