REMARK  Name = ZINC49186612
REMARK  8 active torsions:
REMARK  status: ('A' for Active; 'I' for Inactive)
REMARK    1  A    between atoms: C_1  and  C_2
REMARK    2  A    between atoms: C_5  and  C_7
REMARK    3  A    between atoms: C_7  and  C_9
REMARK    4  A    between atoms: C_7  and  N_10
REMARK    5  A    between atoms: N_10  and  S_11
REMARK    6  A    between atoms: S_11  and  C_14
REMARK    7  A    between atoms: C_19  and  N_20
REMARK    8  A    between atoms: N_20  and  N_21
REMARK                            x       y       z     vdW  Elec       q    Type
REMARK                         _______ _______ _______ _____ _____    ______ ____
ROOT
ATOM      1  S   UNL     1       2.373  -5.414   1.715  0.00  0.00    +0.061 S 
ATOM      2  O   UNL     1       3.442  -5.230   2.634  0.00  0.00    -0.153 OA
ATOM      3  O   UNL     1       1.032  -5.618   2.138  0.00  0.00    -0.153 OA
ENDROOT
BRANCH   1   4
ATOM      4  C   UNL     1       2.803  -6.800   0.716  0.00  0.00    +0.127 A 
ATOM      5  C   UNL     1       1.895  -7.824   0.527  0.00  0.00    +0.030 A 
ATOM      6  C   UNL     1       2.232  -8.912  -0.257  0.00  0.00    +0.002 A 
ATOM      7  C   UNL     1       3.477  -8.979  -0.855  0.00  0.00    +0.002 A 
ATOM      8  C   UNL     1       4.389  -7.959  -0.671  0.00  0.00    +0.026 A 
ATOM      9  C   UNL     1       4.052  -6.862   0.112  0.00  0.00    +0.067 A 
BRANCH   9  10
ATOM     10  N   UNL     1       4.970  -5.825   0.296  0.00  0.00    -0.281 N 
ATOM     11  H   UNL     1       4.724  -5.046   0.819  0.00  0.00    +0.166 HD
BRANCH  10  12
ATOM     12  N   UNL     1       6.215  -5.908  -0.261  0.00  0.00    -0.256 NA
ATOM     13  H   UNL     1       6.156  -6.050  -1.258  0.00  0.00    +0.140 HD
ATOM     14  H   UNL     1       6.764  -5.090  -0.043  0.00  0.00    +0.140 HD
ENDBRANCH  10  12
ENDBRANCH   9  10
ENDBRANCH   1   4
BRANCH   1  15
ATOM     15  N   UNL     1       2.362  -4.084   0.729  0.00  0.00    -0.182 NA
ATOM     16  H   UNL     1       2.997  -3.365   0.877  0.00  0.00    +0.149 HD
BRANCH  15  17
ATOM     17  C   UNL     1       1.395  -3.993  -0.367  0.00  0.00    +0.110 C 
ATOM     18  C   UNL     1       2.137  -3.758  -1.684  0.00  0.00    +0.031 C 
BRANCH  17  23
ATOM     19  C   UNL     1      -1.344   0.798   0.915  0.00  0.00    +0.051 C 
ATOM     20  C   UNL     1      -0.852  -0.565   0.500  0.00  0.00    -0.013 A 
ATOM     21  C   UNL     1      -1.554  -1.607  -0.008  0.00  0.00    +0.011 A 
ATOM     22  C   UNL     1      -0.885  -2.776  -0.321  0.00  0.00    +0.013 A 
ATOM     23  C   UNL     1       0.452  -2.845  -0.111  0.00  0.00    +0.008 A 
ATOM     24  S   UNL     1       0.807  -1.223   0.543  0.00  0.00    -0.097 S 
ENDBRANCH  17  23
ENDBRANCH  15  17
ENDBRANCH   1  15
TORSDOF 6
