REMARK  Name = ZINC33678478
REMARK  14 active torsions:
REMARK  status: ('A' for Active; 'I' for Inactive)
REMARK    1  A    between atoms: C_1  and  C_2
REMARK    2  A    between atoms: C_2  and  O_3
REMARK    3  A    between atoms: O_3  and  C_4
REMARK    4  A    between atoms: C_4  and  C_6
REMARK    5  A    between atoms: C_7  and  C_36
REMARK    6  A    between atoms: C_11  and  C_13
REMARK    7  A    between atoms: C_15  and  O_22
REMARK    8  A    between atoms: C_16  and  O_20
REMARK    9  A    between atoms: O_20  and  C_21
REMARK   10  A    between atoms: O_22  and  C_23
REMARK   11  A    between atoms: C_26  and  C_32
REMARK   12  A    between atoms: C_28  and  C_31
REMARK   13  A    between atoms: C_32  and  O_34
REMARK   14  A    between atoms: O_34  and  C_35
REMARK                            x       y       z     vdW  Elec       q    Type
REMARK                         _______ _______ _______ _____ _____    ______ ____
ROOT
ATOM      1  C   UNL     1       1.599  -2.369   2.355  0.00  0.00    +0.065 C 
ATOM      2  C   UNL     1       1.486  -3.684   2.612  0.00  0.00    +0.016 C 
ATOM      3  N   UNL     1       1.994  -4.209   3.768  0.00  0.00    -0.321 N 
ATOM      4  C   UNL     1       2.259  -3.404   4.843  0.00  0.00    +0.016 C 
ATOM      5  C   UNL     1       2.406  -2.072   4.681  0.00  0.00    +0.025 C 
ATOM      6  C   UNL     1       2.293  -1.445   3.312  0.00  0.00    +0.092 C 
ATOM      7  C   UNL     1       2.677  -1.233   5.776  0.00  0.00    +0.176 C 
ATOM      8  O   UNL     1       2.787  -0.036   5.599  0.00  0.00    -0.291 OA
ATOM      9  C   UNL     1       2.834  -1.792   7.164  0.00  0.00    +0.171 C 
ATOM     10  C   UNL     1       3.351  -3.231   7.067  0.00  0.00    +0.013 C 
ATOM     11  C   UNL     1       2.377  -4.039   6.206  0.00  0.00    +0.055 C 
ATOM     12  C   UNL     1       4.737  -3.241   6.421  0.00  0.00    +0.009 C 
ATOM     13  C   UNL     1       0.795  -4.584   1.621  0.00  0.00    +0.061 C 
ATOM     14  H   UNL     1       2.195  -5.288   3.839  0.00  0.00    +0.152 HD
ENDROOT
BRANCH   6  15
ATOM     15  C   UNL     1       3.672  -1.136   2.789  0.00  0.00    -0.030 A 
ATOM     16  C   UNL     1       4.027   0.171   2.511  0.00  0.00    +0.054 A 
ATOM     17  C   UNL     1       5.295   0.458   2.031  0.00  0.00    +0.163 A 
ATOM     18  C   UNL     1       6.208  -0.572   1.828  0.00  0.00    +0.175 A 
ATOM     19  C   UNL     1       5.846  -1.880   2.108  0.00  0.00    +0.063 A 
ATOM     20  C   UNL     1       4.580  -2.159   2.593  0.00  0.00    +0.023 A 
ATOM     21 BR   UNL     1       7.084  -3.283   1.835  0.00  0.00    -0.046 Br
BRANCH  18  22
ATOM     22  O   UNL     1       7.453  -0.295   1.356  0.00  0.00    -0.490 OA
ATOM     23  C   UNL     1       8.469  -0.025   2.325  0.00  0.00    +0.277 C 
ENDBRANCH  18  22
BRANCH  17  24
ATOM     24  O   UNL     1       5.645   1.743   1.758  0.00  0.00    -0.491 OA
ATOM     25  C   UNL     1       4.657   2.749   1.990  0.00  0.00    +0.277 C 
ENDBRANCH  17  24
ENDBRANCH   6  15
BRANCH   1  26
ATOM     26  C   UNL     1       1.058  -1.848   1.156  0.00  0.00    +0.338 C 
ATOM     27  O   UNL     1       0.032  -1.195   1.185  0.00  0.00    -0.245 OA
BRANCH  26  28
ATOM     28  O   UNL     1       1.680  -2.075  -0.019  0.00  0.00    -0.462 OA
BRANCH  28  30
ATOM     29  C   UNL     1       1.919  -1.879  -2.416  0.00  0.00    +0.048 C 
ATOM     30  C   UNL     1       1.078  -1.520  -1.190  0.00  0.00    +0.229 C 
ENDBRANCH  28  30
ENDBRANCH  26  28
ENDBRANCH   1  26
BRANCH   9  31
ATOM     31  C   UNL     1       3.820  -0.953   7.937  0.00  0.00    +0.318 C 
ATOM     32  O   UNL     1       4.833  -1.454   8.366  0.00  0.00    -0.250 OA
BRANCH  31  33
ATOM     33  O   UNL     1       3.573   0.349   8.148  0.00  0.00    -0.467 OA
ATOM     34  C   UNL     1       4.567   1.095   8.899  0.00  0.00    +0.280 C 
ENDBRANCH  31  33
ENDBRANCH   9  31
TORSDOF 8
