REMARK  Name = ZINC41586386
REMARK  9 active torsions:
REMARK  status: ('A' for Active; 'I' for Inactive)
REMARK    1  A    between atoms: C_1  and  C_2
REMARK    2  A    between atoms: C_2  and  O_3
REMARK    3  A    between atoms: O_3  and  C_4
REMARK    4  A    between atoms: C_4  and  C_6
REMARK    5  A    between atoms: N_11  and  C_13
REMARK    6  A    between atoms: C_13  and  C_14
REMARK    7  A    between atoms: C_15  and  O_33
REMARK    8  A    between atoms: C_17  and  C_32
REMARK    9  A    between atoms: C_22  and  C_23
REMARK                            x       y       z     vdW  Elec       q    Type
REMARK                         _______ _______ _______ _____ _____    ______ ____
ROOT
ATOM      1  C   UNL     1       3.162  -6.026   4.840  0.00  0.00    +0.020 A 
ATOM      2  C   UNL     1       4.512  -6.270   4.643  0.00  0.00    +0.122 A 
ATOM      3  C   UNL     1       5.226  -7.060   5.539  0.00  0.00    +0.050 A 
ATOM      4  C   UNL     1       4.600  -7.605   6.624  0.00  0.00    -0.033 A 
ATOM      5  C   UNL     1       3.242  -7.368   6.835  0.00  0.00    +0.071 A 
ATOM      6  C   UNL     1       2.511  -6.568   5.941  0.00  0.00    +0.145 A 
ATOM      7  O   UNL     1       1.228  -6.478   6.353  0.00  0.00    -0.451 OA
ATOM      8  C   UNL     1       1.017  -7.171   7.497  0.00  0.00    +0.176 C 
ATOM      9  C   UNL     1      -0.160  -7.280   8.163  0.00  0.00    +0.058 C 
ATOM     10  C   UNL     1       2.293  -7.797   7.879  0.00  0.00    +0.232 C 
ATOM     11  O   UNL     1       2.519  -8.501   8.847  0.00  0.00    -0.283 OA
ATOM     12  C   UNL     1       5.376  -8.461   7.592  0.00  0.00    +0.045 C 
ENDROOT
BRANCH   9  13
ATOM     13  C   UNL     1      -1.389  -6.725   7.578  0.00  0.00    -0.020 A 
ATOM     14  C   UNL     1      -1.386  -6.237   6.266  0.00  0.00    +0.008 A 
ATOM     15  C   UNL     1      -2.543  -5.719   5.724  0.00  0.00    +0.002 A 
ATOM     16  C   UNL     1      -3.706  -5.680   6.474  0.00  0.00    +0.015 A 
ATOM     17  C   UNL     1      -3.717  -6.160   7.773  0.00  0.00    +0.018 A 
ATOM     18  C   UNL     1      -2.569  -6.687   8.328  0.00  0.00    +0.023 A 
ATOM     19 BR   UNL     1      -5.313  -6.099   8.787  0.00  0.00    -0.050 Br
ENDBRANCH   9  13
BRANCH   2  20
ATOM     20  O   UNL     1       5.142  -5.733   3.568  0.00  0.00    -0.506 OA
ATOM     21  H   UNL     1       5.524  -4.860   3.731  0.00  0.00    +0.292 HD
ENDBRANCH   2  20
BRANCH   1  22
ATOM     22  C   UNL     1       2.401  -5.168   3.862  0.00  0.00    -0.036 C 
BRANCH  22  27
ATOM     23  C   UNL     1       1.982  -1.444   3.665  0.00  0.00    +0.081 C 
ATOM     24  C   UNL     1       1.297  -1.217   5.016  0.00  0.00    +0.011 C 
ATOM     25  C   UNL     1       1.912  -2.161   6.053  0.00  0.00    -0.018 C 
ATOM     26  C   UNL     1       1.773  -3.605   5.567  0.00  0.00    -0.078 C 
ATOM     27  N   UNL     1       2.471  -3.763   4.286  0.00  0.00    +0.383 N 
ATOM     28  C   UNL     1       1.841  -2.915   3.267  0.00  0.00    -0.064 C 
ATOM     29  H   UNL     1       3.437  -3.495   4.395  0.00  0.00    -0.081 HD
BRANCH  23  30
ATOM     30  C   UNL     1       1.332  -0.575   2.619  0.00  0.00    +0.308 C 
ATOM     31  O   UNL     1       0.811  -1.080   1.653  0.00  0.00    -0.251 OA
BRANCH  30  32
ATOM     32  O   UNL     1       1.332   0.760   2.760  0.00  0.00    -0.465 OA
BRANCH  32  34
ATOM     33  C   UNL     1       0.797   3.011   2.064  0.00  0.00    +0.048 C 
ATOM     34  C   UNL     1       0.698   1.521   1.731  0.00  0.00    +0.229 C 
ENDBRANCH  32  34
ENDBRANCH  30  32
ENDBRANCH  23  30
ENDBRANCH  22  27
ENDBRANCH   1  22
TORSDOF 7
