REMARK  Name = ZINC39937411
REMARK  14 active torsions:
REMARK  status: ('A' for Active; 'I' for Inactive)
REMARK    1  A    between atoms: C_1  and  C_2
REMARK    2  A    between atoms: C_2  and  C_3
REMARK    3  A    between atoms: C_2  and  N_4
REMARK    4  A    between atoms: N_4  and  C_5
REMARK    5  A    between atoms: C_5  and  C_6
REMARK    6  A    between atoms: C_6  and  C_8
REMARK    7  A    between atoms: C_6  and  O_20
REMARK    8  A    between atoms: C_8  and  O_9
REMARK    9  A    between atoms: O_9  and  C_10
REMARK   10  A    between atoms: O_20  and  C_21
REMARK   11  A    between atoms: C_23  and  O_37
REMARK   12  A    between atoms: C_25  and  O_36
REMARK   13  A    between atoms: C_27  and  O_35
REMARK   14  A    between atoms: C_29  and  C_32
REMARK                            x       y       z     vdW  Elec       q    Type
REMARK                         _______ _______ _______ _____ _____    ______ ____
ROOT
ATOM      1  C   UNL     1       2.698  -0.657  -2.375  0.00  0.00    +0.142 C 
ENDROOT
BRANCH   1   2
ATOM      2  C   UNL     1       1.741  -0.118  -1.310  0.00  0.00    -0.047 C 
BRANCH   2   3
ATOM      3  N   UNL     1       0.362  -0.483  -1.661  0.00  0.00    +0.382 N 
ATOM      4  H   UNL     1       0.301  -1.482  -1.790  0.00  0.00    -0.085 HD
ATOM      5  H   UNL     1       0.097  -0.017  -2.515  0.00  0.00    -0.085 HD
BRANCH   3   7
ATOM      6  C   UNL     1      -0.546   1.451  -0.465  0.00  0.00    -0.014 C 
ATOM      7  C   UNL     1      -0.543  -0.074  -0.579  0.00  0.00    -0.078 C 
ATOM      8  C   UNL     1      -1.960  -0.565  -0.885  0.00  0.00    -0.014 C 
ENDBRANCH   3   7
ENDBRANCH   2   3
ENDBRANCH   1   2
BRANCH   1   9
ATOM      9  C   UNL     1       4.120  -0.182  -2.071  0.00  0.00    +0.258 C 
BRANCH   9  10
ATOM     10  O   UNL     1       4.474  -0.564  -0.740  0.00  0.00    -0.489 OA
BRANCH  10  11
ATOM     11  C   UNL     1       5.714  -0.215  -0.309  0.00  0.00    +0.128 A 
ATOM     12  C   UNL     1       6.561   0.474  -1.131  0.00  0.00    +0.046 A 
ATOM     13  C   UNL     1       7.834   0.838  -0.704  0.00  0.00    +0.004 A 
ATOM     14  C   UNL     1       8.274   0.519   0.545  0.00  0.00    +0.009 A 
ATOM     15  C   UNL     1       7.434  -0.189   1.421  0.00  0.00    -0.014 A 
ATOM     16  C   UNL     1       6.135  -0.557   0.993  0.00  0.00    +0.024 A 
ATOM     17  C   UNL     1       5.294  -1.261   1.870  0.00  0.00    +0.012 A 
ATOM     18  C   UNL     1       5.734  -1.574   3.119  0.00  0.00    +0.001 A 
ATOM     19  C   UNL     1       7.010  -1.207   3.543  0.00  0.00    +0.001 A 
ATOM     20  C   UNL     1       7.856  -0.534   2.716  0.00  0.00    +0.008 A 
ENDBRANCH  10  11
ENDBRANCH   9  10
ENDBRANCH   1   9
BRANCH   1  21
ATOM     21  O   UNL     1       2.661  -2.086  -2.369  0.00  0.00    -0.344 OA
BRANCH  21  22
ATOM     22  C   UNL     1       2.800  -2.676  -3.663  0.00  0.00    +0.283 C 
ATOM     23  C   UNL     1       2.462  -4.168  -3.582  0.00  0.00    +0.201 C 
ATOM     24  C   UNL     1       2.671  -4.806  -4.959  0.00  0.00    +0.179 C 
ATOM     25  C   UNL     1       4.114  -4.560  -5.410  0.00  0.00    +0.185 C 
ATOM     26  C   UNL     1       4.388  -3.053  -5.420  0.00  0.00    +0.265 C 
ATOM     27  O   UNL     1       4.145  -2.517  -4.118  0.00  0.00    -0.331 OA
BRANCH  26  28
ATOM     28  C   UNL     1       5.823  -2.806  -5.806  0.00  0.00    +0.387 C 
ATOM     29  O   UNL     1       6.215  -3.105  -6.921  0.00  0.00    -0.243 OA
ATOM     30  O   UNL     1       6.593  -2.306  -5.003  0.00  0.00    -0.243 OA
ENDBRANCH  26  28
BRANCH  25  31
ATOM     31  O   UNL     1       4.301  -5.089  -6.724  0.00  0.00    -0.386 OA
ATOM     32  H   UNL     1       5.194  -4.968  -7.074  0.00  0.00    +0.210 HD
ENDBRANCH  25  31
BRANCH  24  33
ATOM     33  O   UNL     1       1.768  -4.220  -5.899  0.00  0.00    -0.386 OA
ATOM     34  H   UNL     1       1.846  -4.578  -6.794  0.00  0.00    +0.210 HD
ENDBRANCH  24  33
BRANCH  23  35
ATOM     35  O   UNL     1       3.317  -4.799  -2.627  0.00  0.00    -0.384 OA
ATOM     36  H   UNL     1       3.240  -4.441  -1.732  0.00  0.00    +0.210 HD
ENDBRANCH  23  35
ENDBRANCH  21  22
ENDBRANCH   1  21
TORSDOF 12
