REMARK  Name = ZINC36880404
REMARK  7 active torsions:
REMARK  status: ('A' for Active; 'I' for Inactive)
REMARK    1  A    between atoms: C_1  and  C_2
REMARK    2  A    between atoms: C_2  and  C_3
REMARK    3  A    between atoms: C_2  and  C_4
REMARK    4  A    between atoms: C_2  and  C_5
REMARK    5  A    between atoms: C_5  and  C_6
REMARK    6  A    between atoms: N_8  and  C_9
REMARK    7  A    between atoms: C_12  and  N_15
REMARK                            x       y       z     vdW  Elec       q    Type
REMARK                         _______ _______ _______ _____ _____    ______ ____
ROOT
ATOM      1  C   UNL     1       4.331   0.222  -2.298  0.00  0.00    +0.073 C 
ATOM      2  C   UNL     1       4.351   1.629  -2.901  0.00  0.00    +0.021 C 
ATOM      3  C   UNL     1       5.787   2.158  -2.912  0.00  0.00    -0.014 C 
ATOM      4  C   UNL     1       6.666   1.231  -3.752  0.00  0.00    -0.075 C 
ATOM      5  C   UNL     1       6.646  -0.176  -3.150  0.00  0.00    -0.014 C 
ATOM      6  C   UNL     1       5.210  -0.705  -3.139  0.00  0.00    +0.021 C 
ENDROOT
BRANCH   1   9
ATOM      7  C   UNL     1       2.132   0.024  -1.268  0.00  0.00    +0.214 C 
ATOM      8  O   UNL     1       2.528   0.722  -0.358  0.00  0.00    -0.276 OA
ATOM      9  N   UNL     1       2.957  -0.285  -2.288  0.00  0.00    -0.312 N 
ATOM     10  H   UNL     1       2.640  -0.843  -3.015  0.00  0.00    +0.149 HD
BRANCH   7  11
ATOM     11  C   UNL     1       0.718  -0.497  -1.257  0.00  0.00    +0.102 C 
BRANCH  11  13
ATOM     12  C   UNL     1      -0.019   1.526   0.010  0.00  0.00    +0.011 C 
ATOM     13  C   UNL     1       0.002  -0.004   0.002  0.00  0.00    -0.029 C 
ATOM     14  C   UNL     1       0.742  -0.511   1.242  0.00  0.00    +0.011 C 
ATOM     15  C   UNL     1      -1.433  -0.534   0.013  0.00  0.00    +0.011 C 
ENDBRANCH  11  13
ENDBRANCH   7  11
ENDBRANCH   1   9
BRANCH   4  16
ATOM     16  N   UNL     1       8.044   1.739  -3.763  0.00  0.00    +0.380 N 
ATOM     17  H   UNL     1       8.398   1.773  -2.818  0.00  0.00    -0.090 HD
ATOM     18  H   UNL     1       8.624   1.127  -4.317  0.00  0.00    -0.090 HD
ATOM     19  H   UNL     1       8.057   2.667  -4.160  0.00  0.00    -0.090 HD
ENDBRANCH   4  16
TORSDOF 4
