REMARK  Name = ZINC64256080
REMARK  8 active torsions:
REMARK  status: ('A' for Active; 'I' for Inactive)
REMARK    1  A    between atoms: C_1  and  C_2
REMARK    2  A    between atoms: C_5  and  S_8
REMARK    3  A    between atoms: S_8  and  C_9
REMARK    4  A    between atoms: C_9  and  C_10
REMARK    5  A    between atoms: N_12  and  N_13
REMARK    6  A    between atoms: N_16  and  C_17
REMARK    7  A    between atoms: N_20  and  C_23
REMARK    8  A    between atoms: C_23  and  C_24
REMARK                            x       y       z     vdW  Elec       q    Type
REMARK                         _______ _______ _______ _____ _____    ______ ____
ROOT
ATOM      1  N   UNL     1       0.039  -8.270   3.230  0.00  0.00    -0.218 N 
ATOM      2  C   UNL     1       0.044  -8.871   4.437  0.00  0.00    +0.316 C 
ATOM      3  O   UNL     1       0.000 -10.083   4.513  0.00  0.00    -0.251 OA
ATOM      4  N   UNL     1       0.098  -8.127   5.559  0.00  0.00    -0.296 N 
ATOM      5  H   UNL     1       0.000  -8.806   2.422  0.00  0.00    +0.174 HD
ATOM      6  H   UNL     1       0.133  -7.159   5.499  0.00  0.00    +0.151 HD
ENDROOT
BRANCH   4   7
ATOM      7  C   UNL     1       0.104  -8.779   6.871  0.00  0.00    +0.071 C 
ATOM      8  C   UNL     1      -1.337  -9.057   7.311  0.00  0.00    +0.004 C 
ATOM      9  C   UNL     1      -1.327  -9.665   8.715  0.00  0.00    -0.077 C 
ATOM     10  N   UNL     1      -0.699  -8.728   9.654  0.00  0.00    +0.383 N 
ATOM     11  C   UNL     1       0.704  -8.513   9.279  0.00  0.00    -0.077 C 
ATOM     12  C   UNL     1       0.773  -7.860   7.897  0.00  0.00    +0.004 C 
ATOM     13  H   UNL     1      -1.191  -7.848   9.629  0.00  0.00    -0.082 HD
BRANCH  10  14
ATOM     14  C   UNL     1      -0.761  -9.283  11.013  0.00  0.00    -0.006 C 
BRANCH  14  15
ATOM     15  C   UNL     1      -2.218  -9.328  11.478  0.00  0.00    +0.325 C 
ATOM     16  F   UNL     1      -2.792  -8.060  11.337  0.00  0.00    -0.211 F 
ATOM     17  F   UNL     1      -2.928 -10.250  10.702  0.00  0.00    -0.211 F 
ENDBRANCH  14  15
ENDBRANCH  10  14
ENDBRANCH   4   7
BRANCH   1  20
ATOM     18  C   UNL     1       0.084  -6.273   1.936  0.00  0.00    +0.239 C 
ATOM     19  O   UNL     1       0.036  -6.942   0.926  0.00  0.00    -0.273 OA
ATOM     20  N   UNL     1       0.090  -6.873   3.143  0.00  0.00    -0.233 N 
ATOM     21  H   UNL     1       0.129  -6.338   3.950  0.00  0.00    +0.173 HD
BRANCH  18  22
ATOM     22  C   UNL     1       0.139  -4.770   1.842  0.00  0.00    +0.171 C 
BRANCH  22  23
ATOM     23  S   UNL     1       0.117  -4.272   0.098  0.00  0.00    -0.116 S 
BRANCH  23  28
ATOM     24  C   UNL     1       0.347   1.757   0.297  0.00  0.00    +0.044 C 
ATOM     25  C   UNL     1       0.290   0.252   0.247  0.00  0.00    -0.050 A 
ATOM     26  C   UNL     1       0.239  -0.397  -0.974  0.00  0.00    +0.004 A 
ATOM     27  C   UNL     1       0.186  -1.776  -1.023  0.00  0.00    +0.015 A 
ATOM     28  C   UNL     1       0.185  -2.512   0.156  0.00  0.00    +0.008 A 
ATOM     29  C   UNL     1       0.238  -1.857   1.380  0.00  0.00    +0.015 A 
ATOM     30  C   UNL     1       0.296  -0.478   1.422  0.00  0.00    +0.004 A 
ENDBRANCH  23  28
ENDBRANCH  22  23
ENDBRANCH  18  22
ENDBRANCH   1  20
TORSDOF 7
