REMARK  Name = ZINC19731536
REMARK  6 active torsions:
REMARK  status: ('A' for Active; 'I' for Inactive)
REMARK    1  A    between atoms: C_1  and  N_2
REMARK    2  A    between atoms: N_5  and  C_8
REMARK    3  A    between atoms: C_8  and  C_9
REMARK    4  A    between atoms: C_9  and  C_11
REMARK    5  A    between atoms: C_9  and  O_18
REMARK    6  A    between atoms: C_15  and  N_17
REMARK                            x       y       z     vdW  Elec       q    Type
REMARK                         _______ _______ _______ _____ _____    ______ ____
ROOT
ATOM      1  C   UNL     1       2.470   3.914  -0.003  0.00  0.00    +0.159 C 
ENDROOT
BRANCH   1   2
ATOM      2  C   UNL     1       1.165   3.159   0.007  0.00  0.00    -0.016 A 
ATOM      3  C   UNL     1       1.167   1.776   0.021  0.00  0.00    +0.006 A 
ATOM      4  C   UNL     1      -0.027   1.080   0.031  0.00  0.00    +0.002 A 
ATOM      5  C   UNL     1      -1.227   1.764   0.020  0.00  0.00    +0.023 A 
ATOM      6  C   UNL     1      -1.233   3.153   0.011  0.00  0.00    +0.025 A 
ATOM      7  C   UNL     1      -0.031   3.849   0.002  0.00  0.00    +0.029 A 
BRANCH   6   8
ATOM      8  N   UNL     1      -2.444   3.848   0.006  0.00  0.00    -0.358 N 
ATOM      9  H   UNL     1      -2.447   4.948  -0.002  0.00  0.00    +0.142 HD
ATOM     10  H   UNL     1      -3.395   3.295   0.009  0.00  0.00    +0.142 HD
ENDBRANCH   6   8
ENDBRANCH   1   2
BRANCH   1  11
ATOM     11  O   UNL     1       3.398   3.250  -0.863  0.00  0.00    -0.386 OA
ATOM     12  H   UNL     1       3.161   3.115  -1.929  0.00  0.00    +0.210 HD
ENDBRANCH   1  11
BRANCH   1  13
ATOM     13  C   UNL     1       3.038   3.967   1.417  0.00  0.00    +0.120 C 
BRANCH  13  18
ATOM     14  C   UNL     1       7.467   7.332   2.403  0.00  0.00    -0.096 C 
ATOM     15  N   UNL     1       6.202   6.585   2.410  0.00  0.00    +0.379 N 
ATOM     16  C   UNL     1       5.401   6.894   1.216  0.00  0.00    -0.064 C 
ATOM     17  C   UNL     1       4.061   6.159   1.301  0.00  0.00    +0.066 C 
ATOM     18  N   UNL     1       4.303   4.714   1.410  0.00  0.00    -0.303 NA
ATOM     19  C   UNL     1       5.104   4.406   2.603  0.00  0.00    +0.066 C 
ATOM     20  C   UNL     1       6.444   5.140   2.519  0.00  0.00    -0.064 C 
ATOM     21  H   UNL     1       5.629   6.901   3.294  0.00  0.00    -0.082 HD
ENDBRANCH  13  18
ENDBRANCH   1  13
TORSDOF 5
