REMARK  Name = ZINC64885821
REMARK  9 active torsions:
REMARK  status: ('A' for Active; 'I' for Inactive)
REMARK    1  A    between atoms: C_1  and  C_2
REMARK    2  A    between atoms: C_5  and  C_27
REMARK    3  A    between atoms: N_6  and  C_7
REMARK    4  A    between atoms: C_11  and  C_12
REMARK    5  A    between atoms: N_14  and  N_15
REMARK    6  A    between atoms: N_18  and  C_19
REMARK    7  A    between atoms: C_19  and  C_20
REMARK    8  A    between atoms: C_20  and  C_21
REMARK    9  A    between atoms: C_21  and  N_22
REMARK                            x       y       z     vdW  Elec       q    Type
REMARK                         _______ _______ _______ _____ _____    ______ ____
ROOT
ATOM      1  C   UNL     1       2.594  -0.255   2.672  0.00  0.00    +0.269 C 
ATOM      2  O   UNL     1       2.828  -0.623   1.535  0.00  0.00    -0.268 OA
ATOM      3  N   UNL     1       3.610   0.035   3.508  0.00  0.00    -0.229 N 
ATOM      4  H   UNL     1       3.424   0.328   4.414  0.00  0.00    +0.173 HD
ENDROOT
BRANCH   3   5
ATOM      5  N   UNL     1       4.935  -0.086   3.070  0.00  0.00    -0.218 N 
ATOM      6  C   UNL     1       5.951   0.205   3.906  0.00  0.00    +0.316 C 
ATOM      7  O   UNL     1       7.101   0.100   3.526  0.00  0.00    -0.251 OA
ATOM      8  N   UNL     1       5.692   0.612   5.165  0.00  0.00    -0.298 N 
ATOM      9  H   UNL     1       5.121  -0.379   2.164  0.00  0.00    +0.174 HD
ATOM     10  H   UNL     1       4.775   0.696   5.469  0.00  0.00    +0.150 HD
BRANCH   8  11
ATOM     11  C   UNL     1       6.797   0.927   6.074  0.00  0.00    +0.107 C 
BRANCH  11  12
ATOM     12  C   UNL     1       6.234   1.361   7.429  0.00  0.00    +0.040 C 
BRANCH  12  13
ATOM     13  C   UNL     1       7.387   1.690   8.379  0.00  0.00    +0.124 C 
BRANCH  13  14
ATOM     14  N   UNL     1       6.848   2.105   9.676  0.00  0.00    -0.338 N 
ATOM     15  C   UNL     1       6.526   3.382  10.052  0.00  0.00    +0.104 A 
ATOM     16  C   UNL     1       6.068   3.312  11.316  0.00  0.00    +0.101 A 
ATOM     17  N   UNL     1       6.109   2.029  11.702  0.00  0.00    -0.352 N 
ATOM     18  C   UNL     1       6.570   1.299  10.724  0.00  0.00    +0.173 A 
ATOM     19  H   UNL     1       5.835   1.695  12.571  0.00  0.00    +0.166 HD
ENDBRANCH  13  14
ENDBRANCH  12  13
ENDBRANCH  11  12
ENDBRANCH   8  11
ENDBRANCH   3   5
BRANCH   1  24
ATOM     20  C   UNL     1       0.030  -0.376   2.433  0.00  0.00    +0.066 A 
ATOM     21  C   UNL     1      -1.133  -0.168   3.147  0.00  0.00    +0.034 A 
ATOM     22  C   UNL     1      -1.051   0.253   4.431  0.00  0.00    +0.048 A 
ATOM     23  S   UNL     1       0.598   0.384   4.722  0.00  0.00    -0.090 S 
ATOM     24  C   UNL     1       1.212  -0.129   3.129  0.00  0.00    +0.099 A 
BRANCH  20  30
ATOM     25  C   UNL     1      -0.018   1.503   0.010  0.00  0.00    +0.064 C 
ATOM     26  C   UNL     1       0.002  -0.004   0.002  0.00  0.00    +0.021 A 
ATOM     27  C   UNL     1       0.008  -0.789  -1.095  0.00  0.00    +0.023 A 
ATOM     28  C   UNL     1       0.029  -2.128  -0.656  0.00  0.00    +0.023 A 
ATOM     29  C   UNL     1       0.034  -2.113   0.692  0.00  0.00    +0.021 A 
ATOM     30  N   UNL     1       0.024  -0.811   1.104  0.00  0.00    -0.316 N 
ATOM     31  C   UNL     1       0.055  -3.324   1.589  0.00  0.00    +0.064 C 
ENDBRANCH  20  30
ENDBRANCH   1  24
TORSDOF 7
