REMARK  Name = ZINC31163907
REMARK  13 active torsions:
REMARK  status: ('A' for Active; 'I' for Inactive)
REMARK    1  A    between atoms: C_1  and  C_2
REMARK    2  A    between atoms: C_2  and  C_3
REMARK    3  A    between atoms: C_3  and  C_4
REMARK    4  A    between atoms: C_5  and  O_29
REMARK    5  A    between atoms: C_8  and  O_12
REMARK    6  A    between atoms: C_9  and  C_10
REMARK    7  A    between atoms: C_10  and  O_11
REMARK    8  A    between atoms: O_12  and  C_13
REMARK    9  A    between atoms: C_15  and  O_28
REMARK   10  A    between atoms: C_17  and  O_27
REMARK   11  A    between atoms: C_19  and  O_26
REMARK   12  A    between atoms: C_21  and  C_24
REMARK   13  A    between atoms: C_24  and  O_25
REMARK                            x       y       z     vdW  Elec       q    Type
REMARK                         _______ _______ _______ _____ _____    ______ ____
ROOT
ATOM      1  O   UNL     1       0.717  -0.477   1.145  0.00  0.00    -0.460 OA
ENDROOT
BRANCH   1   6
ATOM      2  C   UNL     1       0.162  -0.571   4.740  0.00  0.00    +0.003 A 
ATOM      3  C   UNL     1      -1.081   0.039   4.825  0.00  0.00    +0.121 A 
ATOM      4  C   UNL     1      -1.720   0.475   3.674  0.00  0.00    +0.049 A 
ATOM      5  C   UNL     1      -1.115   0.308   2.443  0.00  0.00    +0.050 A 
ATOM      6  C   UNL     1       0.125  -0.307   2.358  0.00  0.00    +0.130 A 
ATOM      7  C   UNL     1       0.763  -0.743   3.509  0.00  0.00    +0.026 A 
BRANCH   3   8
ATOM      8  O   UNL     1      -1.673   0.209   6.037  0.00  0.00    -0.506 OA
ATOM      9  H   UNL     1      -2.659   0.692   6.105  0.00  0.00    +0.292 HD
ENDBRANCH   3   8
BRANCH   2  10
ATOM     10  C   UNL     1       0.856  -1.044   5.991  0.00  0.00    +0.039 C 
BRANCH  10  12
ATOM     11  C   UNL     1       2.436  -0.399   7.816  0.00  0.00    +0.004 C 
ATOM     12  C   UNL     1       1.731   0.082   6.546  0.00  0.00    +0.001 C 
ENDBRANCH  10  12
ENDBRANCH   2  10
BRANCH   7  13
ATOM     13  C   UNL     1       2.114  -1.405   3.417  0.00  0.00    +0.195 C 
BRANCH  13  14
ATOM     14  O   UNL     1       3.138  -0.413   3.511  0.00  0.00    -0.390 OA
ATOM     15  H   UNL     1       4.197  -0.709   3.463  0.00  0.00    +0.210 HD
ENDBRANCH  13  14
ENDBRANCH   7  13
ENDBRANCH   1   6
BRANCH   1  16
ATOM     16  C   UNL     1       0.002  -0.004   0.002  0.00  0.00    +0.339 C 
ATOM     17  C   UNL     1       0.693  -0.497  -1.272  0.00  0.00    +0.214 C 
ATOM     18  C   UNL     1       2.108   0.087  -1.334  0.00  0.00    +0.180 C 
ATOM     19  C   UNL     1       2.022   1.615  -1.273  0.00  0.00    +0.177 C 
ATOM     20  C   UNL     1       1.279   2.026   0.001  0.00  0.00    +0.179 C 
ATOM     21  O   UNL     1      -0.017   1.425   0.010  0.00  0.00    -0.331 OA
BRANCH  19  22
ATOM     22  O   UNL     1       3.339   2.168  -1.258  0.00  0.00    -0.386 OA
ATOM     23  H   UNL     1       3.478   3.258  -1.215  0.00  0.00    +0.210 HD
ENDBRANCH  19  22
BRANCH  18  24
ATOM     24  O   UNL     1       2.872  -0.393  -0.226  0.00  0.00    -0.386 OA
ATOM     25  H   UNL     1       3.919  -0.079  -0.103  0.00  0.00    +0.210 HD
ENDBRANCH  18  24
BRANCH  17  26
ATOM     26  O   UNL     1      -0.051  -0.070  -2.415  0.00  0.00    -0.383 OA
ATOM     27  H   UNL     1       0.295  -0.332  -3.426  0.00  0.00    +0.210 HD
ENDBRANCH  17  26
BRANCH  20  28
ATOM     28  C   UNL     1       1.136   3.549   0.039  0.00  0.00    +0.190 C 
BRANCH  28  29
ATOM     29  O   UNL     1       0.546   3.941   1.280  0.00  0.00    -0.392 OA
ATOM     30  H   UNL     1       0.363   5.005   1.491  0.00  0.00    +0.210 HD
ENDBRANCH  28  29
ENDBRANCH  20  28
ENDBRANCH   1  16
TORSDOF 12
