REMARK  Name = ZINC17092150
REMARK  7 active torsions:
REMARK  status: ('A' for Active; 'I' for Inactive)
REMARK    1  A    between atoms: C_1  and  O_2
REMARK    2  A    between atoms: O_2  and  C_3
REMARK    3  A    between atoms: C_3  and  C_5
REMARK    4  A    between atoms: C_7  and  C_25
REMARK    5  A    between atoms: C_9  and  N_10
REMARK    6  A    between atoms: C_11  and  C_13
REMARK    7  A    between atoms: C_19  and  O_24
REMARK                            x       y       z     vdW  Elec       q    Type
REMARK                         _______ _______ _______ _____ _____    ______ ____
ROOT
ATOM      1  N   UNL     1       1.527  -1.988  -0.022  0.00  0.00    -0.275 N 
ATOM      2  C   UNL     1       2.807  -2.410  -0.037  0.00  0.00    +0.254 C 
ATOM      3  O   UNL     1       3.715  -1.601  -0.042  0.00  0.00    -0.270 OA
ATOM      4  H   UNL     1       0.706  -2.720  -0.018  0.00  0.00    +0.156 HD
ENDROOT
BRANCH   2   5
ATOM      5  C   UNL     1       3.106  -3.851  -0.047  0.00  0.00    +0.097 A 
ATOM      6  C   UNL     1       2.085  -4.782  -0.042  0.00  0.00    +0.030 A 
ATOM      7  C   UNL     1       2.442  -6.201  -0.052  0.00  0.00    +0.022 A 
ATOM      8  C   UNL     1       1.442  -7.184  -0.048  0.00  0.00    +0.012 A 
ATOM      9  C   UNL     1       1.785  -8.506  -0.059  0.00  0.00    +0.004 A 
ATOM     10  C   UNL     1       3.119  -8.886  -0.074  0.00  0.00    +0.049 A 
ATOM     11  C   UNL     1       4.122  -7.934  -0.080  0.00  0.00    +0.160 A 
ATOM     12  C   UNL     1       3.794  -6.579  -0.068  0.00  0.00    +0.179 A 
ATOM     13  O   UNL     1       4.773  -5.647  -0.073  0.00  0.00    -0.435 OA
ATOM     14  C   UNL     1       4.499  -4.328  -0.069  0.00  0.00    +0.205 A 
ATOM     15  N   UNL     1       5.479  -3.464  -0.080  0.00  0.00    -0.369 N 
ATOM     16  H   UNL     1       6.521  -3.815  -0.096  0.00  0.00    +0.159 HD
ATOM     17  H   UNL     1       5.261  -2.386  -0.072  0.00  0.00    +0.159 HD
BRANCH  11  18
ATOM     18  O   UNL     1       5.427  -8.319  -0.096  0.00  0.00    -0.503 OA
ATOM     19  H   UNL     1       6.224  -7.561  -0.100  0.00  0.00    +0.292 HD
ENDBRANCH  11  18
ENDBRANCH   2   5
BRANCH   1  24
ATOM     20  C   UNL     1       0.002  -0.004   0.002  0.00  0.00    +0.088 A 
ATOM     21  C   UNL     1      -0.017   1.391   0.010  0.00  0.00    +0.033 A 
ATOM     22  C   UNL     1       1.179   2.040   0.002  0.00  0.00    +0.022 A 
ATOM     23  S   UNL     1       2.354   0.700  -0.017  0.00  0.00    -0.073 S 
ATOM     24  C   UNL     1       1.246  -0.633  -0.013  0.00  0.00    +0.087 A 
BRANCH  22  25
ATOM     25  C   UNL     1       1.439   3.495   0.007  0.00  0.00    -0.011 A 
ATOM     26  C   UNL     1       0.375   4.397   0.015  0.00  0.00    +0.009 A 
ATOM     27  C   UNL     1       0.625   5.754   0.025  0.00  0.00    +0.001 A 
ATOM     28  C   UNL     1       1.927   6.221   0.015  0.00  0.00    +0.000 A 
ATOM     29  C   UNL     1       2.987   5.331   0.001  0.00  0.00    +0.001 A 
ATOM     30  C   UNL     1       2.751   3.972  -0.003  0.00  0.00    +0.009 A 
ENDBRANCH  22  25
BRANCH  20  31
ATOM     31  C   UNL     1      -1.241  -0.780   0.009  0.00  0.00    +0.341 C 
ATOM     32  O   UNL     1      -1.199  -1.996   0.002  0.00  0.00    -0.245 OA
BRANCH  31  34
ATOM     33  C   UNL     1      -3.621  -0.979   0.030  0.00  0.00    +0.280 C 
ATOM     34  O   UNL     1      -2.431  -0.146   0.024  0.00  0.00    -0.464 OA
ENDBRANCH  31  34
ENDBRANCH  20  31
ENDBRANCH   1  24
TORSDOF 6
