REMARK  Name = ZINC40337179
REMARK  7 active torsions:
REMARK  status: ('A' for Active; 'I' for Inactive)
REMARK    1  A    between atoms: C_1  and  N_2
REMARK    2  A    between atoms: N_2  and  C_3
REMARK    3  A    between atoms: N_2  and  C_4
REMARK    4  A    between atoms: C_4  and  C_5
REMARK    5  A    between atoms: N_8  and  S_11
REMARK    6  A    between atoms: S_11  and  C_14
REMARK    7  A    between atoms: C_17  and  N_21
REMARK                            x       y       z     vdW  Elec       q    Type
REMARK                         _______ _______ _______ _____ _____    ______ ____
ROOT
ATOM      1  S   UNL     1       0.382   2.524   5.945  0.00  0.00    +0.062 S 
ATOM      2  O   UNL     1       1.453   1.872   6.614  0.00  0.00    -0.153 OA
ATOM      3  O   UNL     1       0.523   3.808   5.353  0.00  0.00    -0.153 OA
ENDROOT
BRANCH   1   4
ATOM      4  C   UNL     1      -0.938   2.647   7.106  0.00  0.00    +0.124 A 
ATOM      5  C   UNL     1      -0.770   2.172   8.394  0.00  0.00    +0.032 A 
ATOM      6  C   UNL     1      -1.802   2.267   9.306  0.00  0.00    +0.025 A 
ATOM      7  C   UNL     1      -3.011   2.840   8.929  0.00  0.00    +0.026 A 
ATOM      8  C   UNL     1      -3.177   3.316   7.635  0.00  0.00    +0.044 A 
ATOM      9  C   UNL     1      -2.138   3.223   6.728  0.00  0.00    +0.069 A 
ATOM     10 CL   UNL     1      -2.341   3.823   5.112  0.00  0.00    -0.081 Cl
BRANCH   7  11
ATOM     11  N   UNL     1      -4.056   2.936   9.850  0.00  0.00    -0.358 N 
ATOM     12  H   UNL     1      -3.939   2.603  10.754  0.00  0.00    +0.142 HD
ATOM     13  H   UNL     1      -4.900   3.336   9.586  0.00  0.00    +0.142 HD
ENDBRANCH   7  11
ENDBRANCH   1   4
BRANCH   1  17
ATOM     14  C   UNL     1       0.034   0.010   2.343  0.00  0.00    -0.025 C 
ATOM     15  C   UNL     1      -0.083   1.536   2.302  0.00  0.00    +0.019 C 
ATOM     16  C   UNL     1      -0.815   2.021   3.558  0.00  0.00    +0.109 C 
ATOM     17  N   UNL     1      -0.117   1.501   4.742  0.00  0.00    -0.177 NA
ATOM     18  C   UNL     1       0.130   0.055   4.838  0.00  0.00    +0.109 C 
ATOM     19  C   UNL     1       0.850  -0.408   3.568  0.00  0.00    +0.019 C 
BRANCH  14  20
ATOM     20  C   UNL     1       0.733  -0.481   1.073  0.00  0.00    -0.076 C 
BRANCH  20  22
ATOM     21  C   UNL     1      -0.648  -2.437   0.931  0.00  0.00    -0.097 C 
ATOM     22  N   UNL     1       0.733  -1.950   1.051  0.00  0.00    +0.376 N 
ATOM     23  C   UNL     1       1.520  -2.422  -0.095  0.00  0.00    -0.097 C 
ATOM     24  H   UNL     1       1.139  -2.299   1.906  0.00  0.00    -0.083 HD
ENDBRANCH  20  22
ENDBRANCH  14  20
ENDBRANCH   1  17
TORSDOF 5
