REMARK  Name = ZINC30879657
REMARK  10 active torsions:
REMARK  status: ('A' for Active; 'I' for Inactive)
REMARK    1  A    between atoms: C_1  and  N_2
REMARK    2  A    between atoms: N_2  and  C_3
REMARK    3  A    between atoms: N_2  and  C_10
REMARK    4  A    between atoms: C_3  and  C_4
REMARK    5  A    between atoms: C_12  and  C_22
REMARK    6  A    between atoms: C_15  and  C_20
REMARK    7  A    between atoms: C_17  and  O_19
REMARK    8  A    between atoms: C_20  and  O_21
REMARK    9  A    between atoms: C_22  and  N_23
REMARK   10  A    between atoms: C_24  and  C_26
REMARK                            x       y       z     vdW  Elec       q    Type
REMARK                         _______ _______ _______ _____ _____    ______ ____
ROOT
ATOM      1  C   UNL     1      -1.148   2.143   1.445  0.00  0.00    -0.006 C 
ATOM      2  C   UNL     1      -1.376   3.592   0.972  0.00  0.00    +0.125 C 
ATOM      3  O   UNL     1      -0.962   3.663  -0.403  0.00  0.00    -0.369 OA
ATOM      4  C   UNL     1      -1.108   2.337  -0.956  0.00  0.00    +0.171 C 
ATOM      5  C   UNL     1      -0.619   1.412   0.187  0.00  0.00    +0.134 C 
ENDROOT
BRANCH   1   7
ATOM      6  C   UNL     1      -0.165   0.808   3.210  0.00  0.00    -0.095 C 
ATOM      7  N   UNL     1      -0.148   2.105   2.521  0.00  0.00    +0.386 N 
ATOM      8  H   UNL     1      -0.411   2.881   3.254  0.00  0.00    -0.081 HD
BRANCH   7   9
ATOM      9  C   UNL     1       1.193   2.408   2.003  0.00  0.00    -0.043 C 
BRANCH   9  10
ATOM     10  C   UNL     1       2.032   3.007   3.103  0.00  0.00    -0.064 A 
ATOM     11  C   UNL     1       2.053   4.376   3.289  0.00  0.00    +0.002 A 
ATOM     12  C   UNL     1       2.818   4.925   4.301  0.00  0.00    +0.000 A 
ATOM     13  C   UNL     1       3.572   4.105   5.120  0.00  0.00    +0.000 A 
ATOM     14  C   UNL     1       3.556   2.736   4.930  0.00  0.00    +0.000 A 
ATOM     15  C   UNL     1       2.786   2.187   3.922  0.00  0.00    +0.002 A 
ENDBRANCH   9  10
ENDBRANCH   7   9
ENDBRANCH   1   7
BRANCH   5  16
ATOM     16  O   UNL     1       0.808   1.333   0.205  0.00  0.00    -0.391 OA
ATOM     17  H   UNL     1       1.342   0.841  -0.621  0.00  0.00    +0.210 HD
ENDBRANCH   5  16
BRANCH   4  18
ATOM     18  C   UNL     1      -0.228   2.170  -2.197  0.00  0.00    +0.190 C 
BRANCH  18  19
ATOM     19  O   UNL     1      -0.767   2.944  -3.271  0.00  0.00    -0.392 OA
ATOM     20  H   UNL     1      -0.267   2.949  -4.250  0.00  0.00    +0.210 HD
ENDBRANCH  18  19
ENDBRANCH   4  18
BRANCH   2  21
ATOM     21  C   UNL     1      -0.539   4.553   1.818  0.00  0.00    +0.134 C 
BRANCH  21  22
ATOM     22  N   UNL     1      -0.912   5.934   1.501  0.00  0.00    -0.309 N 
ATOM     23  C   UNL     1      -0.301   6.958   2.129  0.00  0.00    +0.244 C 
ATOM     24  O   UNL     1       0.560   6.736   2.958  0.00  0.00    -0.270 OA
ATOM     25  H   UNL     1      -1.690   6.135   0.751  0.00  0.00    +0.149 HD
BRANCH  23  26
ATOM     26  C   UNL     1      -0.677   8.351   1.809  0.00  0.00    +0.038 A 
ATOM     27  C   UNL     1      -0.045   9.414   2.458  0.00  0.00    +0.016 A 
ATOM     28  C   UNL     1      -0.400  10.711   2.157  0.00  0.00    +0.040 A 
ATOM     29  C   UNL     1      -1.382  10.963   1.211  0.00  0.00    +0.142 A 
ATOM     30  C   UNL     1      -2.013   9.911   0.563  0.00  0.00    +0.077 A 
ATOM     31  C   UNL     1      -1.661   8.608   0.853  0.00  0.00    +0.036 A 
ATOM     32 CL   UNL     1      -3.242  10.233  -0.619  0.00  0.00    -0.081 Cl
ATOM     33  F   UNL     1      -1.726  12.236   0.920  0.00  0.00    -0.204 F 
ENDBRANCH  23  26
ENDBRANCH  21  22
ENDBRANCH   2  21
TORSDOF 9
