REMARK  Name = ZINC40734877
REMARK  8 active torsions:
REMARK  status: ('A' for Active; 'I' for Inactive)
REMARK    1  A    between atoms: C_1  and  C_2
REMARK    2  A    between atoms: C_7  and  C_9
REMARK    3  A    between atoms: C_7  and  C_10
REMARK    4  A    between atoms: C_14  and  N_33
REMARK    5  A    between atoms: C_15  and  N_19
REMARK    6  A    between atoms: N_19  and  N_20
REMARK    7  A    between atoms: N_20  and  C_21
REMARK    8  A    between atoms: N_20  and  C_27
REMARK                            x       y       z     vdW  Elec       q    Type
REMARK                         _______ _______ _______ _____ _____    ______ ____
ROOT
ATOM      1  C   UNL     1      -0.971   2.982  -3.076  0.00  0.00    +0.013 C 
ATOM      2  C   UNL     1      -0.954   1.669  -2.279  0.00  0.00    -0.014 C 
ATOM      3  C   UNL     1      -2.303   0.904  -2.372  0.00  0.00    +0.030 C 
ATOM      4  C   UNL     1      -1.830  -0.506  -1.936  0.00  0.00    +0.076 C 
ATOM      5  C   UNL     1      -1.631  -0.468  -0.423  0.00  0.00    +0.029 C 
ATOM      6  C   UNL     1      -0.687   0.624   0.048  0.00  0.00    -0.033 C 
ATOM      7  C   UNL     1      -0.654   1.883  -0.797  0.00  0.00    +0.014 C 
ATOM      8  C   UNL     1       0.732   0.054   0.198  0.00  0.00    +0.011 C 
ATOM      9  C   UNL     1      -1.144   1.038   1.469  0.00  0.00    +0.011 C 
ATOM     10  N   UNL     1      -0.521  -0.688  -2.593  0.00  0.00    -0.310 N 
ATOM     11  C   UNL     1       0.047   0.643  -2.858  0.00  0.00    +0.113 C 
ATOM     12  C   UNL     1       0.071  -1.903  -2.915  0.00  0.00    +0.147 A 
ATOM     13  C   UNL     1       1.254  -1.942  -3.655  0.00  0.00    +0.105 A 
ATOM     14  C   UNL     1       1.806  -3.189  -3.951  0.00  0.00    +0.139 A 
ATOM     15  N   UNL     1       1.188  -4.286  -3.520  0.00  0.00    -0.332 N 
ATOM     16  C   UNL     1       0.072  -4.206  -2.824  0.00  0.00    +0.200 A 
ATOM     17  N   UNL     1      -0.479  -3.048  -2.518  0.00  0.00    -0.221 NA
ATOM     18  H   UNL     1       1.564  -5.157  -3.721  0.00  0.00    +0.168 HD
ENDROOT
BRANCH  13  19
ATOM     19  N   UNL     1       1.871  -0.758  -4.090  0.00  0.00    -0.353 N 
ATOM     20  H   UNL     1       1.848   0.035  -3.532  0.00  0.00    +0.143 HD
ATOM     21  H   UNL     1       2.321  -0.733  -4.949  0.00  0.00    +0.143 HD
ENDBRANCH  13  19
BRANCH  14  22
ATOM     22  N   UNL     1       2.982  -3.284  -4.686  0.00  0.00    -0.243 N 
ATOM     23  H   UNL     1       3.426  -2.480  -4.996  0.00  0.00    +0.172 HD
BRANCH  22  24
ATOM     24  N   UNL     1       3.526  -4.542  -4.977  0.00  0.00    -0.221 N 
BRANCH  24  25
ATOM     25  C   UNL     1       2.941  -5.346  -5.958  0.00  0.00    +0.053 A 
ATOM     26  C   UNL     1       2.603  -4.805  -7.191  0.00  0.00    +0.025 A 
ATOM     27  C   UNL     1       2.024  -5.603  -8.159  0.00  0.00    +0.002 A 
ATOM     28  C   UNL     1       1.782  -6.939  -7.901  0.00  0.00    +0.000 A 
ATOM     29  C   UNL     1       2.117  -7.482  -6.673  0.00  0.00    +0.002 A 
ATOM     30  C   UNL     1       2.701  -6.691  -5.704  0.00  0.00    +0.025 A 
ENDBRANCH  24  25
BRANCH  24  31
ATOM     31  C   UNL     1       4.654  -4.992  -4.286  0.00  0.00    +0.053 A 
ATOM     32  C   UNL     1       5.727  -5.534  -4.982  0.00  0.00    +0.025 A 
ATOM     33  C   UNL     1       6.840  -5.978  -4.297  0.00  0.00    +0.002 A 
ATOM     34  C   UNL     1       6.888  -5.882  -2.918  0.00  0.00    +0.000 A 
ATOM     35  C   UNL     1       5.822  -5.343  -2.221  0.00  0.00    +0.002 A 
ATOM     36  C   UNL     1       4.708  -4.892  -2.901  0.00  0.00    +0.025 A 
ENDBRANCH  24  31
ENDBRANCH  22  24
ENDBRANCH  14  22
TORSDOF 5
