REMARK  Name = ZINC13247653
REMARK  9 active torsions:
REMARK  status: ('A' for Active; 'I' for Inactive)
REMARK    1  A    between atoms: C_1  and  C_2
REMARK    2  A    between atoms: C_2  and  C_4
REMARK    3  A    between atoms: C_2  and  N_14
REMARK    4  A    between atoms: C_4  and  C_6
REMARK    5  A    between atoms: C_4  and  O_13
REMARK    6  A    between atoms: C_9  and  O_12
REMARK    7  A    between atoms: N_14  and  S_15
REMARK    8  A    between atoms: S_15  and  C_18
REMARK    9  A    between atoms: C_20  and  C_25
REMARK                            x       y       z     vdW  Elec       q    Type
REMARK                         _______ _______ _______ _____ _____    ______ ____
ROOT
ATOM      1  N   UNL     1      -1.672  -1.611  -1.477  0.00  0.00    -0.184 NA
ATOM      2  H   UNL     1      -2.311  -1.256  -2.115  0.00  0.00    +0.148 HD
ENDROOT
BRANCH   1   3
ATOM      3  S   UNL     1      -1.581  -0.971   0.048  0.00  0.00    +0.060 S 
ATOM      4  O   UNL     1      -1.624  -2.066   0.952  0.00  0.00    -0.153 OA
ATOM      5  O   UNL     1      -2.519   0.096   0.097  0.00  0.00    -0.153 OA
BRANCH   3   6
ATOM      6  C   UNL     1       0.016  -0.245   0.213  0.00  0.00    +0.124 A 
ATOM      7  C   UNL     1       0.911  -0.751   1.132  0.00  0.00    +0.045 A 
ATOM      8  C   UNL     1       2.176  -0.175   1.262  0.00  0.00    +0.065 A 
ATOM      9  C   UNL     1       2.527   0.912   0.458  0.00  0.00    +0.016 A 
ATOM     10  C   UNL     1       1.625   1.409  -0.457  0.00  0.00    +0.023 A 
ATOM     11  C   UNL     1       0.371   0.833  -0.581  0.00  0.00    +0.067 A 
ATOM     12 CL   UNL     1      -0.761   1.465  -1.736  0.00  0.00    -0.082 Cl
BRANCH   8  13
ATOM     13  C   UNL     1       3.139  -0.713   2.244  0.00  0.00    +0.387 C 
ATOM     14  O   UNL     1       2.830  -1.658   2.942  0.00  0.00    -0.241 OA
ATOM     15  O   UNL     1       4.359  -0.155   2.366  0.00  0.00    -0.241 OA
ENDBRANCH   8  13
ENDBRANCH   3   6
ENDBRANCH   1   3
BRANCH   1  17
ATOM     16  C   UNL     1      -1.523  -4.044  -1.677  0.00  0.00    +0.028 C 
ATOM     17  C   UNL     1      -0.789  -2.715  -1.862  0.00  0.00    +0.106 C 
BRANCH  17  18
ATOM     18  C   UNL     1      -0.384  -2.556  -3.329  0.00  0.00    +0.163 C 
BRANCH  18  19
ATOM     19  C   UNL     1       0.620  -3.620  -3.691  0.00  0.00    -0.017 A 
ATOM     20  C   UNL     1       0.187  -4.875  -4.078  0.00  0.00    +0.010 A 
ATOM     21  C   UNL     1       1.105  -5.850  -4.416  0.00  0.00    +0.046 A 
ATOM     22  C   UNL     1       2.463  -5.573  -4.355  0.00  0.00    +0.117 A 
ATOM     23  C   UNL     1       2.895  -4.315  -3.961  0.00  0.00    +0.046 A 
ATOM     24  C   UNL     1       1.973  -3.341  -3.630  0.00  0.00    +0.010 A 
BRANCH  22  25
ATOM     25  O   UNL     1       3.369  -6.533  -4.680  0.00  0.00    -0.507 OA
ATOM     26  H   UNL     1       3.647  -7.080  -3.933  0.00  0.00    +0.292 HD
ENDBRANCH  22  25
ENDBRANCH  18  19
BRANCH  18  27
ATOM     27  O   UNL     1      -1.540  -2.689  -4.159  0.00  0.00    -0.386 OA
ATOM     28  H   UNL     1      -1.986  -3.543  -4.077  0.00  0.00    +0.210 HD
ENDBRANCH  18  27
ENDBRANCH  17  18
ENDBRANCH   1  17
TORSDOF 8
