REMARK  Name = ZINC39656825
REMARK  7 active torsions:
REMARK  status: ('A' for Active; 'I' for Inactive)
REMARK    1  A    between atoms: C_1  and  C_2
REMARK    2  A    between atoms: C_2  and  C_4
REMARK    3  A    between atoms: C_2  and  N_11
REMARK    4  A    between atoms: C_12  and  C_14
REMARK    5  A    between atoms: C_25  and  C_27
REMARK    6  A    between atoms: C_27  and  C_28
REMARK    7  A    between atoms: C_28  and  C_29
REMARK                            x       y       z     vdW  Elec       q    Type
REMARK                         _______ _______ _______ _____ _____    ______ ____
ROOT
ATOM      1  C   UNL     1      -3.442  -1.177   1.191  0.00  0.00    +0.100 C 
ATOM      2  C   UNL     1      -3.507  -2.570   0.526  0.00  0.00    +0.121 C 
ATOM      3  N   UNL     1      -3.410  -3.528   1.653  0.00  0.00    -0.300 N 
ATOM      4  C   UNL     1      -4.224  -2.915   2.729  0.00  0.00    +0.115 C 
ATOM      5  C   UNL     1      -3.917  -1.407   2.636  0.00  0.00    -0.004 C 
ATOM      6  C   UNL     1      -5.178  -0.593   2.914  0.00  0.00    -0.010 C 
ATOM      7  C   UNL     1      -5.598  -0.792   4.373  0.00  0.00    -0.082 C 
ATOM      8  N   UNL     1      -4.509  -0.364   5.260  0.00  0.00    +0.379 N 
ATOM      9  C   UNL     1      -3.330  -1.213   5.051  0.00  0.00    -0.082 C 
ATOM     10  C   UNL     1      -2.814  -1.032   3.621  0.00  0.00    -0.010 C 
ATOM     11  C   UNL     1      -2.734  -4.693   1.690  0.00  0.00    +0.216 C 
ATOM     12  O   UNL     1      -2.752  -5.372   2.695  0.00  0.00    -0.276 OA
ATOM     13  H   UNL     1      -4.271   0.596   5.059  0.00  0.00    -0.086 HD
ATOM     14  H   UNL     1      -4.810  -0.439   6.220  0.00  0.00    -0.086 HD
ENDROOT
BRANCH   1  16
ATOM     15  N   UNL     1      -1.800   0.673   1.157  0.00  0.00    -0.308 N 
ATOM     16  C   UNL     1      -2.029  -0.655   1.181  0.00  0.00    +0.219 C 
ATOM     17  O   UNL     1      -1.096  -1.431   1.194  0.00  0.00    -0.275 OA
ATOM     18  H   UNL     1      -2.546   1.293   1.146  0.00  0.00    +0.149 HD
BRANCH  15  20
ATOM     19  C   UNL     1       0.097   1.264   2.582  0.00  0.00    +0.033 C 
ATOM     20  C   UNL     1      -0.426   1.180   1.146  0.00  0.00    +0.100 C 
BRANCH  20  21
ATOM     21  C   UNL     1      -0.401   2.551   0.521  0.00  0.00    -0.027 A 
ATOM     22  C   UNL     1      -1.406   3.458   0.804  0.00  0.00    +0.006 A 
ATOM     23  C   UNL     1      -1.383   4.715   0.231  0.00  0.00    +0.015 A 
ATOM     24  C   UNL     1      -0.355   5.067  -0.625  0.00  0.00    +0.018 A 
ATOM     25  C   UNL     1       0.650   4.160  -0.907  0.00  0.00    +0.015 A 
ATOM     26  C   UNL     1       0.629   2.904  -0.330  0.00  0.00    +0.006 A 
ATOM     27 BR   UNL     1      -0.324   6.787  -1.409  0.00  0.00    -0.050 Br
ENDBRANCH  20  21
ENDBRANCH  15  20
ENDBRANCH   1  16
BRANCH  11  28
ATOM     28  C   UNL     1      -1.956  -5.152   0.483  0.00  0.00    +0.100 C 
BRANCH  28  29
ATOM     29  C   UNL     1      -1.288  -6.494   0.788  0.00  0.00    +0.044 C 
BRANCH  29  30
ATOM     30  C   UNL     1      -0.510  -6.954  -0.418  0.00  0.00    -0.047 A 
ATOM     31  C   UNL     1      -1.124  -7.734  -1.380  0.00  0.00    +0.003 A 
ATOM     32  C   UNL     1      -0.411  -8.155  -2.487  0.00  0.00    +0.000 A 
ATOM     33  C   UNL     1       0.916  -7.795  -2.632  0.00  0.00    +0.000 A 
ATOM     34  C   UNL     1       1.530  -7.014  -1.671  0.00  0.00    +0.000 A 
ATOM     35  C   UNL     1       0.815  -6.589  -0.566  0.00  0.00    +0.003 A 
ENDBRANCH  29  30
ENDBRANCH  28  29
ENDBRANCH  11  28
TORSDOF 6
