REMARK  Name = ZINC15319241
REMARK  10 active torsions:
REMARK  status: ('A' for Active; 'I' for Inactive)
REMARK    1  A    between atoms: C_1  and  O_2
REMARK    2  A    between atoms: O_2  and  C_3
REMARK    3  A    between atoms: C_3  and  C_5
REMARK    4  A    between atoms: C_7  and  C_37
REMARK    5  A    between atoms: C_14  and  C_30
REMARK    6  A    between atoms: C_16  and  C_26
REMARK    7  A    between atoms: C_17  and  N_25
REMARK    8  A    between atoms: N_18  and  C_19
REMARK    9  A    between atoms: C_26  and  O_28
REMARK   10  A    between atoms: O_28  and  C_29
REMARK                            x       y       z     vdW  Elec       q    Type
REMARK                         _______ _______ _______ _____ _____    ______ ____
ROOT
ATOM      1  C   UNL     1       6.532   3.351  -0.172  0.00  0.00    +0.176 C 
ATOM      2  C   UNL     1       6.307   3.242  -1.683  0.00  0.00    +0.046 C 
ATOM      3  C   UNL     1       4.816   3.010  -1.936  0.00  0.00    +0.061 C 
ATOM      4  C   UNL     1       4.371   1.755  -1.224  0.00  0.00    +0.025 C 
ATOM      5  C   UNL     1       4.955   1.367  -0.071  0.00  0.00    +0.025 C 
ATOM      6  C   UNL     1       6.009   2.107   0.493  0.00  0.00    +0.176 C 
ATOM      7  O   UNL     1       6.507   1.735   1.537  0.00  0.00    -0.291 OA
ATOM      8  C   UNL     1       4.496   0.125   0.650  0.00  0.00    +0.094 C 
ATOM      9  C   UNL     1       3.705  -0.768  -0.260  0.00  0.00    +0.084 C 
ATOM     10  C   UNL     1       3.166  -0.293  -1.415  0.00  0.00    +0.103 C 
ATOM     11  N   UNL     1       3.355   1.019  -1.777  0.00  0.00    -0.261 N 
ENDROOT
BRANCH   8  12
ATOM     12  C   UNL     1       3.635   0.522   1.821  0.00  0.00    -0.035 A 
ATOM     13  C   UNL     1       2.476   1.246   1.612  0.00  0.00    +0.007 A 
ATOM     14  C   UNL     1       1.683   1.607   2.685  0.00  0.00    +0.038 A 
ATOM     15  C   UNL     1       2.056   1.252   3.971  0.00  0.00    +0.123 A 
ATOM     16  C   UNL     1       3.220   0.532   4.179  0.00  0.00    +0.038 A 
ATOM     17  C   UNL     1       4.008   0.167   3.104  0.00  0.00    +0.007 A 
ATOM     18  F   UNL     1       1.284   1.609   5.021  0.00  0.00    -0.205 F 
ENDBRANCH   8  12
BRANCH  11  19
ATOM     19  C   UNL     1       2.499   1.611  -2.713  0.00  0.00    +0.040 A 
ATOM     20  C   UNL     1       2.595   1.270  -4.056  0.00  0.00    +0.024 A 
ATOM     21  C   UNL     1       1.753   1.859  -4.979  0.00  0.00    +0.002 A 
ATOM     22  C   UNL     1       0.807   2.779  -4.564  0.00  0.00    +0.000 A 
ATOM     23  C   UNL     1       0.709   3.120  -3.228  0.00  0.00    +0.002 A 
ATOM     24  C   UNL     1       1.552   2.539  -2.301  0.00  0.00    +0.024 A 
ENDBRANCH  11  19
BRANCH   2  25
ATOM     25  C   UNL     1       6.746   4.518  -2.354  0.00  0.00    -0.043 A 
ATOM     26  C   UNL     1       5.808   5.465  -2.719  0.00  0.00    +0.004 A 
ATOM     27  C   UNL     1       6.211   6.637  -3.331  0.00  0.00    +0.000 A 
ATOM     28  C   UNL     1       7.551   6.859  -3.586  0.00  0.00    +0.000 A 
ATOM     29  C   UNL     1       8.489   5.909  -3.225  0.00  0.00    +0.000 A 
ATOM     30  C   UNL     1       8.087   4.739  -2.610  0.00  0.00    +0.004 A 
ENDBRANCH   2  25
BRANCH  10  31
ATOM     31  N   UNL     1       2.437  -1.128  -2.221  0.00  0.00    -0.346 N 
ATOM     32  H   UNL     1       2.734  -2.039  -2.370  0.00  0.00    +0.143 HD
ATOM     33  H   UNL     1       1.625  -0.807  -2.643  0.00  0.00    +0.143 HD
ENDBRANCH  10  31
BRANCH   1  34
ATOM     34  C   UNL     1       5.800   4.555   0.363  0.00  0.00    +0.318 C 
ATOM     35  O   UNL     1       5.088   5.202  -0.366  0.00  0.00    -0.250 OA
BRANCH  34  37
ATOM     36  C   UNL     1       5.205   6.078   2.097  0.00  0.00    +0.280 C 
ATOM     37  O   UNL     1       5.940   4.908   1.651  0.00  0.00    -0.467 OA
ENDBRANCH  34  37
ENDBRANCH   1  34
BRANCH   9  38
ATOM     38  C   UNL     1       3.514  -2.113   0.089  0.00  0.00    +0.339 C 
ATOM     39  O   UNL     1       2.778  -2.817  -0.580  0.00  0.00    -0.245 OA
BRANCH  38  40
ATOM     40  O   UNL     1       4.146  -2.628   1.166  0.00  0.00    -0.465 OA
ATOM     41  C   UNL     1       3.905  -4.005   1.463  0.00  0.00    +0.280 C 
ENDBRANCH  38  40
ENDBRANCH   9  38
TORSDOF 8
