REMARK  Name = ZINC08767181
REMARK  10 active torsions:
REMARK  status: ('A' for Active; 'I' for Inactive)
REMARK    1  A    between atoms: C_1  and  C_2
REMARK    2  A    between atoms: C_2  and  O_3
REMARK    3  A    between atoms: O_3  and  C_4
REMARK    4  A    between atoms: C_7  and  C_10
REMARK    5  A    between atoms: C_12  and  C_34
REMARK    6  A    between atoms: C_13  and  C_33
REMARK    7  A    between atoms: C_20  and  C_21
REMARK    8  A    between atoms: C_24  and  N_26
REMARK    9  A    between atoms: C_31  and  N_75
REMARK   10  A    between atoms: N_36  and  C_37
REMARK                            x       y       z     vdW  Elec       q    Type
REMARK                         _______ _______ _______ _____ _____    ______ ____
ROOT
ATOM      1  C   UNL     1       0.849   0.317  -1.582  0.00  0.00    +0.160 C 
ATOM      2  C   UNL     1       1.087  -0.995  -0.868  0.00  0.00    +0.063 C 
ATOM      3  C   UNL     1       2.042  -1.033   0.108  0.00  0.00    +0.051 C 
ATOM      4  N   UNL     1       2.737   0.055   0.416  0.00  0.00    -0.228 NA
ATOM      5  C   UNL     1       2.586   1.221  -0.157  0.00  0.00    +0.178 A 
ATOM      6  N   UNL     1       1.681   1.478  -1.163  0.00  0.00    -0.275 N 
ATOM      7  C   UNL     1       1.629   2.717  -1.663  0.00  0.00    +0.268 A 
ATOM      8  O   UNL     1       0.842   2.988  -2.554  0.00  0.00    -0.266 OA
ATOM      9  C   UNL     1       2.495   3.713  -1.150  0.00  0.00    +0.084 A 
ATOM     10  C   UNL     1       2.614   5.039  -1.511  0.00  0.00    +0.067 C 
ATOM     11  S   UNL     1       3.393   2.791   0.089  0.00  0.00    -0.046 S 
ATOM     12  C   UNL     1       2.308  -2.322   0.842  0.00  0.00    +0.066 C 
ENDROOT
BRANCH   1  16
ATOM     13  C   UNL     1       1.492  -0.324  -5.758  0.00  0.00    +0.121 A 
ATOM     14  C   UNL     1       0.201  -0.270  -5.254  0.00  0.00    +0.046 A 
ATOM     15  C   UNL     1      -0.005  -0.063  -3.903  0.00  0.00    +0.009 A 
ATOM     16  C   UNL     1       1.076   0.091  -3.054  0.00  0.00    -0.020 A 
ATOM     17  C   UNL     1       2.364   0.044  -3.555  0.00  0.00    +0.009 A 
ATOM     18  C   UNL     1       2.574  -0.169  -4.904  0.00  0.00    +0.046 A 
BRANCH  13  19
ATOM     19  O   UNL     1       1.696  -0.527  -7.086  0.00  0.00    -0.492 OA
BRANCH  19  21
ATOM     20  C   UNL     1       3.083  -0.807  -9.045  0.00  0.00    +0.048 C 
ATOM     21  C   UNL     1       3.053  -0.571  -7.534  0.00  0.00    +0.225 C 
ENDBRANCH  19  21
ENDBRANCH  13  19
ENDBRANCH   1  16
BRANCH  10  22
ATOM     22  C   UNL     1       1.593   5.661  -2.251  0.00  0.00    +0.131 A 
ATOM     23  C   UNL     1       1.656   6.917  -2.831  0.00  0.00    +0.051 A 
ATOM     24  C   UNL     1       0.429   7.129  -3.464  0.00  0.00    +0.066 A 
ATOM     25  C   UNL     1      -0.334   6.017  -3.247  0.00  0.00    +0.189 A 
ATOM     26  O   UNL     1       0.373   5.141  -2.517  0.00  0.00    -0.442 OA
BRANCH  25  27
ATOM     27  N   UNL     1      -1.623   5.827  -3.703  0.00  0.00    -0.305 N 
ATOM     28  C   UNL     1      -2.507   6.910  -3.249  0.00  0.00    +0.089 C 
ATOM     29  C   UNL     1      -3.904   6.705  -3.840  0.00  0.00    -0.060 C 
ATOM     30  C   UNL     1      -3.538   4.312  -3.875  0.00  0.00    -0.060 C 
ATOM     31  C   UNL     1      -2.141   4.517  -3.284  0.00  0.00    +0.089 C 
ATOM     32  C   UNL     1      -5.794   5.192  -3.907  0.00  0.00    -0.096 C 
ATOM     33  N   UNL     1      -4.423   5.394  -3.394  0.00  0.00    +0.380 N 
ATOM     34  H   UNL     1      -4.444   5.376  -2.367  0.00  0.00    -0.082 HD
ENDBRANCH  25  27
ENDBRANCH  10  22
BRANCH   2  35
ATOM     35  C   UNL     1       0.346  -2.143  -1.200  0.00  0.00    +0.248 C 
ATOM     36  O   UNL     1      -0.794  -2.273  -0.788  0.00  0.00    -0.270 OA
ATOM     37  N   UNL     1       0.896  -3.099  -1.974  0.00  0.00    -0.282 N 
ATOM     38  H   UNL     1       1.821  -3.022  -2.256  0.00  0.00    +0.155 HD
BRANCH  37  39
ATOM     39  C   UNL     1       0.133  -4.202  -2.371  0.00  0.00    +0.034 A 
ATOM     40  C   UNL     1      -0.824  -4.731  -1.514  0.00  0.00    +0.023 A 
ATOM     41  C   UNL     1      -1.579  -5.816  -1.911  0.00  0.00    +0.002 A 
ATOM     42  C   UNL     1      -1.375  -6.385  -3.155  0.00  0.00    +0.000 A 
ATOM     43  C   UNL     1      -0.420  -5.864  -4.008  0.00  0.00    +0.002 A 
ATOM     44  C   UNL     1       0.335  -4.775  -3.620  0.00  0.00    +0.023 A 
ENDBRANCH  37  39
ENDBRANCH   2  35
TORSDOF 7
