REMARK  Name = ZINC59170526
REMARK  7 active torsions:
REMARK  status: ('A' for Active; 'I' for Inactive)
REMARK    1  A    between atoms: C_1  and  O_2
REMARK    2  A    between atoms: O_2  and  C_3
REMARK    3  A    between atoms: N_11  and  C_12
REMARK    4  A    between atoms: C_15  and  S_18
REMARK    5  A    between atoms: S_18  and  N_21
REMARK    6  A    between atoms: C_22  and  C_24
REMARK    7  A    between atoms: N_26  and  C_27
REMARK                            x       y       z     vdW  Elec       q    Type
REMARK                         _______ _______ _______ _____ _____    ______ ____
ROOT
ATOM      1  C   UNL     1      -0.798  -0.632   0.025  0.00  0.00    +0.163 A 
ATOM      2  C   UNL     1      -1.693   0.139  -0.698  0.00  0.00    +0.049 A 
ATOM      3  C   UNL     1      -2.599  -0.456  -1.563  0.00  0.00    +0.004 A 
ATOM      4  C   UNL     1      -2.624  -1.824  -1.714  0.00  0.00    +0.012 A 
ATOM      5  C   UNL     1      -1.729  -2.620  -0.989  0.00  0.00    +0.022 A 
ATOM      6  C   UNL     1      -0.803  -2.016  -0.119  0.00  0.00    +0.179 A 
ATOM      7  O   UNL     1       0.074  -2.785   0.572  0.00  0.00    -0.435 OA
ATOM      8  C   UNL     1      -0.307  -4.058   0.850  0.00  0.00    +0.212 A 
ATOM      9  N   UNL     1      -0.055  -4.601   2.021  0.00  0.00    -0.325 N 
ATOM     10  C   UNL     1      -1.014  -4.813  -0.203  0.00  0.00    +0.098 A 
ATOM     11  C   UNL     1      -1.741  -4.078  -1.127  0.00  0.00    +0.030 A 
ATOM     12  H   UNL     1      -0.426  -5.469   2.243  0.00  0.00    +0.169 HD
ENDROOT
BRANCH   9  13
ATOM     13  C   UNL     1       0.731  -3.941   2.926  0.00  0.00    +0.042 A 
ATOM     14  C   UNL     1       1.918  -3.333   2.512  0.00  0.00    +0.027 A 
ATOM     15  C   UNL     1       2.705  -2.669   3.430  0.00  0.00    +0.030 A 
ATOM     16  C   UNL     1       2.322  -2.606   4.758  0.00  0.00    +0.105 A 
ATOM     17  C   UNL     1       1.147  -3.207   5.175  0.00  0.00    +0.030 A 
ATOM     18  C   UNL     1       0.347  -3.868   4.267  0.00  0.00    +0.027 A 
BRANCH  16  19
ATOM     19  S   UNL     1       3.334  -1.757   5.923  0.00  0.00    +0.056 S 
ATOM     20  O   UNL     1       3.034  -2.307   7.199  0.00  0.00    -0.153 OA
ATOM     21  O   UNL     1       4.651  -1.749   5.388  0.00  0.00    -0.153 OA
BRANCH  19  22
ATOM     22  N   UNL     1       2.828  -0.181   5.956  0.00  0.00    -0.204 NA
ATOM     23  H   UNL     1       2.913   0.340   6.770  0.00  0.00    +0.144 HD
ATOM     24  H   UNL     1       2.445   0.222   5.160  0.00  0.00    +0.144 HD
ENDBRANCH  19  22
ENDBRANCH  16  19
ENDBRANCH   9  13
BRANCH  10  25
ATOM     25  C   UNL     1      -0.961  -6.284  -0.261  0.00  0.00    +0.253 C 
ATOM     26  O   UNL     1      -1.659  -6.887  -1.053  0.00  0.00    -0.270 OA
ATOM     27  N   UNL     1      -0.139  -6.961   0.565  0.00  0.00    -0.281 N 
ATOM     28  H   UNL     1       0.378  -6.485   1.233  0.00  0.00    +0.155 HD
BRANCH  27  29
ATOM     29  C   UNL     1      -0.030  -8.352   0.457  0.00  0.00    +0.034 A 
ATOM     30  C   UNL     1      -1.142  -9.113   0.120  0.00  0.00    +0.025 A 
ATOM     31  C   UNL     1      -1.032 -10.485   0.015  0.00  0.00    +0.022 A 
ATOM     32  C   UNL     1       0.186 -11.102   0.243  0.00  0.00    +0.041 A 
ATOM     33  C   UNL     1       1.295 -10.347   0.579  0.00  0.00    +0.022 A 
ATOM     34  C   UNL     1       1.192  -8.973   0.681  0.00  0.00    +0.025 A 
ATOM     35 CL   UNL     1       0.321 -12.828   0.110  0.00  0.00    -0.084 Cl
ENDBRANCH  27  29
ENDBRANCH  10  25
BRANCH   1  37
ATOM     36  C   UNL     1       0.033   1.387   0.967  0.00  0.00    +0.277 C 
ATOM     37  O   UNL     1       0.086  -0.038   0.870  0.00  0.00    -0.491 OA
ENDBRANCH   1  37
TORSDOF 6
