REMARK  Name = ZINC63333515
REMARK  9 active torsions:
REMARK  status: ('A' for Active; 'I' for Inactive)
REMARK    1  A    between atoms: C_1  and  C_2
REMARK    2  A    between atoms: C_2  and  C_3
REMARK    3  A    between atoms: C_2  and  C_4
REMARK    4  A    between atoms: C_2  and  N_5
REMARK    5  A    between atoms: C_6  and  C_8
REMARK    6  A    between atoms: C_8  and  N_9
REMARK    7  A    between atoms: N_12  and  C_13
REMARK    8  A    between atoms: N_16  and  C_19
REMARK    9  A    between atoms: C_19  and  C_20
REMARK                            x       y       z     vdW  Elec       q    Type
REMARK                         _______ _______ _______ _____ _____    ______ ____
ROOT
ATOM      1  N   UNL     1       3.834  -0.526  -2.955  0.00  0.00    -0.291 N 
ATOM      2  C   UNL     1       4.717  -0.788  -3.938  0.00  0.00    +0.300 C 
ATOM      3  O   UNL     1       4.405  -1.520  -4.858  0.00  0.00    -0.253 OA
ATOM      4  N   UNL     1       5.947  -0.238  -3.903  0.00  0.00    -0.297 N 
ATOM      5  H   UNL     1       4.083   0.057  -2.221  0.00  0.00    +0.151 HD
ATOM      6  H   UNL     1       6.197   0.346  -3.170  0.00  0.00    +0.151 HD
ENDROOT
BRANCH   4   7
ATOM      7  C   UNL     1       6.907  -0.522  -4.973  0.00  0.00    +0.071 C 
ATOM      8  C   UNL     1       7.651  -1.823  -4.661  0.00  0.00    +0.004 C 
ATOM      9  C   UNL     1       8.707  -2.073  -5.740  0.00  0.00    -0.077 C 
ATOM     10  N   UNL     1       9.660  -0.956  -5.764  0.00  0.00    +0.380 N 
ATOM     11  C   UNL     1       8.966   0.283  -6.133  0.00  0.00    -0.077 C 
ATOM     12  C   UNL     1       7.920   0.623  -5.069  0.00  0.00    +0.004 C 
ATOM     13  H   UNL     1      10.074  -0.850  -4.850  0.00  0.00    -0.082 HD
BRANCH  10  14
ATOM     14  C   UNL     1      10.715  -1.236  -6.747  0.00  0.00    -0.075 C 
BRANCH  14  15
ATOM     15  C   UNL     1      11.544  -2.434  -6.279  0.00  0.00    -0.028 C 
ATOM     16  C   UNL     1      12.327  -2.067  -5.001  0.00  0.00    +0.002 C 
ATOM     17  C   UNL     1      13.684  -2.796  -5.164  0.00  0.00    +0.000 C 
ATOM     18  C   UNL     1      13.973  -2.644  -6.678  0.00  0.00    +0.000 C 
ATOM     19  C   UNL     1      12.591  -2.800  -7.345  0.00  0.00    +0.002 C 
ENDBRANCH  14  15
ENDBRANCH  10  14
ENDBRANCH   4   7
BRANCH   1  20
ATOM     20  C   UNL     1       2.497  -1.124  -2.993  0.00  0.00    +0.201 C 
BRANCH  20  22
ATOM     21  N   UNL     1       0.446  -1.104  -1.610  0.00  0.00    -0.309 N 
ATOM     22  C   UNL     1       1.712  -0.676  -1.787  0.00  0.00    +0.231 C 
ATOM     23  O   UNL     1       2.219   0.069  -0.976  0.00  0.00    -0.274 OA
ATOM     24  H   UNL     1       0.040  -1.700  -2.259  0.00  0.00    +0.149 HD
BRANCH  21  26
ATOM     25  C   UNL     1      -0.440   0.856  -0.447  0.00  0.00    +0.031 C 
ATOM     26  C   UNL     1      -0.317  -0.669  -0.438  0.00  0.00    +0.026 C 
ATOM     27  C   UNL     1       0.405  -1.115   0.835  0.00  0.00    +0.031 C 
ATOM     28  C   UNL     1      -1.713  -1.293  -0.478  0.00  0.00    +0.031 C 
ENDBRANCH  21  26
ENDBRANCH  20  22
ENDBRANCH   1  20
TORSDOF 6
