REMARK  Name = ZINC44098268
REMARK  3 active torsions:
REMARK  status: ('A' for Active; 'I' for Inactive)
REMARK    1  A    between atoms: C_3  and  N_6
REMARK    2  A    between atoms: C_18  and  C_21
REMARK    3  A    between atoms: C_23  and  C_26
REMARK                            x       y       z     vdW  Elec       q    Type
REMARK                         _______ _______ _______ _____ _____    ______ ____
ROOT
ATOM      1  N   UNL     1       3.668   1.779  -0.054  0.00  0.00    -0.264 N 
ATOM      2  C   UNL     1       4.696   0.908  -0.039  0.00  0.00    +0.307 C 
ATOM      3  O   UNL     1       4.482  -0.283   0.076  0.00  0.00    -0.252 OA
ATOM      4  N   UNL     1       5.962   1.358  -0.151  0.00  0.00    -0.282 N 
ATOM      5  C   UNL     1       6.245   2.800  -0.163  0.00  0.00    +0.128 C 
ATOM      6  C   UNL     1       7.258   3.109   0.947  0.00  0.00    +0.125 C 
ATOM      7  N   UNL     1       8.380   2.166   0.835  0.00  0.00    -0.314 N 
ATOM      8  C   UNL     1       8.097   0.724   0.847  0.00  0.00    +0.125 C 
ATOM      9  C   UNL     1       7.084   0.415  -0.257  0.00  0.00    +0.128 C 
ATOM     10  C   UNL     1       9.683   2.630   0.720  0.00  0.00    +0.099 A 
ATOM     11  C   UNL     1       9.942   3.993   0.841  0.00  0.00    +0.042 A 
ATOM     12  C   UNL     1      11.240   4.445   0.725  0.00  0.00    +0.016 A 
ATOM     13  C   UNL     1      12.254   3.508   0.489  0.00  0.00    +0.038 A 
ATOM     14  C   UNL     1      11.918   2.162   0.380  0.00  0.00    +0.095 A 
ATOM     15  N   UNL     1      10.666   1.768   0.501  0.00  0.00    -0.349 N 
ATOM     16  H   UNL     1       3.841   2.733  -0.072  0.00  0.00    +0.157 HD
ATOM     17  H   UNL     1      10.458   0.824   0.425  0.00  0.00    +0.167 HD
ENDROOT
BRANCH   1  20
ATOM     18  C   UNL     1      -0.011   1.322  -0.045  0.00  0.00    +0.009 A 
ATOM     19  C   UNL     1       1.187   2.013  -0.058  0.00  0.00    +0.031 A 
ATOM     20  C   UNL     1       2.352   1.307  -0.045  0.00  0.00    +0.073 A 
ATOM     21  S   UNL     1       1.762  -0.378  -0.015  0.00  0.00    -0.082 S 
ATOM     22  C   UNL     1       0.010  -0.032  -0.021  0.00  0.00    +0.047 A 
ENDBRANCH   1  20
BRANCH  13  23
ATOM     23  C   UNL     1      13.665   3.944   0.356  0.00  0.00    +0.204 A 
ATOM     24  N   UNL     1      14.717   3.139   0.124  0.00  0.00    -0.184 NA
ATOM     25  C   UNL     1      15.812   3.841   0.064  0.00  0.00    +0.332 A 
ATOM     26  O   UNL     1      15.501   5.130   0.255  0.00  0.00    -0.328 OA
ATOM     27  N   UNL     1      14.095   5.180   0.440  0.00  0.00    -0.056 NA
BRANCH  25  28
ATOM     28  C   UNL     1      17.195   3.296  -0.181  0.00  0.00    +0.472 C 
ATOM     29  F   UNL     1      17.454   3.279  -1.555  0.00  0.00    -0.162 F 
ATOM     30  F   UNL     1      18.137   4.108   0.461  0.00  0.00    -0.162 F 
ATOM     31  F   UNL     1      17.280   1.994   0.326  0.00  0.00    -0.162 F 
ENDBRANCH  25  28
ENDBRANCH  13  23
TORSDOF 3
