REMARK  Name = ZINC42911154
REMARK  8 active torsions:
REMARK  status: ('A' for Active; 'I' for Inactive)
REMARK    1  A    between atoms: C_1  and  C_2
REMARK    2  A    between atoms: C_2  and  C_26
REMARK    3  A    between atoms: C_4  and  N_10
REMARK    4  A    between atoms: C_6  and  C_8
REMARK    5  A    between atoms: C_6  and  C_9
REMARK    6  A    between atoms: N_16  and  C_19
REMARK    7  A    between atoms: C_19  and  C_20
REMARK    8  A    between atoms: N_22  and  C_23
REMARK                            x       y       z     vdW  Elec       q    Type
REMARK                         _______ _______ _______ _____ _____    ______ ____
ROOT
ATOM      1  N   UNL     1       2.615  -0.819  -2.626  0.00  0.00    -0.296 N 
ATOM      2  C   UNL     1       3.770  -0.334  -3.123  0.00  0.00    +0.302 C 
ATOM      3  O   UNL     1       4.329   0.594  -2.571  0.00  0.00    -0.253 OA
ATOM      4  N   UNL     1       4.307  -0.878  -4.234  0.00  0.00    -0.283 N 
ATOM      5  C   UNL     1       5.622  -0.443  -4.728  0.00  0.00    +0.124 C 
ATOM      6  C   UNL     1       6.493  -1.684  -4.952  0.00  0.00    +0.104 C 
ATOM      7  N   UNL     1       5.782  -2.626  -5.826  0.00  0.00    -0.291 NA
ATOM      8  C   UNL     1       4.543  -3.105  -5.197  0.00  0.00    +0.104 C 
ATOM      9  C   UNL     1       3.595  -1.927  -4.980  0.00  0.00    +0.124 C 
ATOM     10  H   UNL     1       2.132  -1.509  -3.107  0.00  0.00    +0.151 HD
ENDROOT
BRANCH   1  14
ATOM     11  C   UNL     1      -0.016   1.526   0.015  0.00  0.00    -0.010 C 
ATOM     12  C   UNL     1       0.004  -0.006   0.004  0.00  0.00    -0.072 C 
ATOM     13  C   UNL     1       0.574  -0.505  -1.319  0.00  0.00    +0.009 C 
ATOM     14  C   UNL     1       2.089  -0.302  -1.356  0.00  0.00    +0.072 C 
ATOM     15  C   UNL     1       2.704  -1.089  -0.199  0.00  0.00    +0.009 C 
ATOM     16  C   UNL     1       2.149  -0.595   1.133  0.00  0.00    -0.072 C 
ATOM     17  N   UNL     1       0.699  -0.533   1.165  0.00  0.00    +0.386 N 
ATOM     18  C   UNL     1       2.772   0.761   1.483  0.00  0.00    -0.010 C 
ATOM     19  C   UNL     1       2.602  -1.595   2.222  0.00  0.00    -0.010 C 
ATOM     20  C   UNL     1      -1.466  -0.479   0.081  0.00  0.00    -0.010 C 
ATOM     21  H   UNL     1       0.419   0.017   1.984  0.00  0.00    -0.084 HD
ATOM     22  H   UNL     1       0.342  -1.476   1.351  0.00  0.00    -0.084 HD
ENDBRANCH   1  14
BRANCH   7  23
ATOM     23  C   UNL     1       6.649  -3.750  -6.204  0.00  0.00    +0.180 C 
BRANCH  23  24
ATOM     24  C   UNL     1       5.979  -4.560  -7.284  0.00  0.00    +0.227 C 
ATOM     25  O   UNL     1       4.887  -4.232  -7.699  0.00  0.00    -0.274 OA
ATOM     26  N   UNL     1       6.594  -5.647  -7.791  0.00  0.00    -0.311 N 
ATOM     27  H   UNL     1       7.467  -5.909  -7.459  0.00  0.00    +0.149 HD
BRANCH  26  28
ATOM     28  C   UNL     1       5.943  -6.434  -8.841  0.00  0.00    +0.073 C 
ATOM     29  C   UNL     1       5.991  -7.958  -8.714  0.00  0.00    +0.024 C 
ATOM     30  C   UNL     1       6.842  -7.251  -9.771  0.00  0.00    +0.024 C 
ENDBRANCH  26  28
ENDBRANCH  23  24
ENDBRANCH   7  23
TORSDOF 4
