REMARK  Name = ZINC45047341
REMARK  7 active torsions:
REMARK  status: ('A' for Active; 'I' for Inactive)
REMARK    1  A    between atoms: C_1  and  C_2
REMARK    2  A    between atoms: C_2  and  N_8
REMARK    3  A    between atoms: N_8  and  S_9
REMARK    4  A    between atoms: S_9  and  C_12
REMARK    5  A    between atoms: C_15  and  C_17
REMARK    6  A    between atoms: C_17  and  C_18
REMARK    7  A    between atoms: C_18  and  N_19
REMARK                            x       y       z     vdW  Elec       q    Type
REMARK                         _______ _______ _______ _____ _____    ______ ____
ROOT
ATOM      1  S   UNL     1      -0.059   0.021  -2.702  0.00  0.00    +0.065 S 
ATOM      2  O   UNL     1       0.578  -0.661  -3.774  0.00  0.00    -0.153 OA
ATOM      3  O   UNL     1      -1.461  -0.049  -2.480  0.00  0.00    -0.153 OA
ENDROOT
BRANCH   1   4
ATOM      4  C   UNL     1       0.337   1.728  -2.885  0.00  0.00    +0.143 A 
ATOM      5  C   UNL     1       1.463   2.295  -3.383  0.00  0.00    +0.036 A 
ATOM      6  C   UNL     1       1.555   3.673  -3.432  0.00  0.00    +0.013 A 
ATOM      7  C   UNL     1       0.517   4.418  -2.980  0.00  0.00    -0.010 A 
ATOM      8  S   UNL     1      -0.644   3.161  -2.470  0.00  0.00    -0.074 S 
BRANCH   7   9
ATOM      9  C   UNL     1       0.376   5.917  -2.927  0.00  0.00    +0.023 C 
BRANCH   9  10
ATOM     10  C   UNL     1      -0.252   6.417  -4.229  0.00  0.00    -0.081 C 
BRANCH  10  11
ATOM     11  N   UNL     1      -0.389   7.878  -4.178  0.00  0.00    +0.378 N 
ATOM     12  H   UNL     1      -0.979   8.134  -3.400  0.00  0.00    -0.090 HD
ATOM     13  H   UNL     1       0.522   8.298  -4.061  0.00  0.00    -0.090 HD
ATOM     14  H   UNL     1      -0.802   8.208  -5.037  0.00  0.00    -0.090 HD
ENDBRANCH  10  11
ENDBRANCH   9  10
ENDBRANCH   7   9
ENDBRANCH   1   4
BRANCH   1  15
ATOM     15  N   UNL     1       0.667  -0.503  -1.309  0.00  0.00    -0.184 NA
ATOM     16  H   UNL     1       1.396  -1.143  -1.353  0.00  0.00    +0.149 HD
BRANCH  15  18
ATOM     17  C   UNL     1       0.180   1.528  -0.037  0.00  0.00    +0.029 C 
ATOM     18  C   UNL     1       0.211  -0.002  -0.011  0.00  0.00    +0.037 C 
ATOM     19  C   UNL     1      -1.194  -0.535   0.276  0.00  0.00    +0.023 C 
ATOM     20  C   UNL     1      -1.164  -2.065   0.302  0.00  0.00    +0.002 C 
ATOM     21  C   UNL     1      -0.205  -2.537   1.398  0.00  0.00    +0.000 C 
ATOM     22  C   UNL     1       1.200  -2.003   1.111  0.00  0.00    +0.002 C 
ATOM     23  C   UNL     1       1.169  -0.474   1.084  0.00  0.00    +0.023 C 
ENDBRANCH  15  18
ENDBRANCH   1  15
TORSDOF 6
