REMARK  Name = ZINC42488575
REMARK  6 active torsions:
REMARK  status: ('A' for Active; 'I' for Inactive)
REMARK    1  A    between atoms: C_1  and  N_2
REMARK    2  A    between atoms: C_4  and  C_7
REMARK    3  A    between atoms: C_7  and  N_8
REMARK    4  A    between atoms: N_8  and  C_9
REMARK    5  A    between atoms: N_8  and  C_10
REMARK    6  A    between atoms: C_15  and  N_16
REMARK                            x       y       z     vdW  Elec       q    Type
REMARK                         _______ _______ _______ _____ _____    ______ ____
ROOT
ATOM      1  C   UNL     1       2.078  -3.137  -2.988  0.00  0.00    +0.087 A 
ATOM      2  C   UNL     1       2.828  -1.956  -3.024  0.00  0.00    +0.127 A 
ATOM      3  N   UNL     1       3.275  -1.786  -4.243  0.00  0.00    -0.304 N 
ATOM      4  H   UNL     1       3.011  -2.982  -5.976  0.00  0.00    +0.188 HD
ATOM      5  N   UNL     1       2.828  -2.853  -5.033  0.00  0.00    -0.286 N 
ATOM      6  C   UNL     1       2.094  -3.680  -4.239  0.00  0.00    +0.131 A 
ATOM      7  H   UNL     1       3.824  -1.047  -4.548  0.00  0.00    +0.186 HD
ENDROOT
BRANCH   6   8
ATOM      8  N   UNL     1       1.470  -4.866  -4.634  0.00  0.00    -0.342 N 
ATOM      9  H   UNL     1       0.965  -5.387  -3.990  0.00  0.00    +0.144 HD
ATOM     10  H   UNL     1       1.542  -5.169  -5.553  0.00  0.00    +0.144 HD
ENDBRANCH   6   8
BRANCH   1  11
ATOM     11  N   UNL     1       1.424  -3.675  -1.855  0.00  0.00    -0.325 N 
ATOM     12  C   UNL     1       2.132  -4.609  -0.976  0.00  0.00    +0.129 C 
BRANCH  11  13
ATOM     13  C   UNL     1       0.039  -3.298  -1.561  0.00  0.00    +0.143 C 
BRANCH  13  17
ATOM     14  C   UNL     1      -0.018   1.461   0.010  0.00  0.00    +0.172 C 
ATOM     15  N   UNL     1       0.002  -0.004   0.002  0.00  0.00    -0.274 N 
ATOM     16  C   UNL     1       0.008  -0.792  -1.094  0.00  0.00    +0.113 A 
ATOM     17  C   UNL     1       0.027  -2.079  -0.676  0.00  0.00    +0.007 A 
ATOM     18  C   UNL     1       0.034  -2.078   0.723  0.00  0.00    +0.139 A 
ATOM     19  N   UNL     1       0.025  -0.834   1.130  0.00  0.00    -0.180 NA
ENDBRANCH  13  17
ENDBRANCH  11  13
ENDBRANCH   1  11
TORSDOF 4
