REMARK  Name = ZINC41652978
REMARK  9 active torsions:
REMARK  status: ('A' for Active; 'I' for Inactive)
REMARK    1  A    between atoms: C_1  and  C_2
REMARK    2  A    between atoms: N_7  and  C_9
REMARK    3  A    between atoms: C_9  and  C_11
REMARK    4  A    between atoms: C_9  and  C_12
REMARK    5  A    between atoms: C_12  and  N_13
REMARK    6  A    between atoms: C_14  and  C_16
REMARK    7  A    between atoms: N_18  and  C_19
REMARK    8  A    between atoms: C_24  and  C_25
REMARK    9  A    between atoms: C_25  and  C_26
REMARK                            x       y       z     vdW  Elec       q    Type
REMARK                         _______ _______ _______ _____ _____    ______ ____
ROOT
ATOM      1  C   UNL     1       4.318   1.532   1.879  0.00  0.00    +0.303 C 
ATOM      2  O   UNL     1       3.316   2.196   2.051  0.00  0.00    -0.265 OA
ATOM      3  N   UNL     1       5.498   2.140   1.651  0.00  0.00    -0.277 N 
ATOM      4  H   UNL     1       6.312   1.615   1.598  0.00  0.00    +0.155 HD
ENDROOT
BRANCH   3   5
ATOM      5  C   UNL     1       5.550   3.527   1.490  0.00  0.00    +0.037 A 
ATOM      6  C   UNL     1       4.427   4.220   1.054  0.00  0.00    +0.023 A 
ATOM      7  C   UNL     1       4.482   5.590   0.896  0.00  0.00    +0.002 A 
ATOM      8  C   UNL     1       5.653   6.274   1.170  0.00  0.00    +0.000 A 
ATOM      9  C   UNL     1       6.772   5.587   1.603  0.00  0.00    +0.006 A 
ATOM     10  C   UNL     1       6.723   4.217   1.769  0.00  0.00    -0.017 A 
BRANCH  10  11
ATOM     11  C   UNL     1       7.941   3.471   2.248  0.00  0.00    +0.132 C 
BRANCH  11  12
ATOM     12  C   UNL     1       8.706   2.943   1.061  0.00  0.00    +0.215 C 
ATOM     13  O   UNL     1       8.301   3.153  -0.063  0.00  0.00    -0.276 OA
ATOM     14  N   UNL     1       9.839   2.239   1.248  0.00  0.00    -0.329 N 
ATOM     15  H   UNL     1      10.163   2.071   2.147  0.00  0.00    +0.145 HD
ATOM     16  H   UNL     1      10.331   1.899   0.484  0.00  0.00    +0.145 HD
ENDBRANCH  11  12
ENDBRANCH  10  11
ENDBRANCH   3   5
BRANCH   1  18
ATOM     17  N   UNL     1       3.061  -0.568   2.150  0.00  0.00    -0.309 N 
ATOM     18  C   UNL     1       4.241   0.041   1.921  0.00  0.00    +0.299 C 
ATOM     19  O   UNL     1       5.243  -0.623   1.750  0.00  0.00    -0.265 OA
ATOM     20  H   UNL     1       2.260  -0.037   2.287  0.00  0.00    +0.149 HD
BRANCH  17  21
ATOM     21  C   UNL     1       2.986  -2.030   2.191  0.00  0.00    +0.089 C 
BRANCH  21  22
ATOM     22  C   UNL     1       1.526  -2.462   2.339  0.00  0.00    -0.054 C 
ATOM     23  C   UNL     1       1.445  -3.990   2.359  0.00  0.00    -0.012 C 
BRANCH  22  29
ATOM     24  C   UNL     1      -2.955  -2.157   0.391  0.00  0.00    +0.005 C 
ATOM     25  C   UNL     1      -1.492  -1.739   0.228  0.00  0.00    -0.031 C 
ATOM     26  C   UNL     1      -0.961  -2.248  -1.115  0.00  0.00    -0.001 C 
ATOM     27  C   UNL     1       0.524  -1.892  -1.233  0.00  0.00    -0.018 C 
ATOM     28  C   UNL     1       1.282  -2.490  -0.045  0.00  0.00    -0.078 C 
ATOM     29  N   UNL     1       0.745  -1.945   1.207  0.00  0.00    +0.383 N 
ATOM     30  C   UNL     1      -0.660  -2.342   1.362  0.00  0.00    -0.075 C 
ATOM     31  H   UNL     1       0.808  -0.939   1.189  0.00  0.00    -0.081 HD
ENDBRANCH  22  29
ENDBRANCH  21  22
ENDBRANCH  17  21
ENDBRANCH   1  18
TORSDOF 7
