REMARK  Name = ZINC33631276
REMARK  7 active torsions:
REMARK  status: ('A' for Active; 'I' for Inactive)
REMARK    1  A    between atoms: C_1  and  O_2
REMARK    2  A    between atoms: O_2  and  C_3
REMARK    3  A    between atoms: C_6  and  C_10
REMARK    4  A    between atoms: C_8  and  O_9
REMARK    5  A    between atoms: N_11  and  N_12
REMARK    6  A    between atoms: C_13  and  C_15
REMARK    7  A    between atoms: C_17  and  N_23
REMARK                            x       y       z     vdW  Elec       q    Type
REMARK                         _______ _______ _______ _____ _____    ______ ____
ROOT
ATOM      1  N   UNL     1       1.143   1.901   0.001  0.00  0.00    -0.202 N 
ATOM      2  C   UNL     1      -0.014   1.212   0.009  0.00  0.00    +0.283 C 
ATOM      3  O   UNL     1       0.002  -0.004   0.002  0.00  0.00    -0.267 OA
ATOM      4  H   UNL     1       1.129   3.001   0.007  0.00  0.00    +0.178 HD
ENDROOT
BRANCH   2   5
ATOM      5  C   UNL     1      -1.306   1.934   0.019  0.00  0.00    +0.149 A 
ATOM      6  C   UNL     1      -2.498   1.215   0.015  0.00  0.00    +0.094 A 
ATOM      7  C   UNL     1      -3.707   1.911   0.029  0.00  0.00    +0.067 A 
ATOM      8  C   UNL     1      -3.668   3.305   0.036  0.00  0.00    +0.100 A 
ATOM      9  C   UNL     1      -2.441   3.948   0.035  0.00  0.00    +0.150 A 
ATOM     10  N   UNL     1      -1.317   3.263   0.026  0.00  0.00    -0.228 NA
ATOM     11 CL   UNL     1      -2.386   5.683   0.044  0.00  0.00    -0.060 Cl
ATOM     12 CL   UNL     1      -5.141   4.223   0.047  0.00  0.00    -0.078 Cl
ATOM     13 CL   UNL     1      -2.481  -0.521  -0.002  0.00  0.00    -0.079 Cl
BRANCH   7  14
ATOM     14  N   UNL     1      -4.923   1.231   0.030  0.00  0.00    -0.356 N 
ATOM     15  H   UNL     1      -5.868   1.793   0.042  0.00  0.00    +0.142 HD
ATOM     16  H   UNL     1      -4.938   0.131   0.020  0.00  0.00    +0.142 HD
ENDBRANCH   7  14
ENDBRANCH   2   5
BRANCH   1  18
ATOM     17  C   UNL     1       3.482   1.882  -0.021  0.00  0.00    +0.138 C 
ATOM     18  N   UNL     1       2.366   1.217  -0.014  0.00  0.00    -0.187 NA
BRANCH  17  22
ATOM     19  C   UNL     1       7.186  -0.197  -0.068  0.00  0.00    +0.161 A 
ATOM     20  C   UNL     1       5.993  -0.906  -0.061  0.00  0.00    +0.050 A 
ATOM     21  C   UNL     1       4.789  -0.235  -0.039  0.00  0.00    +0.013 A 
ATOM     22  C   UNL     1       4.768   1.162  -0.037  0.00  0.00    -0.002 A 
ATOM     23  C   UNL     1       5.969   1.875  -0.045  0.00  0.00    +0.058 A 
ATOM     24  C   UNL     1       7.173   1.196  -0.060  0.00  0.00    +0.159 A 
BRANCH  19  26
ATOM     25  C   UNL     1       8.311  -2.292  -0.091  0.00  0.00    +0.277 C 
ATOM     26  O   UNL     1       8.371  -0.864  -0.083  0.00  0.00    -0.491 OA
ENDBRANCH  19  26
BRANCH  24  27
ATOM     27  O   UNL     1       8.344   1.887  -0.068  0.00  0.00    -0.503 OA
ATOM     28  H   UNL     1       8.334   2.987  -0.061  0.00  0.00    +0.292 HD
ENDBRANCH  24  27
ENDBRANCH  17  22
ENDBRANCH   1  18
TORSDOF 6
