REMARK  Name = ZINC12324441
REMARK  4 active torsions:
REMARK  status: ('A' for Active; 'I' for Inactive)
REMARK    1  A    between atoms: C_1  and  C_2
REMARK    2  A    between atoms: C_2  and  N_3
REMARK    3  A    between atoms: C_5  and  C_18
REMARK    4  A    between atoms: C_6  and  C_11
REMARK                            x       y       z     vdW  Elec       q    Type
REMARK                         _______ _______ _______ _____ _____    ______ ____
ROOT
ATOM      1  N   UNL     1       0.688  -0.476  -1.203  0.00  0.00    -0.262 N 
ATOM      2  C   UNL     1      -0.065  -0.694  -2.345  0.00  0.00    +0.087 C 
ATOM      3  C   UNL     1       0.504  -1.125  -3.475  0.00  0.00    +0.017 C 
ATOM      4  C   UNL     1       1.999  -1.368  -3.468  0.00  0.00    +0.138 C 
ATOM      5  N   UNL     1       2.716  -1.109  -2.208  0.00  0.00    -0.288 N 
ATOM      6  C   UNL     1       2.012  -0.671  -1.146  0.00  0.00    +0.307 C 
ATOM      7  O   UNL     1       2.596  -0.450  -0.102  0.00  0.00    -0.252 OA
ATOM      8  H   UNL     1       3.674  -1.248  -2.146  0.00  0.00    +0.151 HD
ENDROOT
BRANCH   3   9
ATOM      9  C   UNL     1      -0.299  -1.358  -4.692  0.00  0.00    +0.080 A 
ATOM     10  C   UNL     1      -1.648  -1.129  -4.685  0.00  0.00    +0.076 A 
ATOM     11  S   UNL     1      -2.070  -1.565  -6.367  0.00  0.00    -0.060 S 
ATOM     12  C   UNL     1      -0.423  -2.004  -6.907  0.00  0.00    +0.156 A 
ATOM     13  N   UNL     1       0.282  -1.787  -5.811  0.00  0.00    -0.225 NA
ATOM     14  N   UNL     1       0.002  -2.449  -8.148  0.00  0.00    -0.338 N 
ATOM     15  H   UNL     1      -0.638  -2.558  -8.869  0.00  0.00    +0.144 HD
ATOM     16  H   UNL     1       0.939  -2.651  -8.296  0.00  0.00    +0.144 HD
ENDBRANCH   3   9
BRANCH   4  17
ATOM     17  C   UNL     1       2.237  -2.807  -3.848  0.00  0.00    -0.023 A 
ATOM     18  C   UNL     1       2.079  -3.806  -2.906  0.00  0.00    +0.007 A 
ATOM     19  C   UNL     1       2.297  -5.125  -3.254  0.00  0.00    +0.020 A 
ATOM     20  C   UNL     1       2.673  -5.447  -4.546  0.00  0.00    +0.041 A 
ATOM     21  C   UNL     1       2.830  -4.446  -5.489  0.00  0.00    +0.020 A 
ATOM     22  C   UNL     1       2.607  -3.127  -5.141  0.00  0.00    +0.007 A 
ATOM     23 CL   UNL     1       2.947  -7.104  -4.984  0.00  0.00    -0.084 Cl
ENDBRANCH   4  17
BRANCH   1  25
ATOM     24  C   UNL     1      -0.019   1.526   0.010  0.00  0.00    +0.025 C 
ATOM     25  C   UNL     1       0.002  -0.004   0.002  0.00  0.00    +0.111 C 
ENDBRANCH   1  25
TORSDOF 3
