REMARK  Name = ZINC42895946
REMARK  12 active torsions:
REMARK  status: ('A' for Active; 'I' for Inactive)
REMARK    1  A    between atoms: C_1  and  C_2
REMARK    2  A    between atoms: C_2  and  C_30
REMARK    3  A    between atoms: C_4  and  N_10
REMARK    4  A    between atoms: C_6  and  C_8
REMARK    5  A    between atoms: C_6  and  C_9
REMARK    6  A    between atoms: N_13  and  C_14
REMARK    7  A    between atoms: C_14  and  C_16
REMARK    8  A    between atoms: C_14  and  C_18
REMARK    9  A    between atoms: C_16  and  O_17
REMARK   10  A    between atoms: C_18  and  C_20
REMARK   11  A    between atoms: C_18  and  O_29
REMARK   12  A    between atoms: C_23  and  N_26
REMARK                            x       y       z     vdW  Elec       q    Type
REMARK                         _______ _______ _______ _____ _____    ______ ____
ROOT
ATOM      1  N   UNK A   0       2.638  -0.451  -2.539  0.00  0.00    -0.297 N 
ATOM      2  C   UNK A   0       3.806  -0.074  -3.097  0.00  0.00    +0.300 C 
ATOM      3  O   UNK A   0       4.474   0.800  -2.579  0.00  0.00    -0.253 OA
ATOM      4  N   UNK A   1       4.234  -0.667  -4.229  0.00  0.00    -0.292 N 
ATOM      5  H   UNK A   0       2.106  -1.148  -2.952  0.00  0.00    +0.151 HD
ATOM      6  H   UNK A   1       3.701  -1.365  -4.643  0.00  0.00    +0.151 HD
ENDROOT
BRANCH   1  10
ATOM      7  C   UNK A   0       0.206   2.245  -0.046  0.00  0.00    -0.010 C 
ATOM      8  C   UNK A   0       0.141   0.719   0.068  0.00  0.00    -0.072 C 
ATOM      9  C   UNK A   0       0.650   0.083  -1.222  0.00  0.00    +0.009 C 
ATOM     10  C   UNK A   0       2.173   0.195  -1.305  0.00  0.00    +0.072 C 
ATOM     11  C   UNK A   0       2.770  -0.530  -0.100  0.00  0.00    +0.009 C 
ATOM     12  C   UNK A   0       2.277   0.100   1.198  0.00  0.00    -0.072 C 
ATOM     13  N   UNK A   0       0.833   0.247   1.254  0.00  0.00    +0.386 N 
ATOM     14  C   UNK A   0       2.983   1.441   1.424  0.00  0.00    -0.010 C 
ATOM     15  C   UNK A   0       2.699  -0.835   2.355  0.00  0.00    -0.010 C 
ATOM     16  C   UNK A   0      -1.351   0.339   0.211  0.00  0.00    -0.010 C 
ATOM     17  H   UNK A   0       0.604   0.876   2.030  0.00  0.00    -0.084 HD
ATOM     18  H   UNK A   0       0.429  -0.656   1.522  0.00  0.00    -0.084 HD
ENDBRANCH   1  10
BRANCH   4  19
ATOM     19  C   UNK A   1       5.503  -0.259  -4.836  0.00  0.00    +0.133 C 
BRANCH  19  20
ATOM     20  C   UNK A   1       6.653  -1.022  -4.176  0.00  0.00    +0.181 C 
BRANCH  20  21
ATOM     21  O   UNK A   1       6.520  -2.417  -4.454  0.00  0.00    -0.393 OA
ATOM     22  H   UNK A   1       7.217  -2.964  -4.066  0.00  0.00    +0.209 HD
ENDBRANCH  20  21
ENDBRANCH  19  20
BRANCH  19  23
ATOM     23  C   UNK A   1       5.477  -0.571  -6.333  0.00  0.00    +0.167 C 
BRANCH  23  24
ATOM     24  C   UNK A   1       4.392   0.238  -6.996  0.00  0.00    -0.017 A 
ATOM     25  C   UNK A   1       4.649   1.531  -7.411  0.00  0.00    +0.008 A 
ATOM     26  C   UNK A   1       3.654   2.273  -8.019  0.00  0.00    +0.033 A 
ATOM     27  C   UNK A   1       2.401   1.722  -8.212  0.00  0.00    +0.126 A 
ATOM     28  C   UNK A   1       2.144   0.428  -7.799  0.00  0.00    +0.033 A 
ATOM     29  C   UNK A   1       3.141  -0.316  -7.194  0.00  0.00    +0.008 A 
BRANCH  27  30
ATOM     30  N   UNK A   1       1.335   2.516  -8.863  0.00  0.00    +0.056 N 
ATOM     31  O   UNK A   1       1.559   3.648  -9.224  0.00  0.00    -0.126 OA
ATOM     32  O   UNK A   1       0.239   2.034  -9.032  0.00  0.00    -0.126 OA
ENDBRANCH  27  30
ENDBRANCH  23  24
BRANCH  23  33
ATOM     33  O   UNK A   1       6.740  -0.237  -6.912  0.00  0.00    -0.385 OA
ATOM     34  H   UNK A   1       7.024   0.671  -6.740  0.00  0.00    +0.210 HD
ENDBRANCH  23  33
ENDBRANCH  19  23
ENDBRANCH   4  19
TORSDOF 8
