REMARK  Name = ZINC12819743
REMARK  9 active torsions:
REMARK  status: ('A' for Active; 'I' for Inactive)
REMARK    1  A    between atoms: C_1  and  C_2
REMARK    2  A    between atoms: C_2  and  C_4
REMARK    3  A    between atoms: C_2  and  N_55
REMARK    4  A    between atoms: N_6  and  C_7
REMARK    5  A    between atoms: C_8  and  C_17
REMARK    6  A    between atoms: C_19  and  N_55
REMARK    7  A    between atoms: C_20  and  C_21
REMARK    8  A    between atoms: C_20  and  N_55
REMARK    9  A    between atoms: N_23  and  C_24
REMARK                            x       y       z     vdW  Elec       q    Type
REMARK                         _______ _______ _______ _____ _____    ______ ____
ROOT
ATOM      1  C   UNL     1       0.842   3.609   0.968  0.00  0.00    -0.004 C 
ATOM      2  C   UNL     1      -0.543   2.960   0.982  0.00  0.00    +0.017 C 
ENDROOT
BRANCH   2   3
ATOM      3  C   UNL     1      -1.293   3.349  -0.266  0.00  0.00    +0.204 C 
ATOM      4  O   UNL     1      -1.670   2.494  -1.039  0.00  0.00    -0.277 OA
ATOM      5  N   UNL     1      -1.545   4.648  -0.523  0.00  0.00    -0.280 N 
ATOM      6  H   UNL     1      -1.244   5.332   0.095  0.00  0.00    +0.155 HD
BRANCH   5   7
ATOM      7  C   UNL     1      -2.236   5.007  -1.673  0.00  0.00    +0.090 A 
ATOM      8  C   UNL     1      -2.587   6.274  -2.106  0.00  0.00    +0.084 A 
ATOM      9  C   UNL     1      -3.316   6.385  -3.361  0.00  0.00    -0.018 A 
ATOM     10  C   UNL     1      -3.581   5.209  -3.971  0.00  0.00    -0.004 A 
ATOM     11  S   UNL     1      -2.861   3.978  -2.918  0.00  0.00    -0.077 S 
ATOM     12  C   UNL     1      -4.319   4.988  -5.254  0.00  0.00    +0.043 C 
ATOM     13  C   UNL     1      -3.757   5.928  -6.328  0.00  0.00    +0.005 C 
ATOM     14  C   UNL     1      -4.534   7.241  -6.276  0.00  0.00    +0.001 C 
ATOM     15  C   UNL     1      -4.957   7.545  -4.841  0.00  0.00    +0.005 C 
ATOM     16  C   UNL     1      -3.733   7.726  -3.950  0.00  0.00    +0.037 C 
BRANCH   8  17
ATOM     17  C   UNL     1      -2.244   7.438  -1.345  0.00  0.00    +0.102 C 
ATOM     18  N   UNL     1      -1.972   8.361  -0.741  0.00  0.00    -0.191 NA
ENDBRANCH   8  17
ENDBRANCH   5   7
ENDBRANCH   2   3
BRANCH   2  20
ATOM     19  C   UNL     1       0.463   1.019  -0.059  0.00  0.00    -0.094 C 
ATOM     20  N   UNL     1      -0.424   1.487   1.026  0.00  0.00    +0.391 N 
ATOM     21  H   UNL     1      -1.355   1.073   0.898  0.00  0.00    -0.080 HD
BRANCH  20  22
ATOM     22  C   UNL     1       0.113   1.063   2.336  0.00  0.00    +0.020 C 
BRANCH  22  23
ATOM     23  C   UNL     1       0.018  -0.437   2.439  0.00  0.00    +0.201 C 
ATOM     24  O   UNL     1      -0.432  -1.081   1.514  0.00  0.00    -0.278 OA
ATOM     25  N   UNL     1       0.432  -1.064   3.557  0.00  0.00    -0.287 N 
ATOM     26  H   UNL     1       0.862  -0.559   4.265  0.00  0.00    +0.155 HD
BRANCH  25  27
ATOM     27  C   UNL     1       0.243  -2.443   3.697  0.00  0.00    +0.036 A 
ATOM     28  C   UNL     1      -0.877  -3.051   3.144  0.00  0.00    +0.023 A 
ATOM     29  C   UNL     1      -1.060  -4.414   3.279  0.00  0.00    +0.005 A 
ATOM     30  C   UNL     1      -0.135  -5.172   3.973  0.00  0.00    +0.038 A 
ATOM     31  C   UNL     1       0.980  -4.569   4.531  0.00  0.00    +0.125 A 
ATOM     32  C   UNL     1       1.171  -3.205   4.394  0.00  0.00    +0.061 A 
ATOM     33  F   UNL     1       1.882  -5.312   5.209  0.00  0.00    -0.205 F 
ENDBRANCH  25  27
ENDBRANCH  22  23
ENDBRANCH  20  22
ENDBRANCH   2  20
TORSDOF 7
