REMARK  Name = ZINC35728088
REMARK  10 active torsions:
REMARK  status: ('A' for Active; 'I' for Inactive)
REMARK    1  A    between atoms: C_1  and  C_2
REMARK    2  A    between atoms: C_5  and  O_12
REMARK    3  A    between atoms: C_8  and  C_10
REMARK    4  A    between atoms: C_8  and  C_11
REMARK    5  A    between atoms: O_12  and  C_13
REMARK    6  A    between atoms: C_13  and  C_14
REMARK    7  A    between atoms: C_14  and  C_16
REMARK    8  A    between atoms: C_14  and  O_24
REMARK    9  A    between atoms: C_19  and  C_22
REMARK   10  A    between atoms: C_22  and  N_23
REMARK                            x       y       z     vdW  Elec       q    Type
REMARK                         _______ _______ _______ _____ _____    ______ ____
ROOT
ATOM      1  C   UNL     1      -5.806  -0.669   0.608  0.00  0.00    +0.170 C 
ENDROOT
BRANCH   1   2
ATOM      2  C   UNL     1      -6.856   0.363   0.287  0.00  0.00    -0.017 A 
ATOM      3  C   UNL     1      -7.093   0.722  -1.027  0.00  0.00    +0.006 A 
ATOM      4  C   UNL     1      -8.057   1.668  -1.322  0.00  0.00    +0.002 A 
ATOM      5  C   UNL     1      -8.783   2.256  -0.303  0.00  0.00    -0.065 A 
ATOM      6  C   UNL     1      -8.546   1.896   1.011  0.00  0.00    +0.002 A 
ATOM      7  C   UNL     1      -7.586   0.947   1.305  0.00  0.00    +0.006 A 
BRANCH   5   8
ATOM      8  C   UNL     1      -9.833   3.288  -0.624  0.00  0.00    -0.051 C 
BRANCH   8   9
ATOM      9  N   UNL     1     -11.126   2.624  -0.831  0.00  0.00    +0.381 N 
ATOM     10  H   UNL     1     -11.051   1.972  -1.597  0.00  0.00    -0.090 HD
ATOM     11  H   UNL     1     -11.388   2.128   0.008  0.00  0.00    -0.090 HD
ATOM     12  H   UNL     1     -11.829   3.315  -1.046  0.00  0.00    -0.090 HD
ENDBRANCH   8   9
ENDBRANCH   5   8
ENDBRANCH   1   2
BRANCH   1  13
ATOM     13  O   UNL     1      -5.776  -1.655  -0.425  0.00  0.00    -0.385 OA
ATOM     14  H   UNL     1      -5.569  -1.301  -1.301  0.00  0.00    +0.210 HD
ENDBRANCH   1  13
BRANCH   1  15
ATOM     15  C   UNL     1      -4.438   0.009   0.706  0.00  0.00    +0.196 C 
BRANCH  15  16
ATOM     16  O   UNL     1      -3.461  -0.947   1.124  0.00  0.00    -0.374 OA
BRANCH  16  20
ATOM     17  C   UNL     1      -0.019   1.524   0.010  0.00  0.00    +0.007 C 
ATOM     18  C   UNL     1       0.002  -0.004   0.002  0.00  0.00    -0.011 C 
ATOM     19  C   UNL     1      -1.412  -0.559  -0.088  0.00  0.00    +0.035 C 
ATOM     20  C   UNL     1      -2.138  -0.412   1.248  0.00  0.00    +0.119 C 
ATOM     21  C   UNL     1      -1.378  -1.199   2.313  0.00  0.00    +0.038 C 
ATOM     22  C   UNL     1       0.034  -0.651   2.488  0.00  0.00    -0.032 C 
ATOM     23  C   UNL     1       0.787  -0.561   1.172  0.00  0.00    +0.009 C 
ATOM     24  C   UNL     1       0.803  -1.618   3.413  0.00  0.00    +0.011 C 
ATOM     25  C   UNL     1      -0.015   0.711   3.188  0.00  0.00    +0.011 C 
ENDBRANCH  16  20
ENDBRANCH  15  16
ENDBRANCH   1  15
TORSDOF 7
