REMARK  Name = ZINC36554050
REMARK  12 active torsions:
REMARK  status: ('A' for Active; 'I' for Inactive)
REMARK    1  A    between atoms: C_1  and  C_2
REMARK    2  A    between atoms: C_2  and  C_3
REMARK    3  A    between atoms: C_3  and  C_4
REMARK    4  A    between atoms: C_4  and  N_5
REMARK    5  A    between atoms: C_6  and  C_8
REMARK    6  A    between atoms: C_8  and  C_10
REMARK    7  A    between atoms: C_8  and  N_19
REMARK    8  A    between atoms: C_11  and  O_18
REMARK    9  A    between atoms: C_13  and  O_17
REMARK   10  A    between atoms: C_15  and  O_16
REMARK   11  A    between atoms: N_19  and  C_20
REMARK   12  A    between atoms: C_27  and  C_29
REMARK                            x       y       z     vdW  Elec       q    Type
REMARK                         _______ _______ _______ _____ _____    ______ ____
ROOT
ATOM      1  C   UNL     1       3.770  -4.521  -2.699  0.00  0.00    +0.204 C 
ENDROOT
BRANCH   1   2
ATOM      2  C   UNL     1       4.964  -4.826  -3.567  0.00  0.00    +0.065 A 
ATOM      3  C   UNL     1       5.239  -6.135  -3.933  0.00  0.00    +0.129 A 
ATOM      4  C   UNL     1       6.337  -6.415  -4.733  0.00  0.00    +0.091 A 
ATOM      5  C   UNL     1       7.159  -5.386  -5.167  0.00  0.00    +0.124 A 
ATOM      6  C   UNL     1       6.883  -4.077  -4.801  0.00  0.00    +0.091 A 
ATOM      7  C   UNL     1       5.783  -3.796  -4.005  0.00  0.00    +0.129 A 
BRANCH   7   8
ATOM      8  O   UNL     1       5.510  -2.513  -3.651  0.00  0.00    -0.506 OA
ATOM      9  H   UNL     1       5.933  -2.234  -2.827  0.00  0.00    +0.292 HD
ENDBRANCH   7   8
BRANCH   5  10
ATOM     10  O   UNL     1       8.236  -5.660  -5.949  0.00  0.00    -0.507 OA
ATOM     11  H   UNL     1       8.047  -5.644  -6.897  0.00  0.00    +0.292 HD
ENDBRANCH   5  10
BRANCH   3  12
ATOM     12  O   UNL     1       4.433  -7.143  -3.508  0.00  0.00    -0.506 OA
ATOM     13  H   UNL     1       3.764  -7.410  -4.153  0.00  0.00    +0.292 HD
ENDBRANCH   3  12
ENDBRANCH   1   2
BRANCH   1  15
ATOM     14  N   UNL     1       4.617  -3.459  -0.631  0.00  0.00    -0.313 N 
ATOM     15  C   UNL     1       4.178  -4.574  -1.249  0.00  0.00    +0.239 C 
ATOM     16  O   UNL     1       4.112  -5.619  -0.637  0.00  0.00    -0.273 OA
ATOM     17  H   UNL     1       4.670  -2.623  -1.120  0.00  0.00    +0.149 HD
BRANCH  14  18
ATOM     18  C   UNL     1       5.013  -3.509   0.778  0.00  0.00    +0.104 C 
BRANCH  18  19
ATOM     19  C   UNL     1       5.467  -2.120   1.230  0.00  0.00    +0.018 C 
BRANCH  19  21
ATOM     20  C   UNL     1       6.336  -0.784   3.155  0.00  0.00    +0.004 C 
ATOM     21  C   UNL     1       5.881  -2.173   2.702  0.00  0.00    -0.002 C 
ENDBRANCH  19  21
ENDBRANCH  18  19
ENDBRANCH  14  18
ENDBRANCH   1  15
BRANCH   1  22
ATOM     22  N   UNL     1       2.720  -5.513  -2.946  0.00  0.00    -0.251 N 
ATOM     23  C   UNL     1       2.335  -5.785  -4.209  0.00  0.00    +0.253 C 
ATOM     24  O   UNL     1       1.360  -6.482  -4.410  0.00  0.00    -0.270 OA
BRANCH  22  25
ATOM     25  C   UNL     1       2.117  -6.176  -1.873  0.00  0.00    +0.039 A 
ATOM     26  C   UNL     1       1.037  -5.599  -1.216  0.00  0.00    +0.023 A 
ATOM     27  C   UNL     1       0.444  -6.256  -0.157  0.00  0.00    +0.003 A 
ATOM     28  C   UNL     1       0.923  -7.487   0.252  0.00  0.00    +0.020 A 
ATOM     29  C   UNL     1       1.999  -8.065  -0.399  0.00  0.00    +0.043 A 
ATOM     30  C   UNL     1       2.593  -7.415  -1.465  0.00  0.00    +0.043 A 
ATOM     31 CL   UNL     1       2.598  -9.610   0.118  0.00  0.00    -0.083 Cl
ENDBRANCH  22  25
BRANCH  23  32
ATOM     32  C   UNL     1       3.099  -5.237  -5.349  0.00  0.00    +0.056 A 
ATOM     33  C   UNL     1       3.820  -4.049  -5.204  0.00  0.00    +0.014 A 
ATOM     34  C   UNL     1       4.530  -3.543  -6.272  0.00  0.00    +0.001 A 
ATOM     35  C   UNL     1       4.531  -4.208  -7.486  0.00  0.00    +0.001 A 
ATOM     36  C   UNL     1       3.820  -5.384  -7.637  0.00  0.00    +0.021 A 
ATOM     37  C   UNL     1       3.108  -5.906  -6.575  0.00  0.00    +0.053 A 
ATOM     38 CL   UNL     1       2.222  -7.387  -6.764  0.00  0.00    -0.083 Cl
ENDBRANCH  23  32
ENDBRANCH   1  22
TORSDOF 11
