REMARK  Name = ZINC65301280
REMARK  8 active torsions:
REMARK  status: ('A' for Active; 'I' for Inactive)
REMARK    1  A    between atoms: C_1  and  C_2
REMARK    2  A    between atoms: C_4  and  N_19
REMARK    3  A    between atoms: C_5  and  C_11
REMARK    4  A    between atoms: C_22  and  C_25
REMARK    5  A    between atoms: N_27  and  C_28
REMARK    6  A    between atoms: C_31  and  C_34
REMARK    7  A    between atoms: C_34  and  C_35
REMARK    8  A    between atoms: C_34  and  C_36
REMARK                            x       y       z     vdW  Elec       q    Type
REMARK                         _______ _______ _______ _____ _____    ______ ____
ROOT
ATOM      1  C   UNL     1       1.049   1.883  -0.420  0.00  0.00    +0.067 C 
ATOM      2  C   UNL     1       0.795   0.411  -0.219  0.00  0.00    +0.058 A 
ATOM      3  C   UNL     1       0.239  -0.347  -1.263  0.00  0.00    +0.050 A 
ATOM      4  C   UNL     1      -0.159   0.037  -2.571  0.00  0.00    +0.055 A 
ATOM      5  C   UNL     1      -0.692  -0.943  -3.421  0.00  0.00    +0.074 A 
ATOM      6  C   UNL     1      -0.820  -2.264  -2.970  0.00  0.00    +0.098 A 
ATOM      7  N   UNL     1      -0.444  -2.594  -1.754  0.00  0.00    -0.353 N 
ATOM      8  C   UNL     1       0.062  -1.708  -0.921  0.00  0.00    +0.107 A 
ATOM      9  S   UNL     1       0.668  -1.754   0.746  0.00  0.00    +0.030 S 
ATOM     10  N   UNL     1       1.097  -0.143   0.915  0.00  0.00    -0.213 NA
ATOM     11  H   UNL     1      -0.542  -3.514  -1.462  0.00  0.00    +0.166 HD
ENDROOT
BRANCH   5  12
ATOM     12  C   UNL     1      -1.116  -0.585  -4.784  0.00  0.00    +0.250 C 
ATOM     13  O   UNL     1      -0.330  -0.057  -5.547  0.00  0.00    -0.270 OA
ATOM     14  N   UNL     1      -2.376  -0.842  -5.187  0.00  0.00    -0.293 N 
ATOM     15  C   UNL     1      -3.318  -1.564  -4.316  0.00  0.00    +0.136 C 
ATOM     16  C   UNL     1      -4.620  -0.759  -4.239  0.00  0.00    +0.179 C 
ATOM     17  O   UNL     1      -5.074  -0.471  -5.564  0.00  0.00    -0.377 OA
ATOM     18  C   UNL     1      -4.177   0.339  -6.327  0.00  0.00    +0.179 C 
ATOM     19  C   UNL     1      -2.854  -0.404  -6.508  0.00  0.00    +0.136 C 
ENDBRANCH   5  12
BRANCH   4  20
ATOM     20  N   UNL     1      -0.025   1.342  -2.996  0.00  0.00    -0.329 N 
ATOM     21  C   UNL     1      -1.171   2.260  -2.967  0.00  0.00    +0.106 C 
ATOM     22  C   UNL     1      -1.348   2.874  -4.360  0.00  0.00    +0.031 C 
ATOM     23  C   UNL     1      -0.033   3.524  -4.797  0.00  0.00    +0.078 C 
ATOM     24  C   UNL     1       1.064   2.459  -4.873  0.00  0.00    +0.031 C 
ATOM     25  C   UNL     1       1.269   1.843  -3.481  0.00  0.00    +0.106 C 
BRANCH  23  26
ATOM     26  C   UNL     1      -0.212   4.158  -6.152  0.00  0.00    +0.220 C 
ATOM     27  O   UNL     1      -1.286   4.096  -6.713  0.00  0.00    -0.275 OA
ATOM     28  N   UNL     1       0.820   4.793  -6.741  0.00  0.00    -0.285 N 
ATOM     29  H   UNL     1       1.699   4.772  -6.332  0.00  0.00    +0.155 HD
BRANCH  28  30
ATOM     30  C   UNL     1       0.623   5.484  -7.942  0.00  0.00    +0.033 A 
ATOM     31  C   UNL     1       1.640   5.540  -8.886  0.00  0.00    +0.023 A 
ATOM     32  C   UNL     1       1.442   6.222 -10.071  0.00  0.00    +0.006 A 
ATOM     33  C   UNL     1       0.235   6.849 -10.317  0.00  0.00    -0.045 A 
ATOM     34  C   UNL     1      -0.779   6.796  -9.378  0.00  0.00    +0.006 A 
ATOM     35  C   UNL     1      -0.590   6.110  -8.194  0.00  0.00    +0.023 A 
BRANCH  33  36
ATOM     36  C   UNL     1       0.023   7.593 -11.610  0.00  0.00    +0.013 C 
ATOM     37  C   UNL     1      -1.152   6.972 -12.369  0.00  0.00    +0.012 C 
ATOM     38  C   UNL     1      -0.282   9.062 -11.310  0.00  0.00    +0.012 C 
ENDBRANCH  33  36
ENDBRANCH  28  30
ENDBRANCH  23  26
ENDBRANCH   4  20
TORSDOF 5
