REMARK  Name = ZINC54621923
REMARK  7 active torsions:
REMARK  status: ('A' for Active; 'I' for Inactive)
REMARK    1  A    between atoms: C_1  and  C_2
REMARK    2  A    between atoms: C_6  and  N_8
REMARK    3  A    between atoms: N_8  and  C_9
REMARK    4  A    between atoms: C_9  and  C_11
REMARK    5  A    between atoms: C_9  and  C_23
REMARK    6  A    between atoms: C_17  and  C_22
REMARK    7  A    between atoms: C_20  and  O_21
REMARK                            x       y       z     vdW  Elec       q    Type
REMARK                         _______ _______ _______ _____ _____    ______ ____
ROOT
ATOM      1  C   UNL     1       0.069  -4.101   2.466  0.00  0.00    +0.142 C 
ENDROOT
BRANCH   1   2
ATOM      2  C   UNL     1      -0.405  -4.562   3.820  0.00  0.00    +0.021 A 
ATOM      3  C   UNL     1      -0.472  -3.650   4.870  0.00  0.00    +0.010 A 
ATOM      4  C   UNL     1      -0.896  -4.034   6.105  0.00  0.00    +0.010 A 
ATOM      5  C   UNL     1      -1.272  -5.369   6.329  0.00  0.00    +0.004 A 
ATOM      6  C   UNL     1      -1.716  -5.804   7.592  0.00  0.00    +0.012 A 
ATOM      7  C   UNL     1      -2.065  -7.117   7.735  0.00  0.00    +0.023 A 
ATOM      8  C   UNL     1      -1.976  -7.982   6.647  0.00  0.00    +0.039 A 
ATOM      9  N   UNL     1      -1.563  -7.573   5.472  0.00  0.00    -0.248 NA
ATOM     10  C   UNL     1      -1.206  -6.303   5.265  0.00  0.00    +0.113 A 
ATOM     11  C   UNL     1      -0.767  -5.867   3.997  0.00  0.00    +0.148 A 
ATOM     12  C   UNL     1      -2.366  -9.427   6.825  0.00  0.00    +0.065 C 
BRANCH  11  13
ATOM     13  O   UNL     1      -0.701  -6.741   2.960  0.00  0.00    -0.504 OA
ATOM     14  H   UNL     1       0.150  -7.194   2.882  0.00  0.00    +0.292 HD
ENDBRANCH  11  13
ENDBRANCH   1   2
BRANCH   1  15
ATOM     15  C   UNL     1       1.554  -4.324   2.351  0.00  0.00    +0.014 A 
ATOM     16  C   UNL     1       2.222  -5.326   1.728  0.00  0.00    +0.013 A 
ATOM     17  C   UNL     1       3.604  -5.327   1.751  0.00  0.00    +0.008 A 
ATOM     18  C   UNL     1       4.251  -4.325   2.395  0.00  0.00    +0.045 A 
ATOM     19  S   UNL     1       2.893  -3.331   2.992  0.00  0.00    -0.099 S 
ENDBRANCH   1  15
BRANCH   1  20
ATOM     20  N   UNL     1      -0.225  -2.675   2.305  0.00  0.00    -0.319 N 
ATOM     21  H   UNL     1      -0.329  -2.110   3.087  0.00  0.00    +0.148 HD
BRANCH  20  27
ATOM     22  C   UNL     1      -1.056   1.187  -0.399  0.00  0.00    +0.063 C 
ATOM     23  C   UNL     1      -0.753  -0.285  -0.296  0.00  0.00    +0.014 A 
ATOM     24  C   UNL     1      -0.617  -1.036  -1.446  0.00  0.00    +0.021 A 
ATOM     25  C   UNL     1      -0.338  -2.392  -1.345  0.00  0.00    +0.005 A 
ATOM     26  C   UNL     1      -0.206  -2.946  -0.084  0.00  0.00    +0.041 A 
ATOM     27  C   UNL     1      -0.355  -2.131   1.032  0.00  0.00    +0.097 A 
ATOM     28  N   UNL     1      -0.616  -0.840   0.894  0.00  0.00    -0.347 N 
ATOM     29  H   UNL     1      -0.713  -0.289   1.686  0.00  0.00    +0.167 HD
ENDBRANCH  20  27
ENDBRANCH   1  20
TORSDOF 5
