REMARK  Name = ZINC08776578
REMARK  12 active torsions:
REMARK  status: ('A' for Active; 'I' for Inactive)
REMARK    1  A    between atoms: C_1  and  C_2
REMARK    2  A    between atoms: C_6  and  N_9
REMARK    3  A    between atoms: C_7  and  C_8
REMARK    4  A    between atoms: N_9  and  C_10
REMARK    5  A    between atoms: C_10  and  N_12
REMARK    6  A    between atoms: C_17  and  C_22
REMARK    7  A    between atoms: C_19  and  C_21
REMARK    8  A    between atoms: N_23  and  C_24
REMARK    9  A    between atoms: C_26  and  C_31
REMARK   10  A    between atoms: C_26  and  C_32
REMARK   11  A    between atoms: C_27  and  C_29
REMARK   12  A    between atoms: C_27  and  C_30
REMARK                            x       y       z     vdW  Elec       q    Type
REMARK                         _______ _______ _______ _____ _____    ______ ____
ROOT
ATOM      1  N   UNL     1       1.768   5.302  -5.554  0.00  0.00    -0.159 NA
ATOM      2  C   UNL     1       0.735   4.636  -6.041  0.00  0.00    +0.196 C 
ATOM      3  N   UNL     1      -0.464   5.272  -6.225  0.00  0.00    -0.297 N 
ATOM      4  C   UNL     1      -0.532   6.407  -7.022  0.00  0.00    +0.231 A 
ATOM      5  N   UNL     1       0.541   6.787  -7.698  0.00  0.00    -0.217 NA
ATOM      6  C   UNL     1       0.508   7.861  -8.470  0.00  0.00    +0.044 A 
ATOM      7  C   UNL     1      -0.665   8.595  -8.558  0.00  0.00    +0.046 A 
ATOM      8  C   UNL     1      -1.767   8.171  -7.832  0.00  0.00    +0.044 A 
ATOM      9  N   UNL     1      -1.668   7.085  -7.083  0.00  0.00    -0.217 NA
ATOM     10  C   UNL     1      -3.063   8.937  -7.897  0.00  0.00    +0.066 C 
ATOM     11  C   UNL     1       1.732   8.284  -9.241  0.00  0.00    +0.066 C 
ATOM     12  N   UNL     1       0.863   3.315  -6.360  0.00  0.00    -0.355 N 
ATOM     13  H   UNL     1      -1.265   4.929  -5.798  0.00  0.00    +0.171 HD
ATOM     14  H   UNL     1       1.712   2.865  -6.229  0.00  0.00    +0.163 HD
ENDROOT
BRANCH  12  15
ATOM     15  C   UNL     1      -0.285   2.576  -6.900  0.00  0.00    +0.079 C 
ATOM     16  C   UNL     1      -0.114   1.088  -6.594  0.00  0.00    +0.011 C 
ATOM     17  C   UNL     1      -1.285   0.291  -7.164  0.00  0.00    -0.071 C 
ATOM     18  C   UNL     1      -1.504   1.980  -9.010  0.00  0.00    -0.071 C 
ATOM     19  C   UNL     1      -0.332   2.758  -8.417  0.00  0.00    +0.011 C 
ATOM     20  C   UNL     1      -1.323   1.966 -10.544  0.00  0.00    -0.010 C 
ATOM     21  C   UNL     1      -2.813   2.721  -8.714  0.00  0.00    -0.010 C 
ATOM     22  C   UNL     1      -2.525   0.503  -6.287  0.00  0.00    -0.010 C 
ATOM     23  C   UNL     1      -0.914  -1.206  -7.077  0.00  0.00    -0.010 C 
ATOM     24  N   UNL     1      -1.581   0.552  -8.598  0.00  0.00    +0.386 N 
ATOM     25  H   UNL     1      -2.532   0.217  -8.793  0.00  0.00    -0.084 HD
ATOM     26  H   UNL     1      -0.908   0.021  -9.164  0.00  0.00    -0.084 HD
ENDBRANCH  12  15
BRANCH   1  27
ATOM     27  C   UNL     1       1.574   6.453  -4.895  0.00  0.00    +0.161 C 
ATOM     28  S   UNL     1      -0.013   6.946  -4.481  0.00  0.00    -0.016 S 
BRANCH  27  29
ATOM     29  N   UNL     1       2.627   7.223  -4.558  0.00  0.00    -0.295 N 
ATOM     30  H   UNL     1       3.522   6.970  -4.836  0.00  0.00    +0.154 HD
BRANCH  29  36
ATOM     31  C   UNL     1       3.252  12.071  -4.029  0.00  0.00    +0.044 C 
ATOM     32  C   UNL     1       2.724  10.751  -3.528  0.00  0.00    -0.046 A 
ATOM     33  C   UNL     1       2.044  10.691  -2.326  0.00  0.00    +0.004 A 
ATOM     34  C   UNL     1       1.557   9.482  -1.863  0.00  0.00    +0.002 A 
ATOM     35  C   UNL     1       1.749   8.331  -2.600  0.00  0.00    +0.023 A 
ATOM     36  C   UNL     1       2.431   8.387  -3.809  0.00  0.00    +0.036 A 
ATOM     37  C   UNL     1       2.924   9.602  -4.268  0.00  0.00    -0.026 A 
ATOM     38  C   UNL     1       3.671   9.668  -5.575  0.00  0.00    +0.046 C 
ENDBRANCH  29  36
ENDBRANCH  27  29
ENDBRANCH   1  27
TORSDOF 4
