REMARK  Name = ZINC67475025
REMARK  4 active torsions:
REMARK  status: ('A' for Active; 'I' for Inactive)
REMARK    1  A    between atoms: C_1  and  N_2
REMARK    2  A    between atoms: C_6  and  C_7
REMARK    3  A    between atoms: N_9  and  N_10
REMARK    4  A    between atoms: N_13  and  C_14
REMARK                            x       y       z     vdW  Elec       q    Type
REMARK                         _______ _______ _______ _____ _____    ______ ____
ROOT
ATOM      1  N   UNL     1      -0.241   1.405   4.120  0.00  0.00    -0.218 N 
ATOM      2  C   UNL     1      -0.442   2.711   4.384  0.00  0.00    +0.320 C 
ATOM      3  O   UNL     1      -0.302   3.131   5.517  0.00  0.00    -0.251 OA
ATOM      4  N   UNL     1      -0.797   3.552   3.393  0.00  0.00    -0.267 N 
ATOM      5  H   UNL     1       0.015   0.799   4.834  0.00  0.00    +0.174 HD
ATOM      6  H   UNL     1      -0.834   3.234   2.477  0.00  0.00    +0.156 HD
ENDROOT
BRANCH   4   7
ATOM      7  C   UNL     1      -1.111   4.884   3.684  0.00  0.00    +0.054 A 
ATOM      8  C   UNL     1      -1.709   5.210   4.886  0.00  0.00    +0.035 A 
ATOM      9  C   UNL     1      -2.005   6.562   5.132  0.00  0.00    +0.002 A 
ATOM     10  C   UNL     1      -2.613   6.970   6.332  0.00  0.00    +0.010 A 
ATOM     11  C   UNL     1      -2.884   8.289   6.534  0.00  0.00    +0.001 A 
ATOM     12  C   UNL     1      -2.567   9.240   5.567  0.00  0.00    +0.002 A 
ATOM     13  C   UNL     1      -1.979   8.881   4.394  0.00  0.00    +0.028 A 
ATOM     14  C   UNL     1      -1.682   7.528   4.147  0.00  0.00    +0.071 A 
ATOM     15  N   UNL     1      -1.104   7.150   3.003  0.00  0.00    -0.253 NA
ATOM     16  C   UNL     1      -0.816   5.895   2.762  0.00  0.00    +0.134 A 
ENDBRANCH   4   7
BRANCH   1  19
ATOM     17  C   UNL     1      -0.201  -0.386   2.551  0.00  0.00    +0.277 C 
ATOM     18  O   UNL     1       0.031  -1.161   3.460  0.00  0.00    -0.267 OA
ATOM     19  N   UNL     1      -0.402   0.921   2.815  0.00  0.00    -0.228 N 
ATOM     20  H   UNL     1      -0.657   1.526   2.102  0.00  0.00    +0.173 HD
BRANCH  17  26
ATOM     21  C   UNL     1       0.004  -3.341   1.646  0.00  0.00    +0.149 C 
ATOM     22  N   UNL     1      -0.172  -2.185   0.764  0.00  0.00    -0.345 N 
ATOM     23  C   UNL     1      -0.279  -2.230  -0.587  0.00  0.00    +0.101 A 
ATOM     24  C   UNL     1      -0.431  -0.968  -1.057  0.00  0.00    +0.036 A 
ATOM     25  C   UNL     1      -0.419  -0.098   0.039  0.00  0.00    +0.047 A 
ATOM     26  C   UNL     1      -0.263  -0.872   1.169  0.00  0.00    +0.107 A 
ATOM     27 BR   UNL     1      -0.624  -0.471  -2.871  0.00  0.00    -0.049 Br
ENDBRANCH  17  26
ENDBRANCH   1  19
TORSDOF 3
