REMARK  Name = ZINC63385575
REMARK  10 active torsions:
REMARK  status: ('A' for Active; 'I' for Inactive)
REMARK    1  A    between atoms: C_1  and  C_2
REMARK    2  A    between atoms: C_2  and  C_3
REMARK    3  A    between atoms: C_2  and  C_4
REMARK    4  A    between atoms: C_4  and  C_6
REMARK    5  A    between atoms: C_4  and  N_22
REMARK    6  A    between atoms: N_8  and  C_9
REMARK    7  A    between atoms: C_9  and  C_10
REMARK    8  A    between atoms: C_10  and  C_11
REMARK    9  A    between atoms: C_14  and  O_20
REMARK   10  A    between atoms: O_20  and  C_21
REMARK                            x       y       z     vdW  Elec       q    Type
REMARK                         _______ _______ _______ _____ _____    ______ ____
ROOT
ATOM      1  C   UNL     1      -2.074  -0.231  -1.335  0.00  0.00    +0.235 C 
ATOM      2  O   UNL     1      -2.504  -1.081  -2.085  0.00  0.00    -0.274 OA
ATOM      3  N   UNL     1      -2.204   1.073  -1.649  0.00  0.00    -0.313 N 
ATOM      4  H   UNL     1      -1.924   1.754  -1.018  0.00  0.00    +0.149 HD
ENDROOT
BRANCH   1   5
ATOM      5  C   UNL     1      -1.395  -0.633  -0.051  0.00  0.00    +0.183 C 
BRANCH   5   6
ATOM      6  N   UNL     1      -1.772  -2.006   0.292  0.00  0.00    -0.205 N 
ATOM      7  C   UNL     1      -2.409  -2.242   1.462  0.00  0.00    +0.264 C 
ATOM      8  O   UNL     1      -2.757  -1.329   2.185  0.00  0.00    -0.269 OA
ATOM      9  C   UNL     1      -2.666  -3.649   1.828  0.00  0.00    +0.060 A 
ATOM     10  C   UNL     1      -3.514  -4.018   2.864  0.00  0.00    +0.015 A 
ATOM     11  C   UNL     1      -3.697  -5.358   3.142  0.00  0.00    +0.001 A 
ATOM     12  C   UNL     1      -3.043  -6.327   2.398  0.00  0.00    +0.002 A 
ATOM     13  C   UNL     1      -2.197  -5.972   1.363  0.00  0.00    +0.025 A 
ATOM     14  C   UNL     1      -2.005  -4.636   1.070  0.00  0.00    +0.055 A 
ATOM     15  N   UNL     1      -1.179  -4.196   0.043  0.00  0.00    -0.264 N 
ATOM     16  N   UNL     1      -1.476  -3.011  -0.577  0.00  0.00    -0.157 NA
ATOM     17  H   UNL     1      -0.410  -4.720  -0.231  0.00  0.00    +0.168 HD
ATOM     18  H   UNL     1      -2.212  -3.129  -1.257  0.00  0.00    +0.168 HD
ENDBRANCH   5   6
BRANCH   5  20
ATOM     19  C   UNL     1       0.814  -1.054   1.040  0.00  0.00    +0.009 C 
ATOM     20  C   UNL     1       0.122  -0.549  -0.229  0.00  0.00    +0.014 C 
ATOM     21  C   UNL     1       0.545  -1.415  -1.418  0.00  0.00    +0.009 C 
ENDBRANCH   5  20
ENDBRANCH   1   5
BRANCH   3  22
ATOM     22  C   UNL     1      -2.768   1.462  -2.944  0.00  0.00    +0.108 C 
BRANCH  22  23
ATOM     23  C   UNL     1      -2.804   2.988  -3.047  0.00  0.00    +0.052 C 
BRANCH  23  24
ATOM     24  C   UNL     1      -3.384   3.388  -4.379  0.00  0.00    -0.040 C 
ATOM     25  C   UNL     1      -4.672   3.706  -4.642  0.00  0.00    +0.002 A 
ATOM     26  C   UNL     1      -5.873   3.771  -3.802  0.00  0.00    +0.055 A 
ATOM     27  C   UNL     1      -7.056   4.129  -4.356  0.00  0.00    +0.121 A 
ATOM     28  C   UNL     1      -7.181   4.443  -5.721  0.00  0.00    +0.047 A 
ATOM     29  C   UNL     1      -6.135   4.411  -6.573  0.00  0.00    +0.029 A 
ATOM     30  C   UNL     1      -4.805   4.037  -6.080  0.00  0.00    +0.043 A 
ATOM     31  N   UNL     1      -3.647   3.929  -6.680  0.00  0.00    -0.380 N 
ATOM     32  C   UNL     1      -2.643   3.522  -5.690  0.00  0.00    +0.144 C 
ATOM     33  H   UNL     1      -3.479   4.093  -7.621  0.00  0.00    +0.160 HD
BRANCH  27  34
ATOM     34  O   UNL     1      -8.161   4.185  -3.566  0.00  0.00    -0.495 OA
ATOM     35  C   UNL     1      -9.387   4.566  -4.192  0.00  0.00    +0.277 C 
ENDBRANCH  27  34
ENDBRANCH  23  24
ENDBRANCH  22  23
ENDBRANCH   3  22
TORSDOF 7
