REMARK  Name = ZINC39678880
REMARK  11 active torsions:
REMARK  status: ('A' for Active; 'I' for Inactive)
REMARK    1  A    between atoms: C_1  and  C_2
REMARK    2  A    between atoms: C_2  and  C_3
REMARK    3  A    between atoms: C_2  and  C_4
REMARK    4  A    between atoms: C_8  and  C_17
REMARK    5  A    between atoms: N_19  and  C_20
REMARK    6  A    between atoms: C_20  and  C_21
REMARK    7  A    between atoms: C_21  and  C_22
REMARK    8  A    between atoms: C_22  and  C_23
REMARK    9  A    between atoms: C_23  and  N_24
REMARK   10  A    between atoms: N_24  and  C_25
REMARK   11  A    between atoms: N_24  and  C_26
REMARK                            x       y       z     vdW  Elec       q    Type
REMARK                         _______ _______ _______ _____ _____    ______ ____
ROOT
ATOM      1  C   UNL     1      -1.649  -0.555  -0.056  0.00  0.00    +0.218 C 
ATOM      2  O   UNL     1      -2.603   0.195  -0.043  0.00  0.00    -0.275 OA
ATOM      3  N   UNL     1      -1.833  -1.881   0.098  0.00  0.00    -0.300 N 
ATOM      4  C   UNL     1      -0.796  -2.933   0.219  0.00  0.00    +0.121 C 
ATOM      5  C   UNL     1      -1.350  -3.905   1.285  0.00  0.00    +0.100 C 
ATOM      6  C   UNL     1      -2.873  -3.695   1.255  0.00  0.00    -0.004 C 
ATOM      7  C   UNL     1      -3.117  -2.616   0.189  0.00  0.00    +0.115 C 
ATOM      8  C   UNL     1      -3.578  -4.991   0.868  0.00  0.00    -0.010 C 
ATOM      9  C   UNL     1      -5.093  -4.772   0.902  0.00  0.00    -0.082 C 
ATOM     10  N   UNL     1      -5.499  -4.354   2.249  0.00  0.00    +0.379 N 
ATOM     11  C   UNL     1      -4.889  -3.059   2.577  0.00  0.00    -0.082 C 
ATOM     12  C   UNL     1      -3.365  -3.206   2.614  0.00  0.00    -0.010 C 
ATOM     13  H   UNL     1      -6.504  -4.269   2.285  0.00  0.00    -0.086 HD
ATOM     14  H   UNL     1      -5.198  -5.045   2.920  0.00  0.00    -0.086 HD
ENDROOT
BRANCH   5  15
ATOM     15  C   UNL     1      -1.007  -5.328   0.926  0.00  0.00    +0.218 C 
ATOM     16  O   UNL     1      -0.864  -5.643  -0.237  0.00  0.00    -0.275 OA
ATOM     17  N   UNL     1      -0.860  -6.252   1.896  0.00  0.00    -0.315 N 
ATOM     18  H   UNL     1      -0.975  -6.000   2.826  0.00  0.00    +0.149 HD
BRANCH  17  19
ATOM     19  C   UNL     1      -0.528  -7.635   1.547  0.00  0.00    +0.104 C 
BRANCH  19  20
ATOM     20  C   UNL     1      -0.419  -8.472   2.824  0.00  0.00    +0.017 C 
BRANCH  20  21
ATOM     21  C   UNL     1      -0.072  -9.916   2.459  0.00  0.00    -0.017 C 
BRANCH  21  22
ATOM     22  C   UNL     1       0.036 -10.753   3.736  0.00  0.00    -0.080 C 
BRANCH  22  23
ATOM     23  N   UNL     1       0.370 -12.140   3.385  0.00  0.00    +0.376 N 
ATOM     24  C   UNL     1       0.591 -12.915   4.613  0.00  0.00    -0.097 C 
ATOM     25  C   UNL     1      -0.738 -12.733   2.625  0.00  0.00    -0.097 C 
ATOM     26  H   UNL     1       1.208 -12.152   2.824  0.00  0.00    -0.083 HD
ENDBRANCH  22  23
ENDBRANCH  21  22
ENDBRANCH  20  21
ENDBRANCH  19  20
ENDBRANCH  17  19
ENDBRANCH   5  15
BRANCH   1  28
ATOM     27  C   UNL     1      -0.321   1.244  -1.127  0.00  0.00    +0.017 C 
ATOM     28  C   UNL     1      -0.260  -0.003  -0.243  0.00  0.00    +0.069 C 
ATOM     29  C   UNL     1       0.330   0.367   1.120  0.00  0.00    +0.017 C 
ENDBRANCH   1  28
TORSDOF 7
