REMARK  Name = ZINC20764788
REMARK  7 active torsions:
REMARK  status: ('A' for Active; 'I' for Inactive)
REMARK    1  A    between atoms: C_1  and  O_2
REMARK    2  A    between atoms: O_2  and  C_3
REMARK    3  A    between atoms: C_3  and  C_5
REMARK    4  A    between atoms: C_8  and  C_11
REMARK    5  A    between atoms: C_14  and  C_26
REMARK    6  A    between atoms: C_17  and  C_19
REMARK    7  A    between atoms: C_31  and  O_32
REMARK                            x       y       z     vdW  Elec       q    Type
REMARK                         _______ _______ _______ _____ _____    ______ ____
ROOT
ATOM      1  C   UNL     1      -1.238  -1.979   0.617  0.00  0.00    +0.081 C 
ATOM      2  N   UNL     1      -1.300  -0.521   0.457  0.00  0.00    +0.401 N 
ATOM      3  C   UNL     1       0.002  -0.004   0.002  0.00  0.00    -0.028 C 
ATOM      4  C   UNL     1       0.246  -0.510  -1.423  0.00  0.00    +0.044 C 
ATOM      5  C   UNL     1      -0.046  -1.983  -1.489  0.00  0.00    +0.040 C 
ATOM      6  N   UNL     1      -0.704  -2.607  -0.585  0.00  0.00    -0.299 NA
ATOM      7  H   UNL     1      -2.069  -0.266  -0.287  0.00  0.00    -0.081 HD
ATOM      8  H   UNL     1      -1.555  -0.057   1.421  0.00  0.00    -0.081 HD
ENDROOT
BRANCH   5   9
ATOM      9  C   UNL     1       0.447  -2.747  -2.652  0.00  0.00    -0.003 A 
ATOM     10  C   UNL     1       0.196  -4.117  -2.750  0.00  0.00    +0.010 A 
ATOM     11  C   UNL     1       0.660  -4.824  -3.839  0.00  0.00    +0.002 A 
ATOM     12  C   UNL     1       1.373  -4.180  -4.835  0.00  0.00    +0.015 A 
ATOM     13  C   UNL     1       1.625  -2.822  -4.745  0.00  0.00    +0.018 A 
ATOM     14  C   UNL     1       1.162  -2.101  -3.662  0.00  0.00    +0.025 A 
ATOM     15 BR   UNL     1       2.600  -1.951  -6.112  0.00  0.00    -0.050 Br
ENDBRANCH   5   9
BRANCH   3  16
ATOM     16  C   UNL     1      -0.018   1.503   0.010  0.00  0.00    -0.018 A 
ATOM     17  C   UNL     1      -1.224   2.178   0.020  0.00  0.00    +0.025 A 
ATOM     18  C   UNL     1      -1.243   3.561   0.033  0.00  0.00    +0.041 A 
ATOM     19  C   UNL     1      -0.056   4.271   0.026  0.00  0.00    +0.023 A 
ATOM     20  C   UNL     1       1.152   3.600   0.010  0.00  0.00    +0.047 A 
ATOM     21  C   UNL     1       1.173   2.213   0.003  0.00  0.00    +0.119 A 
ATOM     22 CL   UNL     1      -2.759   4.407   0.052  0.00  0.00    -0.084 Cl
BRANCH  21  23
ATOM     23  O   UNL     1       2.360   1.551  -0.013  0.00  0.00    -0.507 OA
ATOM     24  H   UNL     1       3.304   2.115  -0.019  0.00  0.00    +0.292 HD
ENDBRANCH  21  23
ENDBRANCH   3  16
BRANCH   1  28
ATOM     25  C   UNL     1       1.280  -2.928   3.940  0.00  0.00    +0.059 A 
ATOM     26  C   UNL     1       1.157  -3.822   2.876  0.00  0.00    +0.015 A 
ATOM     27  C   UNL     1       0.343  -3.510   1.807  0.00  0.00    +0.004 A 
ATOM     28  C   UNL     1      -0.351  -2.313   1.788  0.00  0.00    -0.040 A 
ATOM     29  C   UNL     1      -0.230  -1.419   2.837  0.00  0.00    +0.004 A 
ATOM     30  C   UNL     1       0.576  -1.722   3.915  0.00  0.00    +0.015 A 
BRANCH  25  31
ATOM     31  C   UNL     1       2.150  -3.255   5.088  0.00  0.00    +0.339 C 
ATOM     32  O   UNL     1       2.761  -4.305   5.107  0.00  0.00    -0.245 OA
BRANCH  31  34
ATOM     33  C   UNL     1       3.138  -2.777   7.208  0.00  0.00    +0.280 C 
ATOM     34  O   UNL     1       2.266  -2.389   6.114  0.00  0.00    -0.464 OA
ENDBRANCH  31  34
ENDBRANCH  25  31
ENDBRANCH   1  28
TORSDOF 6
