REMARK  Name = ZINC28159672
REMARK  6 active torsions:
REMARK  status: ('A' for Active; 'I' for Inactive)
REMARK    1  A    between atoms: C_1  and  C_2
REMARK    2  A    between atoms: C_5  and  N_8
REMARK    3  A    between atoms: C_9  and  C_11
REMARK    4  A    between atoms: C_11  and  C_12
REMARK    5  A    between atoms: C_20  and  C_34
REMARK    6  A    between atoms: C_23  and  C_25
REMARK                            x       y       z     vdW  Elec       q    Type
REMARK                         _______ _______ _______ _____ _____    ______ ____
ROOT
ATOM      1  C   UNL     1       1.831  -0.210  -0.018  0.00  0.00    +0.150 C 
ATOM      2  C   UNL     1       2.254   1.253  -0.017  0.00  0.00    +0.252 C 
ATOM      3  O   UNL     1       3.422   1.593  -0.033  0.00  0.00    -0.272 OA
ATOM      4  N   UNL     1       1.277   2.117   0.001  0.00  0.00    -0.157 NA
ATOM      5  C   UNL     1      -0.009   1.792   0.019  0.00  0.00    +0.170 C 
ATOM      6  S   UNL     1       0.006   0.004   0.011  0.00  0.00    -0.078 S 
ATOM      7  N   UNL     1      -1.090   2.626   0.034  0.00  0.00    -0.195 N 
ATOM      8  C   UNL     1      -1.036   4.096   0.040  0.00  0.00    +0.142 C 
ATOM      9  C   UNL     1      -2.520   4.513   0.057  0.00  0.00    +0.087 C 
ATOM     10  C   UNL     1      -3.267   3.198   0.058  0.00  0.00    +0.069 C 
ATOM     11  N   UNL     1      -2.424   2.224   0.040  0.00  0.00    -0.182 NA
ENDROOT
BRANCH  10  12
ATOM     12  C   UNL     1      -4.734   3.053   0.072  0.00  0.00    +0.002 A 
ATOM     13  C   UNL     1      -5.550   4.187   0.085  0.00  0.00    +0.013 A 
ATOM     14  C   UNL     1      -6.922   4.049   0.099  0.00  0.00    +0.050 A 
ATOM     15  C   UNL     1      -7.497   2.786   0.098  0.00  0.00    +0.166 A 
ATOM     16  C   UNL     1      -6.688   1.650   0.085  0.00  0.00    +0.167 A 
ATOM     17  C   UNL     1      -5.312   1.781   0.066  0.00  0.00    +0.059 A 
ATOM     18  O   UNL     1      -7.490   0.545   0.088  0.00  0.00    -0.453 OA
ATOM     19  C   UNL     1      -8.784   1.010   0.515  0.00  0.00    +0.466 C 
ATOM     20  O   UNL     1      -8.803   2.390   0.109  0.00  0.00    -0.453 OA
ENDBRANCH  10  12
BRANCH   8  21
ATOM     21  C   UNL     1      -0.356   4.607  -1.204  0.00  0.00    +0.012 A 
ATOM     22  C   UNL     1       0.501   5.649  -1.342  0.00  0.00    +0.013 A 
ATOM     23  C   UNL     1       1.008   5.938  -2.595  0.00  0.00    +0.008 A 
ATOM     24  C   UNL     1       0.633   5.172  -3.649  0.00  0.00    +0.045 A 
ATOM     25  S   UNL     1      -0.464   3.994  -2.877  0.00  0.00    -0.100 S 
ENDBRANCH   8  21
BRANCH   1  26
ATOM     26  C   UNL     1       2.328  -0.936   1.235  0.00  0.00    +0.120 C 
BRANCH  26  28
ATOM     27  N   UNL     1       2.126  -3.185   2.245  0.00  0.00    -0.285 N 
ATOM     28  C   UNL     1       1.813  -2.352   1.232  0.00  0.00    +0.219 C 
ATOM     29  O   UNL     1       1.118  -2.743   0.318  0.00  0.00    -0.275 OA
ATOM     30  H   UNL     1       2.818  -2.855   3.034  0.00  0.00    +0.155 HD
BRANCH  27  35
ATOM     31  C   UNL     1      -0.125  -8.388   2.438  0.00  0.00    +0.044 C 
ATOM     32  C   UNL     1       0.473  -7.006   2.386  0.00  0.00    -0.050 A 
ATOM     33  C   UNL     1       0.791  -6.437   1.167  0.00  0.00    +0.005 A 
ATOM     34  C   UNL     1       1.339  -5.170   1.117  0.00  0.00    +0.023 A 
ATOM     35  C   UNL     1       1.571  -4.468   2.292  0.00  0.00    +0.033 A 
ATOM     36  C   UNL     1       1.256  -5.045   3.516  0.00  0.00    +0.023 A 
ATOM     37  C   UNL     1       0.703  -6.310   3.559  0.00  0.00    +0.005 A 
ENDBRANCH  27  35
ENDBRANCH  26  28
ENDBRANCH   1  26
TORSDOF 5
