REMARK  Name = ZINC14858111
REMARK  13 active torsions:
REMARK  status: ('A' for Active; 'I' for Inactive)
REMARK    1  A    between atoms: C_3  and  O_42
REMARK    2  A    between atoms: C_6  and  C_7
REMARK    3  A    between atoms: C_7  and  O_9
REMARK    4  A    between atoms: O_9  and  C_10
REMARK    5  A    between atoms: C_13  and  C_40
REMARK    6  A    between atoms: C_21  and  O_23
REMARK    7  A    between atoms: O_23  and  C_24
REMARK    8  A    between atoms: C_26  and  O_39
REMARK    9  A    between atoms: C_28  and  O_38
REMARK   10  A    between atoms: C_30  and  O_37
REMARK   11  A    between atoms: C_32  and  C_35
REMARK   12  A    between atoms: C_35  and  O_36
REMARK   13  A    between atoms: C_40  and  O_41
REMARK                            x       y       z     vdW  Elec       q    Type
REMARK                         _______ _______ _______ _____ _____    ______ ____
ROOT
ATOM      1  C   UNL     1       2.409   5.394   0.004  0.00  0.00    +0.207 C 
ATOM      2  C   UNL     1       1.557   5.331  -1.259  0.00  0.00    +0.019 C 
ATOM      3  C   UNL     1       0.736   4.293  -1.211  0.00  0.00    -0.035 C 
ATOM      4  C   UNL     1       0.916   3.596   0.088  0.00  0.00    +0.096 C 
ATOM      5  C   UNL     1       2.386   3.943   0.492  0.00  0.00    +0.072 C 
ATOM      6  C   UNL     1       2.387   3.715   1.979  0.00  0.00    +0.019 C 
ATOM      7  C   UNL     1       1.819   2.557   2.332  0.00  0.00    +0.186 C 
ATOM      8  O   UNL     1       1.323   1.691   1.452  0.00  0.00    -0.471 OA
ATOM      9  C   UNL     1       0.785   2.099   0.185  0.00  0.00    +0.317 C 
ENDROOT
BRANCH   1  10
ATOM     10  O   UNL     1       3.764   5.813  -0.303  0.00  0.00    -0.453 OA
BRANCH  10  11
ATOM     11  C   UNL     1       4.053   7.119  -0.138  0.00  0.00    +0.340 C 
ATOM     12  O   UNL     1       3.196   7.886   0.252  0.00  0.00    -0.245 OA
BRANCH  11  18
ATOM     13  C   UNL     1       6.400   6.735  -0.874  0.00  0.00    +0.018 A 
ATOM     14  C   UNL     1       7.664   7.205  -1.151  0.00  0.00    +0.046 A 
ATOM     15  C   UNL     1       7.960   8.552  -0.980  0.00  0.00    +0.117 A 
ATOM     16  C   UNL     1       6.980   9.432  -0.535  0.00  0.00    +0.046 A 
ATOM     17  C   UNL     1       5.712   8.971  -0.261  0.00  0.00    +0.018 A 
ATOM     18  C   UNL     1       5.410   7.617  -0.431  0.00  0.00    +0.059 A 
BRANCH  15  19
ATOM     19  O   UNL     1       9.209   9.010  -1.248  0.00  0.00    -0.507 OA
ATOM     20  H   UNL     1       9.808   8.984  -0.490  0.00  0.00    +0.292 HD
ENDBRANCH  15  19
ENDBRANCH  11  18
ENDBRANCH  10  11
ENDBRANCH   1  10
BRANCH   9  21
ATOM     21  O   UNL     1      -0.593   1.727   0.102  0.00  0.00    -0.309 OA
BRANCH  21  22
ATOM     22  C   UNL     1      -0.814   0.315   0.091  0.00  0.00    +0.286 C 
ATOM     23  C   UNL     1      -2.301   0.030   0.316  0.00  0.00    +0.201 C 
ATOM     24  C   UNL     1      -3.110   0.637  -0.835  0.00  0.00    +0.179 C 
ATOM     25  C   UNL     1      -2.602   0.061  -2.160  0.00  0.00    +0.177 C 
ATOM     26  C   UNL     1      -1.103   0.345  -2.290  0.00  0.00    +0.178 C 
ATOM     27  O   UNL     1      -0.414  -0.220  -1.173  0.00  0.00    -0.340 OA
BRANCH  25  28
ATOM     28  O   UNL     1      -2.825  -1.350  -2.184  0.00  0.00    -0.386 OA
ATOM     29  H   UNL     1      -3.754  -1.604  -2.101  0.00  0.00    +0.210 HD
ENDBRANCH  25  28
BRANCH  24  30
ATOM     30  O   UNL     1      -2.947   2.057  -0.837  0.00  0.00    -0.386 OA
ATOM     31  H   UNL     1      -3.243   2.487  -0.023  0.00  0.00    +0.210 HD
ENDBRANCH  24  30
BRANCH  23  32
ATOM     32  O   UNL     1      -2.717   0.613   1.553  0.00  0.00    -0.384 OA
ATOM     33  H   UNL     1      -2.242   0.277   2.325  0.00  0.00    +0.210 HD
ENDBRANCH  23  32
BRANCH  26  34
ATOM     34  C   UNL     1      -0.576  -0.279  -3.584  0.00  0.00    +0.190 C 
BRANCH  34  35
ATOM     35  O   UNL     1       0.794   0.084  -3.764  0.00  0.00    -0.392 OA
ATOM     36  H   UNL     1       1.195  -0.278  -4.566  0.00  0.00    +0.210 HD
ENDBRANCH  34  35
ENDBRANCH  26  34
ENDBRANCH  21  22
ENDBRANCH   9  21
BRANCH   3  37
ATOM     37  C   UNL     1      -0.226   3.886  -2.297  0.00  0.00    +0.187 C 
BRANCH  37  38
ATOM     38  O   UNL     1      -0.210   4.864  -3.339  0.00  0.00    -0.391 OA
ATOM     39  H   UNL     1      -0.807   4.667  -4.073  0.00  0.00    +0.210 HD
ENDBRANCH  37  38
ENDBRANCH   3  37
TORSDOF 13
