REMARK  Name = ZINC26567759
REMARK  8 active torsions:
REMARK  status: ('A' for Active; 'I' for Inactive)
REMARK    1  A    between atoms: C_1  and  C_2
REMARK    2  A    between atoms: C_4  and  N_23
REMARK    3  A    between atoms: C_7  and  N_8
REMARK    4  A    between atoms: C_9  and  C_11
REMARK    5  A    between atoms: C_11  and  C_12
REMARK    6  A    between atoms: C_12  and  C_14
REMARK    7  A    between atoms: C_12  and  N_19
REMARK    8  A    between atoms: N_26  and  C_29
REMARK                            x       y       z     vdW  Elec       q    Type
REMARK                         _______ _______ _______ _____ _____    ______ ____
ROOT
ATOM      1  N   UNL     1       2.404   1.102  -0.015  0.00  0.00    -0.285 N 
ATOM      2  C   UNL     1       2.531  -0.065   0.646  0.00  0.00    +0.219 C 
ATOM      3  O   UNL     1       1.565  -0.569   1.179  0.00  0.00    -0.275 OA
ATOM      4  H   UNL     1       3.261   1.522  -0.561  0.00  0.00    +0.155 HD
ENDROOT
BRANCH   1  11
ATOM      5  C   UNL     1       2.445   3.946  -0.009  0.00  0.00    +0.046 C 
ATOM      6  C   UNL     1       1.153   3.169  -0.006  0.00  0.00    -0.028 A 
ATOM      7  C   UNL     1      -0.055   3.838   0.001  0.00  0.00    +0.028 A 
ATOM      8  C   UNL     1      -1.245   3.123   0.005  0.00  0.00    +0.030 A 
ATOM      9  C   UNL     1      -1.220   1.734  -0.004  0.00  0.00    +0.025 A 
ATOM     10  C   UNL     1      -0.013   1.065  -0.004  0.00  0.00    +0.025 A 
ATOM     11  C   UNL     1       1.177   1.781  -0.008  0.00  0.00    +0.036 A 
BRANCH   8  12
ATOM     12  N   UNL     1      -2.469   3.801   0.011  0.00  0.00    -0.333 N 
ATOM     13  C   UNL     1      -2.555   4.721   1.154  0.00  0.00    +0.086 C 
ATOM     14  C   UNL     1      -3.871   5.499   1.081  0.00  0.00    -0.060 C 
ATOM     15  N   UNL     1      -4.996   4.554   1.084  0.00  0.00    +0.380 N 
ATOM     16  C   UNL     1      -4.910   3.634  -0.058  0.00  0.00    -0.060 C 
ATOM     17  C   UNL     1      -3.594   2.856   0.015  0.00  0.00    +0.086 C 
ATOM     18  C   UNL     1      -6.281   5.266   1.091  0.00  0.00    -0.096 C 
ATOM     19  H   UNL     1      -4.936   3.958   2.006  0.00  0.00    -0.082 HD
ENDBRANCH   8  12
ENDBRANCH   1  11
BRANCH   2  20
ATOM     20  C   UNL     1       3.874  -0.744   0.724  0.00  0.00    +0.123 C 
BRANCH  20  21
ATOM     21  C   UNL     1       3.744  -2.041   1.525  0.00  0.00    +0.120 C 
BRANCH  21  22
ATOM     22  N   UNL     1       2.878  -2.977   0.803  0.00  0.00    -0.292 N 
ATOM     23  C   UNL     1       3.217  -3.390  -0.434  0.00  0.00    +0.298 C 
ATOM     24  O   UNL     1       4.241  -2.987  -0.951  0.00  0.00    -0.253 OA
ATOM     25  N   UNL     1       2.420  -4.251  -1.099  0.00  0.00    -0.313 N 
ATOM     26  H   UNL     1       1.952  -3.341   1.270  0.00  0.00    +0.151 HD
ATOM     27  H   UNL     1       2.697  -4.589  -2.108  0.00  0.00    +0.146 HD
ATOM     28  H   UNL     1       1.494  -4.615  -0.631  0.00  0.00    +0.146 HD
ENDBRANCH  21  22
BRANCH  21  29
ATOM     29  C   UNL     1       5.107  -2.658   1.708  0.00  0.00    +0.010 A 
ATOM     30  C   UNL     1       5.929  -2.608   2.784  0.00  0.00    +0.013 A 
ATOM     31  C   UNL     1       7.148  -3.259   2.728  0.00  0.00    +0.008 A 
ATOM     32  C   UNL     1       7.489  -3.918   1.594  0.00  0.00    +0.045 A 
ATOM     33  S   UNL     1       6.062  -3.636   0.559  0.00  0.00    -0.100 S 
ENDBRANCH  21  29
ENDBRANCH  20  21
ENDBRANCH   2  20
TORSDOF 6
