REMARK  Name = ZINC54580187
REMARK  8 active torsions:
REMARK  status: ('A' for Active; 'I' for Inactive)
REMARK    1  A    between atoms: C_1  and  C_2
REMARK    2  A    between atoms: C_2  and  C_4
REMARK    3  A    between atoms: C_2  and  N_15
REMARK    4  A    between atoms: C_7  and  S_10
REMARK    5  A    between atoms: S_10  and  N_13
REMARK    6  A    between atoms: N_13  and  C_14
REMARK    7  A    between atoms: N_18  and  N_19
REMARK    8  A    between atoms: N_22  and  C_23
REMARK                            x       y       z     vdW  Elec       q    Type
REMARK                         _______ _______ _______ _____ _____    ______ ____
ROOT
ATOM      1  N   UNL     1      -1.379  -0.492   0.014  0.00  0.00    -0.292 N 
ATOM      2  C   UNL     1      -2.058  -0.622  -1.143  0.00  0.00    +0.316 C 
ATOM      3  O   UNL     1      -1.533  -0.312  -2.195  0.00  0.00    -0.251 OA
ATOM      4  N   UNL     1      -3.320  -1.095  -1.134  0.00  0.00    -0.217 N 
ATOM      5  H   UNL     1      -1.798  -0.739   0.853  0.00  0.00    +0.151 HD
ATOM      6  H   UNL     1      -3.809  -1.189  -1.966  0.00  0.00    +0.174 HD
ENDROOT
BRANCH   4   7
ATOM      7  N   UNL     1      -3.926  -1.452   0.078  0.00  0.00    -0.217 N 
ATOM      8  C   UNL     1      -5.188  -1.925   0.087  0.00  0.00    +0.320 C 
ATOM      9  O   UNL     1      -5.714  -2.235   1.139  0.00  0.00    -0.251 OA
ATOM     10  N   UNL     1      -5.867  -2.055  -1.070  0.00  0.00    -0.268 N 
ATOM     11  H   UNL     1      -3.437  -1.359   0.910  0.00  0.00    +0.174 HD
ATOM     12  H   UNL     1      -5.474  -1.746  -1.901  0.00  0.00    +0.156 HD
BRANCH  10  13
ATOM     13  C   UNL     1      -7.140  -2.637  -1.072  0.00  0.00    +0.035 A 
ATOM     14  C   UNL     1      -7.542  -3.426  -2.142  0.00  0.00    +0.023 A 
ATOM     15  C   UNL     1      -8.799  -3.999  -2.141  0.00  0.00    +0.002 A 
ATOM     16  C   UNL     1      -9.657  -3.786  -1.077  0.00  0.00    +0.000 A 
ATOM     17  C   UNL     1      -9.260  -3.000  -0.011  0.00  0.00    +0.002 A 
ATOM     18  C   UNL     1      -8.002  -2.430  -0.003  0.00  0.00    +0.023 A 
ENDBRANCH  10  13
ENDBRANCH   4   7
BRANCH   1  20
ATOM     19  C   UNL     1      -0.036   1.552   0.019  0.00  0.00    +0.033 C 
ATOM     20  C   UNL     1      -0.007   0.022   0.004  0.00  0.00    +0.102 C 
BRANCH  20  21
ATOM     21  C   UNL     1       0.726  -0.479   1.222  0.00  0.00    -0.027 A 
ATOM     22  C   UNL     1       0.077  -0.543   2.441  0.00  0.00    +0.007 A 
ATOM     23  C   UNL     1       0.750  -1.002   3.558  0.00  0.00    +0.029 A 
ATOM     24  C   UNL     1       2.070  -1.398   3.456  0.00  0.00    +0.105 A 
ATOM     25  C   UNL     1       2.718  -1.335   2.236  0.00  0.00    +0.029 A 
ATOM     26  C   UNL     1       2.045  -0.879   1.118  0.00  0.00    +0.007 A 
BRANCH  24  27
ATOM     27  S   UNL     1       2.928  -1.983   4.880  0.00  0.00    +0.058 S 
ATOM     28  O   UNL     1       4.312  -1.776   4.633  0.00  0.00    -0.153 OA
ATOM     29  O   UNL     1       2.264  -1.430   6.008  0.00  0.00    -0.153 OA
BRANCH  27  30
ATOM     30  N   UNL     1       2.699  -3.621   4.951  0.00  0.00    -0.193 NA
ATOM     31  C   UNL     1       3.246  -4.484   3.901  0.00  0.00    +0.127 C 
ATOM     32  H   UNL     1       2.201  -4.010   5.688  0.00  0.00    +0.148 HD
ENDBRANCH  27  30
ENDBRANCH  24  27
ENDBRANCH  20  21
ENDBRANCH   1  20
TORSDOF 6
