REMARK  Name = ZINC64417494
REMARK  8 active torsions:
REMARK  status: ('A' for Active; 'I' for Inactive)
REMARK    1  A    between atoms: C_1  and  C_2
REMARK    2  A    between atoms: C_7  and  C_13
REMARK    3  A    between atoms: C_13  and  C_14
REMARK    4  A    between atoms: N_16  and  C_17
REMARK    5  A    between atoms: C_17  and  C_18
REMARK    6  A    between atoms: C_18  and  C_19
REMARK    7  A    between atoms: C_22  and  O_28
REMARK    8  A    between atoms: O_28  and  C_29
REMARK                            x       y       z     vdW  Elec       q    Type
REMARK                         _______ _______ _______ _____ _____    ______ ____
ROOT
ATOM      1  C   UNL     1      -2.602   5.205  -6.451  0.00  0.00    +0.220 C 
ATOM      2  O   UNL     1      -2.724   4.013  -6.635  0.00  0.00    -0.275 OA
ATOM      3  N   UNL     1      -2.750   6.064  -7.479  0.00  0.00    -0.315 N 
ATOM      4  H   UNL     1      -2.652   7.018  -7.332  0.00  0.00    +0.149 HD
ENDROOT
BRANCH   1   5
ATOM      5  C   UNL     1      -2.285   5.726  -5.073  0.00  0.00    +0.168 C 
BRANCH   5  11
ATOM      6  C   UNL     1      -0.013   1.086   0.008  0.00  0.00    +0.060 C 
ATOM      7  C   UNL     1      -0.742   1.585  -1.213  0.00  0.00    +0.008 C 
ATOM      8  N   UNL     1      -0.878   2.941  -1.417  0.00  0.00    -0.313 N 
ATOM      9  C   UNL     1      -2.059   3.379  -2.172  0.00  0.00    +0.276 C 
ATOM     10  N   UNL     1      -1.888   4.709  -2.763  0.00  0.00    -0.296 N 
ATOM     11  C   UNL     1      -2.172   4.570  -4.113  0.00  0.00    +0.125 C 
ATOM     12  N   UNL     1      -2.329   3.334  -4.450  0.00  0.00    -0.163 NA
ATOM     13  N   UNL     1      -2.144   2.482  -3.348  0.00  0.00    -0.150 N 
ATOM     14  C   UNL     1      -1.936   1.156  -3.256  0.00  0.00    +0.263 C 
ATOM     15  C   UNL     1      -1.248   0.699  -2.096  0.00  0.00    +0.087 C 
ATOM     16  O   UNL     1      -2.313   0.386  -4.122  0.00  0.00    -0.269 OA
ATOM     17  H   UNL     1      -1.629   5.522  -2.303  0.00  0.00    +0.151 HD
ATOM     18  H   UNL     1      -0.227   3.574  -1.079  0.00  0.00    +0.149 HD
ENDBRANCH   5  11
ENDBRANCH   1   5
BRANCH   3  19
ATOM     19  C   UNL     1      -3.058   5.558  -8.819  0.00  0.00    +0.108 C 
BRANCH  19  20
ATOM     20  C   UNL     1      -3.173   6.731  -9.793  0.00  0.00    +0.052 C 
BRANCH  20  21
ATOM     21  C   UNL     1      -3.490   6.210 -11.172  0.00  0.00    -0.040 C 
ATOM     22  C   UNL     1      -4.714   6.097 -11.736  0.00  0.00    +0.002 A 
ATOM     23  C   UNL     1      -6.064   6.412 -11.257  0.00  0.00    +0.055 A 
ATOM     24  C   UNL     1      -7.128   6.186 -12.065  0.00  0.00    +0.121 A 
ATOM     25  C   UNL     1      -6.988   5.657 -13.360  0.00  0.00    +0.047 A 
ATOM     26  C   UNL     1      -5.788   5.335 -13.888  0.00  0.00    +0.029 A 
ATOM     27  C   UNL     1      -4.568   5.539 -13.101  0.00  0.00    +0.043 A 
ATOM     28  N   UNL     1      -3.305   5.316 -13.368  0.00  0.00    -0.380 N 
ATOM     29  C   UNL     1      -2.504   5.714 -12.205  0.00  0.00    +0.144 C 
ATOM     30  H   UNL     1      -2.958   4.953 -14.198  0.00  0.00    +0.160 HD
BRANCH  24  31
ATOM     31  O   UNL     1      -8.373   6.482 -11.608  0.00  0.00    -0.495 OA
ATOM     32  C   UNL     1      -9.466   6.228 -12.492  0.00  0.00    +0.277 C 
ENDBRANCH  24  31
ENDBRANCH  20  21
ENDBRANCH  19  20
ENDBRANCH   3  19
TORSDOF 6
