REMARK  Name = ZINC63375916
REMARK  3 active torsions:
REMARK  status: ('A' for Active; 'I' for Inactive)
REMARK    1  A    between atoms: C_4  and  N_7
REMARK    2  A    between atoms: C_12  and  C_30
REMARK    3  A    between atoms: C_30  and  C_31
REMARK                            x       y       z     vdW  Elec       q    Type
REMARK                         _______ _______ _______ _____ _____    ______ ____
ROOT
ATOM      1  N   UNL     1       3.624  -0.652  -0.037  0.00  0.00    -0.210 N 
ATOM      2  C   UNL     1       4.801  -0.024  -0.139  0.00  0.00    +0.232 C 
ATOM      3  O   UNL     1       4.950   1.175  -0.229  0.00  0.00    -0.274 OA
ATOM      4  C   UNL     1       5.917  -1.044  -0.123  0.00  0.00    +0.107 C 
ATOM      5  C   UNL     1       6.600  -1.075  -1.506  0.00  0.00    +0.072 C 
ATOM      6  N   UNL     1       5.799  -2.038  -2.307  0.00  0.00    -0.295 NA
ATOM      7  C   UNL     1       5.459  -3.106  -1.348  0.00  0.00    +0.136 C 
ATOM      8  C   UNL     1       5.164  -2.399  -0.003  0.00  0.00    +0.123 C 
ATOM      9  C   UNL     1       3.710  -1.984   0.052  0.00  0.00    +0.233 C 
ATOM     10  O   UNL     1       2.769  -2.741   0.159  0.00  0.00    -0.274 OA
ATOM     11  C   UNL     1       4.284  -3.917  -1.817  0.00  0.00    +0.005 A 
ATOM     12  C   UNL     1       2.979  -3.605  -2.126  0.00  0.00    +0.008 A 
ATOM     13  C   UNL     1       2.109  -4.596  -2.544  0.00  0.00    +0.002 A 
ATOM     14  C   UNL     1       2.553  -5.902  -2.651  0.00  0.00    +0.022 A 
ATOM     15  C   UNL     1       3.860  -6.220  -2.342  0.00  0.00    +0.062 A 
ATOM     16  C   UNL     1       4.743  -5.226  -1.921  0.00  0.00    +0.057 A 
ATOM     17  N   UNL     1       6.090  -5.297  -1.557  0.00  0.00    -0.282 N 
ATOM     18  C   UNL     1       6.585  -4.094  -1.206  0.00  0.00    +0.243 C 
ATOM     19  O   UNL     1       7.718  -3.854  -0.846  0.00  0.00    -0.273 OA
ATOM     20 CL   UNL     1       4.407  -7.862  -2.478  0.00  0.00    -0.082 Cl
ATOM     21  H   UNL     1       4.966  -1.601  -2.672  0.00  0.00    +0.124 HD
ATOM     22  H   UNL     1       6.609  -6.117  -1.556  0.00  0.00    +0.155 HD
ENDROOT
BRANCH   1  26
ATOM     23  C   UNL     1      -0.017   1.377   0.011  0.00  0.00    +0.000 A 
ATOM     24  C   UNL     1       0.752   1.367  -1.139  0.00  0.00    +0.002 A 
ATOM     25  C   UNL     1       1.958   0.695  -1.158  0.00  0.00    +0.024 A 
ATOM     26  C   UNL     1       2.399   0.031  -0.021  0.00  0.00    +0.044 A 
ATOM     27  C   UNL     1       1.625   0.043   1.131  0.00  0.00    +0.024 A 
ATOM     28  C   UNL     1       0.419   0.717   1.144  0.00  0.00    +0.002 A 
ENDBRANCH   1  26
BRANCH   5  29
ATOM     29  C   UNL     1       6.564   0.314  -2.148  0.00  0.00    +0.052 C 
BRANCH  29  30
ATOM     30  C   UNL     1       7.342   0.291  -3.439  0.00  0.00    -0.040 C 
ATOM     31  C   UNL     1       6.846   0.104  -4.684  0.00  0.00    -0.001 A 
ATOM     32  C   UNL     1       5.487  -0.125  -5.189  0.00  0.00    +0.010 A 
ATOM     33  C   UNL     1       5.300  -0.280  -6.519  0.00  0.00    +0.001 A 
ATOM     34  C   UNL     1       6.368  -0.227  -7.426  0.00  0.00    +0.002 A 
ATOM     35  C   UNL     1       7.644  -0.020  -7.037  0.00  0.00    +0.026 A 
ATOM     36  C   UNL     1       7.957   0.156  -5.661  0.00  0.00    +0.043 A 
ATOM     37  N   UNL     1       9.095   0.366  -5.045  0.00  0.00    -0.380 N 
ATOM     38  C   UNL     1       8.833   0.478  -3.605  0.00  0.00    +0.144 C 
ATOM     39  H   UNL     1       9.963   0.440  -5.470  0.00  0.00    +0.160 HD
ENDBRANCH  29  30
ENDBRANCH   5  29
TORSDOF 3
