REMARK  Name = ZINC20808159
REMARK  15 active torsions:
REMARK  status: ('A' for Active; 'I' for Inactive)
REMARK    1  A    between atoms: C_1  and  C_2
REMARK    2  A    between atoms: C_2  and  O_3
REMARK    3  A    between atoms: O_3  and  C_4
REMARK    4  A    between atoms: C_4  and  C_6
REMARK    5  A    between atoms: C_7  and  C_36
REMARK    6  A    between atoms: C_8  and  C_13
REMARK    7  A    between atoms: C_11  and  C_12
REMARK    8  A    between atoms: C_13  and  C_15
REMARK    9  A    between atoms: C_15  and  C_17
REMARK   10  A    between atoms: C_15  and  N_18
REMARK   11  A    between atoms: N_21  and  C_24
REMARK   12  A    between atoms: C_24  and  C_25
REMARK   13  A    between atoms: N_27  and  C_28
REMARK   14  A    between atoms: C_32  and  C_35
REMARK   15  A    between atoms: C_33  and  C_34
REMARK                            x       y       z     vdW  Elec       q    Type
REMARK                         _______ _______ _______ _____ _____    ______ ____
ROOT
ATOM      1  N   UNL     1      -0.685   3.023  -1.222  0.00  0.00    -0.296 NA
ATOM      2  C   UNL     1      -0.597   1.556  -1.236  0.00  0.00    +0.066 C 
ATOM      3  C   UNL     1       0.056   1.074   0.061  0.00  0.00    -0.063 C 
ATOM      4  N   UNL     1      -0.736   1.540   1.208  0.00  0.00    +0.387 N 
ATOM      5  C   UNL     1      -0.825   3.007   1.222  0.00  0.00    -0.063 C 
ATOM      6  C   UNL     1      -1.478   3.489  -0.076  0.00  0.00    +0.066 C 
ATOM      7  H   UNL     1      -1.755   1.140   1.103  0.00  0.00    -0.081 HD
ENDROOT
BRANCH   1   8
ATOM      8  C   UNL     1      -1.238   3.529  -2.486  0.00  0.00    +0.126 C 
ATOM      9  C   UNL     1      -2.721   3.163  -2.576  0.00  0.00    +0.033 C 
BRANCH   8  10
ATOM     10  C   UNL     1      -1.087   5.028  -2.535  0.00  0.00    +0.196 C 
ATOM     11  O   UNL     1      -0.828   5.646  -1.522  0.00  0.00    -0.289 OA
BRANCH  10  14
ATOM     12  C   UNL     1      -1.371   7.321  -5.318  0.00  0.00    +0.083 A 
ATOM     13  C   UNL     1      -1.137   7.076  -3.948  0.00  0.00    -0.008 A 
ATOM     14  C   UNL     1      -1.248   5.715  -3.762  0.00  0.00    +0.088 A 
ATOM     15  N   UNL     1      -1.536   5.138  -4.983  0.00  0.00    -0.355 N 
ATOM     16  H   UNL     1      -1.660   4.048  -5.061  0.00  0.00    +0.166 HD
ATOM     17  C   UNL     1      -1.615   6.097  -5.917  0.00  0.00    +0.028 A 
ATOM     18  C   UNL     1      -1.916   5.878  -7.377  0.00  0.00    +0.064 C 
ATOM     19  C   UNL     1      -0.826   8.105  -2.892  0.00  0.00    +0.047 C 
BRANCH  12  20
ATOM     20  C   UNL     1      -1.357   8.634  -5.986  0.00  0.00    +0.341 C 
ATOM     21  O   UNL     1      -0.323   9.065  -6.457  0.00  0.00    -0.245 OA
BRANCH  20  22
ATOM     22  O   UNL     1      -2.491   9.357  -6.075  0.00  0.00    -0.461 OA
BRANCH  22  24
ATOM     23  C   UNL     1      -3.778  11.310  -6.750  0.00  0.00    +0.048 C 
ATOM     24  C   UNL     1      -2.403  10.641  -6.747  0.00  0.00    +0.229 C 
ENDBRANCH  22  24
ENDBRANCH  20  22
ENDBRANCH  12  20
ENDBRANCH  10  14
ENDBRANCH   8  10
ENDBRANCH   1   8
BRANCH   4  25
ATOM     25  C   UNL     1      -0.182   1.034   2.471  0.00  0.00    +0.019 C 
BRANCH  25  26
ATOM     26  C   UNL     1      -0.340  -0.464   2.524  0.00  0.00    +0.201 C 
ATOM     27  O   UNL     1      -0.956  -1.040   1.652  0.00  0.00    -0.278 OA
ATOM     28  N   UNL     1       0.203  -1.163   3.540  0.00  0.00    -0.287 N 
ATOM     29  H   UNL     1       0.684  -0.635   4.376  0.00  0.00    +0.155 HD
BRANCH  28  30
ATOM     30  C   UNL     1       0.155  -2.562   3.531  0.00  0.00    +0.036 A 
ATOM     31  C   UNL     1      -0.882  -3.218   2.880  0.00  0.00    +0.023 A 
ATOM     32  C   UNL     1      -0.926  -4.598   2.873  0.00  0.00    +0.002 A 
ATOM     33  C   UNL     1       0.059  -5.327   3.514  0.00  0.00    +0.004 A 
ATOM     34  C   UNL     1       1.092  -4.676   4.163  0.00  0.00    -0.046 A 
ATOM     35  C   UNL     1       1.146  -3.296   4.169  0.00  0.00    -0.026 A 
ATOM     36  C   UNL     1       2.276  -2.588   4.871  0.00  0.00    +0.046 C 
ATOM     37  C   UNL     1       2.164  -5.474   4.860  0.00  0.00    +0.044 C 
ENDBRANCH  28  30
ENDBRANCH  25  26
ENDBRANCH   4  25
TORSDOF 9
