REMARK  Name = ZINC06158978
REMARK  8 active torsions:
REMARK  status: ('A' for Active; 'I' for Inactive)
REMARK    1  A    between atoms: C_1  and  C_2
REMARK    2  A    between atoms: C_2  and  C_4
REMARK    3  A    between atoms: C_8  and  O_30
REMARK    4  A    between atoms: C_9  and  C_29
REMARK    5  A    between atoms: C_18  and  O_28
REMARK    6  A    between atoms: C_19  and  C_26
REMARK    7  A    between atoms: C_22  and  O_25
REMARK    8  A    between atoms: C_26  and  O_27
REMARK                            x       y       z     vdW  Elec       q    Type
REMARK                         _______ _______ _______ _____ _____    ______ ____
ROOT
ATOM      1  C   UNL     1       0.335   6.207   1.991  0.00  0.00    +0.064 C 
ATOM      2  C   UNL     1      -1.156   5.898   1.746  0.00  0.00    +0.014 C 
ATOM      3  C   UNL     1      -1.360   5.915   0.215  0.00  0.00    +0.036 C 
ATOM      4  C   UNL     1       0.057   5.604  -0.353  0.00  0.00    +0.075 C 
ATOM      5  C   UNL     1       0.956   6.406   0.602  0.00  0.00    +0.006 C 
ATOM      6  C   UNL     1       2.400   5.960   0.558  0.00  0.00    +0.010 C 
ATOM      7  C   UNL     1       2.532   4.473   0.786  0.00  0.00    +0.005 C 
ATOM      8  C   UNL     1       1.740   3.725  -0.296  0.00  0.00    +0.006 C 
ATOM      9  C   UNL     1       0.269   4.095  -0.185  0.00  0.00    +0.025 C 
ATOM     10  C   UNL     1      -0.579   3.381  -1.239  0.00  0.00    +0.009 C 
ATOM     11  C   UNL     1      -0.119   1.937  -1.431  0.00  0.00    +0.036 C 
ATOM     12  C   UNL     1       0.607   1.495  -0.166  0.00  0.00    +0.076 C 
ATOM     13  C   UNL     1       1.947   2.230  -0.086  0.00  0.00    +0.026 C 
ATOM     14  C   UNL     1       2.591   1.921   1.265  0.00  0.00    +0.015 C 
ATOM     15  C   UNL     1       2.866   0.412   1.324  0.00  0.00    +0.032 C 
ATOM     16  C   UNL     1       1.558  -0.366   1.177  0.00  0.00    +0.117 C 
ATOM     17  C   UNL     1       0.870  -0.008  -0.145  0.00  0.00    +0.066 C 
ATOM     18  C   UNL     1       0.880   7.888   0.231  0.00  0.00    +0.015 C 
ENDROOT
BRANCH   1  20
ATOM     19  C   UNL     1       2.254   5.275   3.496  0.00  0.00    +0.086 C 
ATOM     20  C   UNL     1       0.997   5.051   2.696  0.00  0.00    +0.134 C 
ATOM     21  O   UNL     1       0.520   3.944   2.618  0.00  0.00    -0.297 OA
ENDBRANCH   1  20
BRANCH  16  22
ATOM     22  O   UNL     1       1.837  -1.767   1.201  0.00  0.00    -0.392 OA
ATOM     23  H   UNL     1       2.273  -2.068   2.010  0.00  0.00    +0.210 HD
ENDBRANCH  16  22
BRANCH  12  24
ATOM     24  O   UNL     1      -0.192   1.849   0.964  0.00  0.00    -0.388 OA
ATOM     25  H   UNL     1      -1.052   1.408   0.991  0.00  0.00    +0.210 HD
ENDBRANCH  12  24
BRANCH   4  26
ATOM     26  O   UNL     1       0.212   6.019  -1.712  0.00  0.00    -0.388 OA
ATOM     27  H   UNL     1      -0.399   5.589  -2.326  0.00  0.00    +0.210 HD
ENDBRANCH   4  26
BRANCH  13  28
ATOM     28  C   UNL     1       2.861   1.712  -1.198  0.00  0.00    +0.165 C 
BRANCH  28  29
ATOM     29  O   UNL     1       4.134   2.354  -1.105  0.00  0.00    -0.394 OA
ATOM     30  H   UNL     1       4.766   2.073  -1.781  0.00  0.00    +0.209 HD
ENDBRANCH  28  29
ENDBRANCH  13  28
TORSDOF 6
