REMARK  Name = ZINC61952106
REMARK  3 active torsions:
REMARK  status: ('A' for Active; 'I' for Inactive)
REMARK    1  A    between atoms: C_1  and  N_2
REMARK    2  A    between atoms: N_2  and  C_3
REMARK    3  A    between atoms: C_7  and  C_9
REMARK                            x       y       z     vdW  Elec       q    Type
REMARK                         _______ _______ _______ _____ _____    ______ ____
ROOT
ATOM      1  C   UNL     1       0.119  -0.691   1.214  0.00  0.00    +0.035 A 
ATOM      2  C   UNL     1       0.084  -2.081   1.231  0.00  0.00    +0.023 A 
ATOM      3  C   UNL     1       0.199  -2.764   2.427  0.00  0.00    +0.002 A 
ATOM      4  C   UNL     1       0.350  -2.072   3.611  0.00  0.00    +0.011 A 
ATOM      5  C   UNL     1       0.387  -0.677   3.604  0.00  0.00    +0.014 A 
ATOM      6  C   UNL     1       0.277   0.013   2.398  0.00  0.00    +0.034 A 
ENDROOT
BRANCH   1   8
ATOM      7  C   UNL     1      -1.264  -0.029  -0.734  0.00  0.00    +0.137 C 
ATOM      8  N   UNL     1       0.002  -0.004   0.002  0.00  0.00    -0.288 N 
ATOM      9  C   UNL     1       1.088   0.703  -0.505  0.00  0.00    +0.125 A 
ATOM     10  C   UNL     1       0.913   1.543  -1.600  0.00  0.00    +0.045 A 
ATOM     11  C   UNL     1       2.001   2.240  -2.093  0.00  0.00    +0.020 A 
ATOM     12  C   UNL     1       3.232   2.073  -1.473  0.00  0.00    +0.036 A 
ATOM     13  C   UNL     1       3.334   1.222  -0.389  0.00  0.00    +0.128 A 
ATOM     14  N   UNL     1       2.277   0.574   0.063  0.00  0.00    -0.239 NA
ATOM     15 BR   UNL     1       4.754   3.000  -2.105  0.00  0.00    -0.049 Br
ENDBRANCH   1   8
BRANCH   5  16
ATOM     16  C   UNL     1       0.548   0.068   4.873  0.00  0.00    +0.094 C 
ATOM     17  N   UNL     1       0.081  -0.445   6.010  0.00  0.00    -0.387 N 
ATOM     18  N   UNL     1       1.161   1.250   4.878  0.00  0.00    -0.345 N 
ATOM     19  H   UNL     1      -0.366  -1.306   6.006  0.00  0.00    +0.157 HD
ATOM     20  H   UNL     1       1.501   1.623   4.050  0.00  0.00    +0.144 HD
ATOM     21  H   UNL     1       1.266   1.738   5.710  0.00  0.00    +0.144 HD
ATOM     22  H   UNL     1       0.186   0.043   6.841  0.00  0.00    +0.157 HD
ENDBRANCH   5  16
TORSDOF 2
