REMARK  Name = ZINC36484942
REMARK  15 active torsions:
REMARK  status: ('A' for Active; 'I' for Inactive)
REMARK    1  A    between atoms: C_1  and  C_2
REMARK    2  A    between atoms: C_2  and  C_3
REMARK    3  A    between atoms: C_2  and  C_4
REMARK    4  A    between atoms: C_2  and  N_5
REMARK    5  A    between atoms: C_6  and  C_8
REMARK    6  A    between atoms: C_8  and  C_10
REMARK    7  A    between atoms: C_8  and  N_20
REMARK    8  A    between atoms: C_13  and  O_18
REMARK    9  A    between atoms: C_14  and  O_16
REMARK   10  A    between atoms: O_16  and  C_17
REMARK   11  A    between atoms: O_18  and  C_19
REMARK   12  A    between atoms: N_20  and  C_21
REMARK   13  A    between atoms: C_28  and  C_30
REMARK   14  A    between atoms: C_31  and  O_37
REMARK   15  A    between atoms: C_35  and  O_36
REMARK                            x       y       z     vdW  Elec       q    Type
REMARK                         _______ _______ _______ _____ _____    ______ ____
ROOT
ATOM      1  N   UNL     1       4.287  -0.518  -2.793  0.00  0.00    -0.251 N 
ATOM      2  C   UNL     1       4.895  -1.350  -1.925  0.00  0.00    +0.259 C 
ATOM      3  O   UNL     1       4.259  -1.854  -1.019  0.00  0.00    -0.269 OA
ENDROOT
BRANCH   1   4
ATOM      4  C   UNL     1       5.038   0.146  -3.769  0.00  0.00    +0.039 A 
ATOM      5  C   UNL     1       4.875  -0.175  -5.110  0.00  0.00    +0.023 A 
ATOM      6  C   UNL     1       5.618   0.482  -6.072  0.00  0.00    +0.003 A 
ATOM      7  C   UNL     1       6.523   1.459  -5.700  0.00  0.00    +0.020 A 
ATOM      8  C   UNL     1       6.688   1.781  -4.365  0.00  0.00    +0.043 A 
ATOM      9  C   UNL     1       5.943   1.131  -3.398  0.00  0.00    +0.043 A 
ATOM     10 CL   UNL     1       7.826   3.009  -3.903  0.00  0.00    -0.083 Cl
ENDBRANCH   1   4
BRANCH   2  11
ATOM     11  C   UNL     1       6.329  -1.647  -2.072  0.00  0.00    +0.120 A 
ATOM     12  C   UNL     1       7.278  -0.939  -1.320  0.00  0.00    +0.133 A 
ATOM     13  C   UNL     1       8.625  -1.228  -1.466  0.00  0.00    +0.046 A 
ATOM     14  C   UNL     1       9.035  -2.209  -2.349  0.00  0.00    +0.007 A 
ATOM     15  C   UNL     1       8.108  -2.913  -3.095  0.00  0.00    +0.046 A 
ATOM     16  C   UNL     1       6.756  -2.645  -2.961  0.00  0.00    +0.133 A 
BRANCH  16  17
ATOM     17  O   UNL     1       5.848  -3.341  -3.690  0.00  0.00    -0.506 OA
ATOM     18  H   UNL     1       5.643  -2.942  -4.547  0.00  0.00    +0.292 HD
ENDBRANCH  16  17
BRANCH  12  19
ATOM     19  O   UNL     1       6.878   0.025  -0.453  0.00  0.00    -0.506 OA
ATOM     20  H   UNL     1       6.703  -0.298   0.441  0.00  0.00    +0.292 HD
ENDBRANCH  12  19
ENDBRANCH   2  11
BRANCH   1  21
ATOM     21  C   UNL     1       2.839  -0.309  -2.716  0.00  0.00    +0.198 C 
BRANCH  21  22
ATOM     22  C   UNL     1       2.389   0.527  -3.886  0.00  0.00    -0.014 A 
ATOM     23  C   UNL     1       2.946   1.775  -4.097  0.00  0.00    +0.010 A 
ATOM     24  C   UNL     1       2.536   2.546  -5.169  0.00  0.00    +0.050 A 
ATOM     25  C   UNL     1       1.565   2.068  -6.035  0.00  0.00    +0.162 A 
ATOM     26  C   UNL     1       1.005   0.812  -5.823  0.00  0.00    +0.162 A 
ATOM     27  C   UNL     1       1.424   0.043  -4.749  0.00  0.00    +0.055 A 
BRANCH  26  28
ATOM     28  O   UNL     1       0.052   0.339  -6.670  0.00  0.00    -0.491 OA
ATOM     29  C   UNL     1      -0.478  -0.958  -6.390  0.00  0.00    +0.277 C 
ENDBRANCH  26  28
BRANCH  25  30
ATOM     30  O   UNL     1       1.161   2.825  -7.090  0.00  0.00    -0.491 OA
ATOM     31  C   UNL     1       1.780   4.104  -7.245  0.00  0.00    +0.277 C 
ENDBRANCH  25  30
ENDBRANCH  21  22
BRANCH  21  33
ATOM     32  N   UNL     1       1.220   0.703  -1.143  0.00  0.00    -0.309 N 
ATOM     33  C   UNL     1       2.502   0.403  -1.431  0.00  0.00    +0.239 C 
ATOM     34  O   UNL     1       3.385   0.706  -0.656  0.00  0.00    -0.273 OA
ATOM     35  H   UNL     1       0.514   0.461  -1.762  0.00  0.00    +0.149 HD
BRANCH  32  37
ATOM     36  C   UNL     1       1.606   2.748   0.142  0.00  0.00    +0.031 C 
ATOM     37  C   UNL     1       0.893   1.395   0.106  0.00  0.00    +0.026 C 
ATOM     38  C   UNL     1       1.350   0.546   1.295  0.00  0.00    +0.031 C 
ATOM     39  C   UNL     1      -0.620   1.613   0.187  0.00  0.00    +0.031 C 
ENDBRANCH  32  37
ENDBRANCH  21  33
ENDBRANCH   1  21
TORSDOF 10
