REMARK  Name = ZINC52850235
REMARK  7 active torsions:
REMARK  status: ('A' for Active; 'I' for Inactive)
REMARK    1  A    between atoms: C_3  and  C_7
REMARK    2  A    between atoms: C_7  and  N_8
REMARK    3  A    between atoms: N_8  and  C_9
REMARK    4  A    between atoms: N_8  and  C_17
REMARK    5  A    between atoms: C_9  and  C_10
REMARK    6  A    between atoms: C_10  and  C_11
REMARK    7  A    between atoms: C_17  and  C_18
REMARK                            x       y       z     vdW  Elec       q    Type
REMARK                         _______ _______ _______ _____ _____    ______ ____
ROOT
ATOM      1  N   UNL     1       4.062  -0.477   0.649  0.00  0.00    +0.383 N 
ATOM      2  H   UNL     1       3.326  -1.105   0.362  0.00  0.00    -0.082 HD
ENDROOT
BRANCH   1   3
ATOM      3  C   UNL     1       3.644   0.910   0.405  0.00  0.00    -0.047 C 
BRANCH   3   6
ATOM      4  C   UNL     1       0.346   2.570   1.100  0.00  0.00    +0.030 C 
ATOM      5  C   UNL     1       1.883   2.651   0.934  0.00  0.00    +0.032 C 
ATOM      6  C   UNL     1       2.307   1.170   1.101  0.00  0.00    +0.102 C 
ATOM      7  O   UNL     1       1.242   0.440   0.453  0.00  0.00    -0.378 OA
ATOM      8  C   UNL     1       0.012   1.096   0.802  0.00  0.00    +0.160 C 
ENDBRANCH   3   6
ENDBRANCH   1   3
BRANCH   1   9
ATOM      9  C   UNL     1       5.280  -0.764  -0.121  0.00  0.00    -0.069 C 
BRANCH   9  10
ATOM     10  C   UNL     1       5.677  -2.228   0.081  0.00  0.00    +0.078 C 
BRANCH  10  11
ATOM     11  C   UNL     1       6.926  -2.523  -0.709  0.00  0.00    +0.219 C 
ATOM     12  O   UNL     1       7.447  -1.649  -1.368  0.00  0.00    -0.275 OA
ATOM     13  N   UNL     1       7.464  -3.758  -0.683  0.00  0.00    -0.240 N 
ATOM     14  C   UNL     1       8.581  -4.022  -1.389  0.00  0.00    +0.303 C 
ATOM     15  O   UNL     1       9.104  -3.146  -2.050  0.00  0.00    -0.253 OA
ATOM     16  N   UNL     1       9.119  -5.257  -1.363  0.00  0.00    -0.313 N 
ATOM     17  H   UNL     1       7.047  -4.458  -0.156  0.00  0.00    +0.159 HD
ATOM     18  H   UNL     1       8.703  -5.957  -0.836  0.00  0.00    +0.146 HD
ATOM     19  H   UNL     1       9.923  -5.447  -1.871  0.00  0.00    +0.146 HD
ENDBRANCH  10  11
ENDBRANCH   9  10
ENDBRANCH   1   9
BRANCH   1  20
ATOM     20  C   UNL     1       4.333  -0.662   2.081  0.00  0.00    -0.047 C 
BRANCH  20  21
ATOM     21  C   UNL     1       5.335   0.394   2.551  0.00  0.00    +0.102 C 
ATOM     22  C   UNL     1       5.571   0.270   4.077  0.00  0.00    +0.032 C 
ATOM     23  C   UNL     1       6.983   0.902   4.210  0.00  0.00    +0.030 C 
ATOM     24  C   UNL     1       7.659   0.474   2.889  0.00  0.00    +0.160 C 
ATOM     25  O   UNL     1       6.620   0.165   1.951  0.00  0.00    -0.378 OA
ENDBRANCH  20  21
ENDBRANCH   1  20
TORSDOF 7
