REMARK  Name = ZINC63374658
REMARK  8 active torsions:
REMARK  status: ('A' for Active; 'I' for Inactive)
REMARK    1  A    between atoms: C_1  and  C_2
REMARK    2  A    between atoms: C_5  and  C_8
REMARK    3  A    between atoms: N_26  and  C_29
REMARK    4  A    between atoms: C_34  and  C_35
REMARK    5  A    between atoms: N_37  and  C_38
REMARK    6  A    between atoms: C_38  and  C_39
REMARK    7  A    between atoms: C_39  and  C_40
REMARK    8  A    between atoms: C_39  and  C_41
REMARK                            x       y       z     vdW  Elec       q    Type
REMARK                         _______ _______ _______ _____ _____    ______ ____
ROOT
ATOM      1  C   UNL     1       0.059  -4.275  -0.021  0.00  0.00    +0.135 C 
ATOM      2  C   UNL     1      -1.317  -4.820   0.387  0.00  0.00    +0.131 C 
ATOM      3  C   UNL     1      -1.457  -4.598   1.887  0.00  0.00    -0.034 C 
ATOM      4  C   UNL     1      -2.561  -3.877   2.056  0.00  0.00    -0.001 A 
ATOM      5  C   UNL     1      -3.243  -3.405   3.272  0.00  0.00    +0.010 A 
ATOM      6  C   UNL     1      -4.368  -2.666   3.079  0.00  0.00    +0.001 A 
ATOM      7  C   UNL     1      -4.876  -2.354   1.814  0.00  0.00    +0.002 A 
ATOM      8  C   UNL     1      -4.315  -2.749   0.643  0.00  0.00    +0.026 A 
ATOM      9  C   UNL     1      -3.128  -3.535   0.717  0.00  0.00    +0.043 A 
ATOM     10  N   UNL     1      -2.400  -4.066  -0.249  0.00  0.00    -0.375 N 
ATOM     11  C   UNL     1      -0.443  -5.085   2.895  0.00  0.00    +0.065 C 
ATOM     12  C   UNL     1       0.926  -4.558   2.428  0.00  0.00    +0.169 C 
ATOM     13  N   UNL     1       1.026  -4.770   0.968  0.00  0.00    -0.264 N 
ATOM     14  C   UNL     1       2.128  -5.500   0.755  0.00  0.00    +0.317 C 
ATOM     15  O   UNL     1       2.569  -5.756  -0.348  0.00  0.00    -0.252 OA
ATOM     16  N   UNL     1       2.688  -5.916   1.899  0.00  0.00    -0.192 N 
ATOM     17  C   UNL     1       2.032  -5.418   3.000  0.00  0.00    +0.248 C 
ATOM     18  O   UNL     1       2.272  -5.618   4.171  0.00  0.00    -0.273 OA
ATOM     19  H   UNL     1      -2.543  -3.975  -1.204  0.00  0.00    +0.160 HD
ENDROOT
BRANCH   1  24
ATOM     20  C   UNL     1      -0.012   1.503   0.011  0.00  0.00    +0.044 C 
ATOM     21  C   UNL     1       0.007  -0.004   0.002  0.00  0.00    -0.050 A 
ATOM     22  C   UNL     1      -0.133  -0.704   1.186  0.00  0.00    +0.004 A 
ATOM     23  C   UNL     1      -0.116  -2.086   1.179  0.00  0.00    +0.006 A 
ATOM     24  C   UNL     1       0.040  -2.768  -0.013  0.00  0.00    -0.025 A 
ATOM     25  C   UNL     1       0.179  -2.069  -1.197  0.00  0.00    +0.006 A 
ATOM     26  C   UNL     1       0.158  -0.687  -1.190  0.00  0.00    +0.004 A 
ENDBRANCH   1  24
BRANCH  16  27
ATOM     27  C   UNL     1       3.808  -6.747   1.968  0.00  0.00    +0.058 A 
ATOM     28  C   UNL     1       5.082  -6.198   2.009  0.00  0.00    +0.025 A 
ATOM     29  C   UNL     1       6.188  -7.021   2.078  0.00  0.00    +0.002 A 
ATOM     30  C   UNL     1       6.037  -8.398   2.107  0.00  0.00    +0.001 A 
ATOM     31  C   UNL     1       4.780  -8.960   2.066  0.00  0.00    +0.015 A 
ATOM     32  C   UNL     1       3.651  -8.140   2.002  0.00  0.00    +0.059 A 
BRANCH  32  33
ATOM     33  C   UNL     1       2.302  -8.735   1.965  0.00  0.00    +0.246 C 
ATOM     34  O   UNL     1       1.322  -8.018   1.904  0.00  0.00    -0.270 OA
ATOM     35  N   UNL     1       2.155 -10.075   1.998  0.00  0.00    -0.311 N 
ATOM     36  H   UNL     1       2.937 -10.647   2.046  0.00  0.00    +0.149 HD
BRANCH  35  37
ATOM     37  C   UNL     1       0.815 -10.666   1.961  0.00  0.00    +0.107 C 
BRANCH  37  38
ATOM     38  C   UNL     1       0.929 -12.191   2.010  0.00  0.00    -0.000 C 
ATOM     39  C   UNL     1       1.522 -12.615   3.355  0.00  0.00    +0.009 C 
ATOM     40  C   UNL     1      -0.459 -12.812   1.845  0.00  0.00    +0.009 C 
ENDBRANCH  37  38
ENDBRANCH  35  37
ENDBRANCH  32  33
ENDBRANCH  16  27
TORSDOF 5
