REMARK  Name = ZINC44253864
REMARK  10 active torsions:
REMARK  status: ('A' for Active; 'I' for Inactive)
REMARK    1  A    between atoms: C_3  and  O_17
REMARK    2  A    between atoms: C_4  and  C_10
REMARK    3  A    between atoms: C_6  and  N_7
REMARK    4  A    between atoms: C_10  and  C_12
REMARK    5  A    between atoms: C_10  and  N_16
REMARK    6  A    between atoms: C_12  and  C_13
REMARK    7  A    between atoms: O_17  and  S_18
REMARK    8  A    between atoms: S_18  and  C_21
REMARK    9  A    between atoms: C_23  and  C_31
REMARK   10  A    between atoms: C_25  and  C_27
REMARK                            x       y       z     vdW  Elec       q    Type
REMARK                         _______ _______ _______ _____ _____    ______ ____
ROOT
ATOM      1  C   UNL     1       0.126   1.036  -0.173  0.00  0.00    +0.036 A 
ATOM      2  C   UNL     1       1.236   1.844  -0.016  0.00  0.00    +0.051 A 
ATOM      3  C   UNL     1       2.448   1.288   0.367  0.00  0.00    +0.158 A 
ATOM      4  C   UNL     1       2.542  -0.078   0.591  0.00  0.00    -0.015 A 
ATOM      5  C   UNL     1       1.430  -0.881   0.432  0.00  0.00    +0.038 A 
ATOM      6  C   UNL     1       0.223  -0.325   0.051  0.00  0.00    +0.127 A 
ENDROOT
BRANCH   6   7
ATOM      7  N   UNL     1      -0.968  -1.188  -0.118  0.00  0.00    +0.056 N 
ATOM      8  O   UNL     1      -2.024  -0.703  -0.451  0.00  0.00    -0.126 OA
ATOM      9  O   UNL     1      -0.884  -2.378   0.078  0.00  0.00    -0.126 OA
ENDBRANCH   6   7
BRANCH   4  10
ATOM     10  C   UNL     1       3.858  -0.684   1.006  0.00  0.00    -0.032 C 
BRANCH  10  11
ATOM     11  N   UNL     1       3.610  -1.895   1.800  0.00  0.00    +0.383 N 
ATOM     12  H   UNL     1       3.092  -2.561   1.245  0.00  0.00    -0.089 HD
ATOM     13  H   UNL     1       4.490  -2.301   2.078  0.00  0.00    -0.089 HD
ATOM     14  H   UNL     1       3.076  -1.655   2.622  0.00  0.00    -0.089 HD
ENDBRANCH  10  11
BRANCH  10  15
ATOM     15  C   UNL     1       4.668  -1.049  -0.240  0.00  0.00    +0.084 C 
BRANCH  15  16
ATOM     16  C   UNL     1       6.031  -1.541   0.173  0.00  0.00    +0.209 C 
ATOM     17  O   UNL     1       6.326  -1.595   1.348  0.00  0.00    -0.276 OA
ATOM     18  N   UNL     1       6.922  -1.921  -0.764  0.00  0.00    -0.329 N 
ATOM     19  H   UNL     1       6.686  -1.878  -1.704  0.00  0.00    +0.145 HD
ATOM     20  H   UNL     1       7.800  -2.238  -0.498  0.00  0.00    +0.145 HD
ENDBRANCH  15  16
ENDBRANCH  10  15
ENDBRANCH   4  10
BRANCH   3  21
ATOM     21  O   UNL     1       3.541   2.081   0.521  0.00  0.00    -0.342 OA
BRANCH  21  22
ATOM     22  S   UNL     1       3.604   2.793   1.865  0.00  0.00    +0.151 S 
ATOM     23  O   UNL     1       4.712   3.681   1.802  0.00  0.00    -0.131 OA
ATOM     24  O   UNL     1       2.286   3.238   2.151  0.00  0.00    -0.131 OA
BRANCH  22  25
ATOM     25  C   UNL     1       4.001   1.579   3.079  0.00  0.00    +0.129 A 
ATOM     26  C   UNL     1       2.991   0.886   3.720  0.00  0.00    +0.043 A 
ATOM     27  C   UNL     1       3.302  -0.066   4.672  0.00  0.00    +0.057 A 
ATOM     28  C   UNL     1       4.623  -0.325   4.984  0.00  0.00    +0.024 A 
ATOM     29  C   UNL     1       5.633   0.367   4.344  0.00  0.00    +0.057 A 
ATOM     30  C   UNL     1       5.322   1.316   3.388  0.00  0.00    +0.043 A 
BRANCH  29  31
ATOM     31  C   UNL     1       7.074   0.085   4.684  0.00  0.00    +0.417 C 
ATOM     32  F   UNL     1       7.135  -0.908   5.668  0.00  0.00    -0.166 F 
ATOM     33  F   UNL     1       7.747  -0.352   3.538  0.00  0.00    -0.166 F 
ATOM     34  F   UNL     1       7.678   1.253   5.163  0.00  0.00    -0.166 F 
ENDBRANCH  29  31
BRANCH  27  35
ATOM     35  C   UNL     1       2.200  -0.821   5.371  0.00  0.00    +0.417 C 
ATOM     36  F   UNL     1       1.899  -1.980   4.649  0.00  0.00    -0.166 F 
ATOM     37  F   UNL     1       2.619  -1.169   6.660  0.00  0.00    -0.166 F 
ATOM     38  F   UNL     1       1.061  -0.013   5.453  0.00  0.00    -0.166 F 
ENDBRANCH  27  35
ENDBRANCH  22  25
ENDBRANCH  21  22
ENDBRANCH   3  21
TORSDOF 10
