REMARK  Name = ZINC33686785
REMARK  13 active torsions:
REMARK  status: ('A' for Active; 'I' for Inactive)
REMARK    1  A    between atoms: C_1  and  C_2
REMARK    2  A    between atoms: C_2  and  N_3
REMARK    3  A    between atoms: C_10  and  O_32
REMARK    4  A    between atoms: C_16  and  C_23
REMARK    5  A    between atoms: C_17  and  C_19
REMARK    6  A    between atoms: C_19  and  O_21
REMARK    7  A    between atoms: O_21  and  C_22
REMARK    8  A    between atoms: C_23  and  O_25
REMARK    9  A    between atoms: O_25  and  C_26
REMARK   10  A    between atoms: C_29  and  C_30
REMARK   11  A    between atoms: C_29  and  C_31
REMARK   12  A    between atoms: O_32  and  C_33
REMARK   13  A    between atoms: C_33  and  C_34
REMARK                            x       y       z     vdW  Elec       q    Type
REMARK                         _______ _______ _______ _____ _____    ______ ____
ROOT
ATOM      1  N   UNL     1       1.171  -0.454  -1.113  0.00  0.00    -0.299 N 
ATOM      2  C   UNL     1       1.083  -1.773  -1.378  0.00  0.00    +0.307 C 
ATOM      3  O   UNL     1       0.610  -2.529  -0.551  0.00  0.00    -0.252 OA
ATOM      4  N   UNL     1       1.519  -2.254  -2.559  0.00  0.00    -0.245 N 
ATOM      5  C   UNL     1       2.052  -1.389  -3.526  0.00  0.00    +0.047 A 
ATOM      6  C   UNL     1       1.607  -0.087  -3.649  0.00  0.00    +0.028 A 
ATOM      7  C   UNL     1       2.153   0.740  -4.616  0.00  0.00    +0.047 A 
ATOM      8  C   UNL     1       3.146   0.268  -5.464  0.00  0.00    +0.121 A 
ATOM      9  C   UNL     1       3.600  -1.037  -5.349  0.00  0.00    +0.056 A 
ATOM     10  C   UNL     1       3.056  -1.870  -4.380  0.00  0.00    +0.009 A 
ATOM     11  C   UNL     1       3.518  -3.269  -4.219  0.00  0.00    +0.017 C 
ATOM     12  C   UNL     1       4.713  -3.697  -4.810  0.00  0.00    +0.059 C 
ATOM     13  S   UNL     1       5.381  -5.340  -4.919  0.00  0.00    -0.073 S 
ATOM     14  C   UNL     1       6.905  -5.171  -5.786  0.00  0.00    +0.118 C 
ATOM     15  C   UNL     1       7.186  -3.892  -6.143  0.00  0.00    +0.118 C 
ATOM     16  S   UNL     1       5.950  -2.738  -5.652  0.00  0.00    -0.073 S 
ATOM     17  C   UNL     1       2.739  -4.156  -3.466  0.00  0.00    +0.029 C 
ATOM     18  S   UNL     1       3.259  -5.771  -3.242  0.00  0.00    -0.054 S 
ATOM     19  C   UNL     1       1.449  -3.691  -2.849  0.00  0.00    +0.070 C 
ATOM     20  C   UNL     1       1.201  -4.460  -1.550  0.00  0.00    +0.037 C 
ATOM     21  C   UNL     1       0.300  -3.957  -3.823  0.00  0.00    +0.037 C 
ATOM     22  H   UNL     1       1.626   0.136  -1.734  0.00  0.00    +0.150 HD
ENDROOT
BRANCH   1  24
ATOM     23  C   UNL     1       0.817   1.598   0.168  0.00  0.00    +0.024 C 
ATOM     24  C   UNL     1       0.578   0.088   0.112  0.00  0.00    +0.102 C 
ENDBRANCH   1  24
BRANCH  15  25
ATOM     25  C   UNL     1       8.405  -3.507  -6.875  0.00  0.00    +0.347 C 
ATOM     26  O   UNL     1       8.380  -3.406  -8.086  0.00  0.00    -0.244 OA
BRANCH  25  27
ATOM     27  O   UNL     1       9.549  -3.268  -6.202  0.00  0.00    -0.464 OA
ATOM     28  C   UNL     1      10.692  -2.899  -6.977  0.00  0.00    +0.280 C 
ENDBRANCH  25  27
ENDBRANCH  15  25
BRANCH  14  29
ATOM     29  C   UNL     1       7.789  -6.309  -6.093  0.00  0.00    +0.347 C 
ATOM     30  O   UNL     1       8.780  -6.141  -6.776  0.00  0.00    -0.244 OA
BRANCH  29  31
ATOM     31  O   UNL     1       7.499  -7.536  -5.617  0.00  0.00    -0.464 OA
ATOM     32  C   UNL     1       8.400  -8.592  -5.955  0.00  0.00    +0.280 C 
ENDBRANCH  29  31
ENDBRANCH  14  29
BRANCH   8  33
ATOM     33  O   UNL     1       3.674   1.089  -6.411  0.00  0.00    -0.492 OA
BRANCH  33  34
ATOM     34  C   UNL     1       3.159   2.420  -6.476  0.00  0.00    +0.225 C 
ATOM     35  C   UNL     1       3.869   3.188  -7.593  0.00  0.00    +0.048 C 
ENDBRANCH  33  34
ENDBRANCH   8  33
TORSDOF 7
