REMARK  Name = ZINC00695230
REMARK  9 active torsions:
REMARK  status: ('A' for Active; 'I' for Inactive)
REMARK    1  A    between atoms: C_1  and  C_2
REMARK    2  A    between atoms: C_2  and  C_3
REMARK    3  A    between atoms: C_4  and  C_29
REMARK    4  A    between atoms: C_5  and  N_10
REMARK    5  A    between atoms: C_7  and  C_9
REMARK    6  A    between atoms: N_14  and  S_17
REMARK    7  A    between atoms: S_17  and  C_20
REMARK    8  A    between atoms: C_23  and  N_26
REMARK    9  A    between atoms: C_29  and  C_30
REMARK                            x       y       z     vdW  Elec       q    Type
REMARK                         _______ _______ _______ _____ _____    ______ ____
ROOT
ATOM      1  N   UNL     1       1.902   0.486   1.090  0.00  0.00    -0.314 N 
ATOM      2  C   UNL     1       2.278   1.552   0.162  0.00  0.00    +0.108 C 
ATOM      3  C   UNL     1       2.470   2.837   0.936  0.00  0.00    +0.036 C 
ATOM      4  C   UNL     1       3.946   2.981   1.342  0.00  0.00    +0.111 C 
ATOM      5  N   UNL     1       4.514   1.686   1.766  0.00  0.00    -0.175 NA
ATOM      6  C   UNL     1       3.785   0.751   2.599  0.00  0.00    +0.128 C 
ATOM      7  C   UNL     1       2.965  -0.213   1.707  0.00  0.00    +0.123 C 
ENDROOT
BRANCH   1  10
ATOM      8  C   UNL     1      -1.208  -1.222   0.190  0.00  0.00    +0.024 A 
ATOM      9  C   UNL     1      -0.354  -0.329   0.808  0.00  0.00    +0.016 A 
ATOM     10  C   UNL     1       1.006  -0.391   0.501  0.00  0.00    +0.128 A 
ATOM     11  N   UNL     1       1.430  -1.311  -0.362  0.00  0.00    -0.219 NA
ATOM     12  C   UNL     1       0.580  -2.143  -0.928  0.00  0.00    +0.106 A 
ATOM     13  N   UNL     1      -0.711  -2.106  -0.663  0.00  0.00    -0.347 N 
ATOM     14  C   UNL     1       1.098  -3.167  -1.905  0.00  0.00    +0.086 C 
ATOM     15  H   UNL     1      -1.378  -2.824  -1.163  0.00  0.00    +0.167 HD
BRANCH   8  17
ATOM     16  C   UNL     1      -3.392  -0.309  -0.547  0.00  0.00    +0.010 C 
ATOM     17  C   UNL     1      -2.686  -1.192   0.483  0.00  0.00    +0.050 C 
ENDBRANCH   8  17
BRANCH   9  18
ATOM     18  C   UNL     1      -0.880   0.692   1.784  0.00  0.00    +0.075 C 
BRANCH  18  19
ATOM     19  C   UNL     1      -0.733   0.166   3.189  0.00  0.00    -0.043 A 
ATOM     20  C   UNL     1      -1.741  -0.594   3.751  0.00  0.00    +0.004 A 
ATOM     21  C   UNL     1      -1.604  -1.081   5.038  0.00  0.00    +0.000 A 
ATOM     22  C   UNL     1      -0.463  -0.799   5.765  0.00  0.00    +0.000 A 
ATOM     23  C   UNL     1       0.543  -0.034   5.205  0.00  0.00    +0.000 A 
ATOM     24  C   UNL     1       0.408   0.448   3.916  0.00  0.00    +0.004 A 
ENDBRANCH  18  19
ENDBRANCH   9  18
ENDBRANCH   1  10
BRANCH   5  25
ATOM     25  S   UNL     1       6.042   1.286   1.270  0.00  0.00    +0.061 S 
ATOM     26  O   UNL     1       6.710   2.508   0.987  0.00  0.00    -0.153 OA
ATOM     27  O   UNL     1       6.542   0.345   2.211  0.00  0.00    -0.153 OA
BRANCH  25  28
ATOM     28  C   UNL     1       5.886   0.431  -0.263  0.00  0.00    +0.106 A 
ATOM     29  C   UNL     1       5.749  -0.945  -0.276  0.00  0.00    +0.031 A 
ATOM     30  C   UNL     1       5.622  -1.615  -1.478  0.00  0.00    +0.034 A 
ATOM     31  C   UNL     1       5.641  -0.911  -2.667  0.00  0.00    +0.126 A 
ATOM     32  C   UNL     1       5.782   0.464  -2.655  0.00  0.00    +0.034 A 
ATOM     33  C   UNL     1       5.905   1.135  -1.452  0.00  0.00    +0.031 A 
BRANCH  31  34
ATOM     34  N   UNL     1       5.510  -1.630  -3.955  0.00  0.00    +0.056 N 
ATOM     35  O   UNL     1       5.527  -1.009  -5.003  0.00  0.00    -0.126 OA
ATOM     36  O   UNL     1       5.385  -2.841  -3.966  0.00  0.00    -0.126 OA
ENDBRANCH  31  34
ENDBRANCH  25  28
ENDBRANCH   5  25
TORSDOF 7
