REMARK  Name = ZINC45944572
REMARK  5 active torsions:
REMARK  status: ('A' for Active; 'I' for Inactive)
REMARK    1  A    between atoms: C_1  and  C_2
REMARK    2  A    between atoms: N_8  and  C_9
REMARK    3  A    between atoms: C_9  and  C_11
REMARK    4  A    between atoms: C_9  and  C_17
REMARK    5  A    between atoms: C_26  and  O_27
REMARK                            x       y       z     vdW  Elec       q    Type
REMARK                         _______ _______ _______ _____ _____    ______ ____
ROOT
ATOM      1  C   UNL     1       0.062  -4.893  -1.120  0.00  0.00    +0.136 C 
ENDROOT
BRANCH   1   2
ATOM      2  C   UNL     1      -0.404  -6.298  -0.833  0.00  0.00    +0.022 A 
ATOM      3  C   UNL     1      -0.451  -6.748   0.483  0.00  0.00    +0.030 A 
ATOM      4  C   UNL     1      -0.868  -8.012   0.776  0.00  0.00    +0.051 A 
ATOM      5  C   UNL     1      -1.257  -8.875  -0.263  0.00  0.00    +0.022 A 
ATOM      6  C   UNL     1      -1.694 -10.187  -0.001  0.00  0.00    +0.013 A 
ATOM      7  C   UNL     1      -2.057 -10.970  -1.060  0.00  0.00    +0.020 A 
ATOM      8  C   UNL     1      -1.987 -10.462  -2.355  0.00  0.00    +0.111 A 
ATOM      9  N   UNL     1      -1.579  -9.239  -2.595  0.00  0.00    -0.251 NA
ATOM     10  C   UNL     1      -1.211  -8.422  -1.604  0.00  0.00    +0.114 A 
ATOM     11  C   UNL     1      -0.778  -7.106  -1.868  0.00  0.00    +0.148 A 
ATOM     12 CL   UNL     1      -0.919  -8.554   2.425  0.00  0.00    -0.083 Cl
BRANCH  11  13
ATOM     13  O   UNL     1      -0.730  -6.646  -3.146  0.00  0.00    -0.504 OA
ATOM     14  H   UNL     1       0.115  -6.804  -3.589  0.00  0.00    +0.292 HD
ENDBRANCH  11  13
ENDBRANCH   1   2
BRANCH   1  22
ATOM     15  C   UNL     1      -0.816   1.517  -0.543  0.00  0.00    +0.045 C 
ATOM     16  C   UNL     1      -0.649   0.024  -0.425  0.00  0.00    -0.034 A 
ATOM     17  C   UNL     1      -0.384  -0.744  -1.552  0.00  0.00    +0.008 A 
ATOM     18  C   UNL     1      -0.238  -2.111  -1.399  0.00  0.00    +0.042 A 
ATOM     19  C   UNL     1      -0.362  -2.667  -0.130  0.00  0.00    +0.097 A 
ATOM     20  N   UNL     1      -0.616  -1.901   0.919  0.00  0.00    -0.350 N 
ATOM     21  C   UNL     1      -0.754  -0.594   0.805  0.00  0.00    +0.087 A 
ATOM     22  N   UNL     1      -0.218  -4.040   0.037  0.00  0.00    -0.320 N 
ATOM     23  H   UNL     1      -0.304  -4.432   0.920  0.00  0.00    +0.148 HD
ATOM     24  H   UNL     1      -0.699  -2.311   1.795  0.00  0.00    +0.167 HD
ENDBRANCH   1  22
BRANCH   1  25
ATOM     25  C   UNL     1       1.545  -4.902  -1.390  0.00  0.00    -0.020 A 
ATOM     26  C   UNL     1       2.456  -4.952  -0.347  0.00  0.00    +0.025 A 
ATOM     27  C   UNL     1       3.808  -4.958  -0.633  0.00  0.00    +0.111 A 
ATOM     28  N   UNL     1       4.234  -4.916  -1.881  0.00  0.00    -0.263 NA
ATOM     29  C   UNL     1       3.396  -4.867  -2.898  0.00  0.00    +0.111 A 
ATOM     30  C   UNL     1       2.030  -4.864  -2.689  0.00  0.00    +0.025 A 
ENDBRANCH   1  25
TORSDOF 4
