REMARK  Name = ZINC41026066
REMARK  10 active torsions:
REMARK  status: ('A' for Active; 'I' for Inactive)
REMARK    1  A    between atoms: C_1  and  C_2
REMARK    2  A    between atoms: C_2  and  N_3
REMARK    3  A    between atoms: N_3  and  C_4
REMARK    4  A    between atoms: N_3  and  C_6
REMARK    5  A    between atoms: C_4  and  C_5
REMARK    6  A    between atoms: C_6  and  C_7
REMARK    7  A    between atoms: C_7  and  N_8
REMARK    8  A    between atoms: N_15  and  C_18
REMARK    9  A    between atoms: N_24  and  C_25
REMARK   10  A    between atoms: C_28  and  C_31
REMARK                            x       y       z     vdW  Elec       q    Type
REMARK                         _______ _______ _______ _____ _____    ______ ____
ROOT
ATOM      1  N   UNL     1      -4.369  -2.643   1.951  0.00  0.00    -0.315 N 
ATOM      2  C   UNL     1      -5.222  -3.569   1.377  0.00  0.00    +0.219 A 
ATOM      3  N   UNL     1      -6.079  -3.159   0.449  0.00  0.00    -0.199 NA
ATOM      4  C   UNL     1      -6.918  -4.007  -0.133  0.00  0.00    +0.139 A 
ATOM      5  C   UNL     1      -6.882  -5.361   0.256  0.00  0.00    +0.079 A 
ATOM      6  C   UNL     1      -7.594  -6.520  -0.123  0.00  0.00    +0.148 A 
ATOM      7  N   UNL     1      -7.145  -7.527   0.571  0.00  0.00    -0.172 NA
ATOM      8  N   UNL     1      -6.128  -7.092   1.431  0.00  0.00    -0.214 N 
ATOM      9  C   UNL     1      -5.957  -5.750   1.244  0.00  0.00    +0.170 A 
ATOM     10  N   UNL     1      -5.150  -4.830   1.768  0.00  0.00    -0.195 NA
ATOM     11  N   UNL     1      -7.808  -3.572  -1.098  0.00  0.00    -0.299 N 
ATOM     12  H   UNL     1      -3.684  -2.935   2.573  0.00  0.00    +0.149 HD
ATOM     13  H   UNL     1      -8.473  -4.181  -1.454  0.00  0.00    +0.154 HD
ENDROOT
BRANCH   8  14
ATOM     14  C   UNL     1      -5.412  -7.895   2.328  0.00  0.00    +0.068 A 
ATOM     15  C   UNL     1      -4.072  -7.632   2.579  0.00  0.00    +0.028 A 
ATOM     16  C   UNL     1      -3.369  -8.425   3.464  0.00  0.00    +0.002 A 
ATOM     17  C   UNL     1      -3.998  -9.479   4.101  0.00  0.00    +0.000 A 
ATOM     18  C   UNL     1      -5.332  -9.743   3.853  0.00  0.00    +0.002 A 
ATOM     19  C   UNL     1      -6.043  -8.951   2.973  0.00  0.00    +0.028 A 
ENDBRANCH   8  14
BRANCH  11  20
ATOM     20  C   UNL     1      -7.748  -2.260  -1.558  0.00  0.00    +0.032 A 
ATOM     21  C   UNL     1      -6.520  -1.611  -1.650  0.00  0.00    +0.024 A 
ATOM     22  C   UNL     1      -6.458  -0.313  -2.105  0.00  0.00    +0.015 A 
ATOM     23  C   UNL     1      -7.629   0.353  -2.476  0.00  0.00    +0.037 A 
ATOM     24  C   UNL     1      -8.861  -0.302  -2.383  0.00  0.00    +0.015 A 
ATOM     25  C   UNL     1      -8.916  -1.601  -1.932  0.00  0.00    +0.024 A 
BRANCH  23  26
ATOM     26  C   UNL     1      -7.566   1.744  -2.964  0.00  0.00    +0.242 C 
ATOM     27  O   UNL     1      -6.494   2.312  -3.044  0.00  0.00    -0.270 OA
ATOM     28  N   UNL     1      -8.697   2.385  -3.321  0.00  0.00    -0.325 N 
ATOM     29  H   UNL     1      -9.552   1.931  -3.257  0.00  0.00    +0.145 HD
ATOM     30  H   UNL     1      -8.655   3.299  -3.642  0.00  0.00    +0.145 HD
ENDBRANCH  23  26
ENDBRANCH  11  20
BRANCH   1  31
ATOM     31  C   UNL     1      -4.500  -1.222   1.620  0.00  0.00    +0.086 C 
BRANCH  31  32
ATOM     32  C   UNL     1      -3.376  -0.435   2.296  0.00  0.00    -0.060 C 
BRANCH  32  33
ATOM     33  N   UNL     1      -3.436   0.970   1.870  0.00  0.00    +0.380 N 
ATOM     34  H   UNL     1      -3.401   1.018   0.863  0.00  0.00    -0.082 HD
BRANCH  33  36
ATOM     35  C   UNL     1      -4.811   2.995   1.796  0.00  0.00    -0.017 C 
ATOM     36  C   UNL     1      -4.689   1.572   2.345  0.00  0.00    -0.082 C 
ENDBRANCH  33  36
BRANCH  33  37
ATOM     37  C   UNL     1      -2.296   1.703   2.436  0.00  0.00    -0.082 C 
ATOM     38  C   UNL     1      -0.996   1.175   1.825  0.00  0.00    -0.017 C 
ENDBRANCH  33  37
ENDBRANCH  32  33
ENDBRANCH  31  32
ENDBRANCH   1  31
TORSDOF 8
