REMARK  Name = ZINC03765038
REMARK  6 active torsions:
REMARK  status: ('A' for Active; 'I' for Inactive)
REMARK    1  A    between atoms: C_3  and  N_23
REMARK    2  A    between atoms: C_6  and  C_7
REMARK    3  A    between atoms: C_7  and  O_8
REMARK    4  A    between atoms: O_8  and  C_9
REMARK    5  A    between atoms: C_10  and  C_17
REMARK    6  A    between atoms: N_18  and  N_19
REMARK                            x       y       z     vdW  Elec       q    Type
REMARK                         _______ _______ _______ _____ _____    ______ ____
ROOT
ATOM      1  C   UNL     1      -3.000  -1.495  -1.448  0.00  0.00    +0.144 A 
ATOM      2  C   UNL     1      -3.108  -2.890  -1.516  0.00  0.00    +0.039 A 
ATOM      3  C   UNL     1      -4.363  -3.479  -1.684  0.00  0.00    +0.028 A 
ATOM      4  C   UNL     1      -5.488  -2.685  -1.783  0.00  0.00    +0.020 A 
ATOM      5  C   UNL     1      -5.377  -1.306  -1.717  0.00  0.00    +0.034 A 
ATOM      6  C   UNL     1      -4.139  -0.712  -1.544  0.00  0.00    +0.061 A 
ATOM      7 BR   UNL     1      -4.002   1.171  -1.446  0.00  0.00    -0.046 Br
ATOM      8 BR   UNL     1      -7.187  -3.482  -2.012  0.00  0.00    -0.050 Br
ENDROOT
BRANCH   2   9
ATOM      9  C   UNL     1      -1.903  -3.733  -1.409  0.00  0.00    +0.144 C 
ATOM     10  N   UNL     1      -2.017  -5.025  -1.365  0.00  0.00    -0.179 NA
BRANCH  10  11
ATOM     11  N   UNL     1      -0.882  -5.821  -1.158  0.00  0.00    -0.249 N 
ATOM     12  C   UNL     1      -0.984  -7.186  -1.214  0.00  0.00    +0.187 C 
ATOM     13  N   UNL     1       0.069  -7.945  -0.914  0.00  0.00    -0.370 N 
ATOM     14  N   UNL     1      -2.136  -7.754  -1.569  0.00  0.00    -0.370 N 
ATOM     15  H   UNL     1      -0.025  -5.406  -0.975  0.00  0.00    +0.192 HD
ATOM     16  H   UNL     1      -0.003  -8.912  -0.954  0.00  0.00    +0.159 HD
ATOM     17  H   UNL     1      -2.880  -7.203  -1.860  0.00  0.00    +0.159 HD
ATOM     18  H   UNL     1      -2.231  -8.719  -1.536  0.00  0.00    +0.159 HD
ATOM     19  H   UNL     1       0.907  -7.532  -0.656  0.00  0.00    +0.159 HD
ENDBRANCH  10  11
ENDBRANCH   2   9
BRANCH   1  20
ATOM     20  O   UNL     1      -1.784  -0.912  -1.285  0.00  0.00    -0.486 OA
BRANCH  20  21
ATOM     21  C   UNL     1      -1.310  -0.766   0.055  0.00  0.00    +0.264 C 
BRANCH  21  27
ATOM     22  C   UNL     1      -0.029   1.384   0.048  0.00  0.00    +0.009 A 
ATOM     23  C   UNL     1       1.161   2.089   0.042  0.00  0.00    +0.033 A 
ATOM     24  C   UNL     1       2.365   1.411   0.036  0.00  0.00    +0.126 A 
ATOM     25  C   UNL     1       2.381   0.029   0.037  0.00  0.00    +0.033 A 
ATOM     26  C   UNL     1       1.192  -0.676   0.044  0.00  0.00    +0.009 A 
ATOM     27  C   UNL     1      -0.013   0.002   0.048  0.00  0.00    -0.010 A 
BRANCH  24  28
ATOM     28  N   UNL     1       3.639   2.166   0.028  0.00  0.00    +0.056 N 
ATOM     29  O   UNL     1       3.625   3.374   0.027  0.00  0.00    -0.126 OA
ATOM     30  O   UNL     1       4.693   1.573   0.023  0.00  0.00    -0.126 OA
ENDBRANCH  24  28
ENDBRANCH  21  27
ENDBRANCH  20  21
ENDBRANCH   1  20
TORSDOF 6
