REMARK  Name = ZINC34786233
REMARK  11 active torsions:
REMARK  status: ('A' for Active; 'I' for Inactive)
REMARK    1  A    between atoms: C_1  and  C_2
REMARK    2  A    between atoms: C_2  and  C_3
REMARK    3  A    between atoms: C_4  and  C_36
REMARK    4  A    between atoms: C_6  and  N_13
REMARK    5  A    between atoms: C_7  and  C_8
REMARK    6  A    between atoms: C_8  and  O_10
REMARK    7  A    between atoms: O_10  and  C_11
REMARK    8  A    between atoms: C_11  and  C_12
REMARK    9  A    between atoms: N_19  and  C_22
REMARK   10  A    between atoms: C_22  and  C_23
REMARK   11  A    between atoms: N_25  and  C_26
REMARK                            x       y       z     vdW  Elec       q    Type
REMARK                         _______ _______ _______ _____ _____    ______ ____
ROOT
ATOM      1  N   UNL     1      -5.893  -2.201  -0.464  0.00  0.00    -0.263 N 
ATOM      2  C   UNL     1      -5.550  -2.068  -1.761  0.00  0.00    +0.307 C 
ATOM      3  O   UNL     1      -4.480  -1.575  -2.059  0.00  0.00    -0.252 OA
ATOM      4  N   UNL     1      -6.394  -2.482  -2.727  0.00  0.00    -0.289 N 
ATOM      5  C   UNL     1      -5.993  -2.460  -4.142  0.00  0.00    +0.091 C 
ATOM      6  C   UNL     1      -7.089  -1.752  -4.946  0.00  0.00    -0.059 C 
ATOM      7  N   UNL     1      -8.380  -2.403  -4.691  0.00  0.00    +0.387 N 
ATOM      8  C   UNL     1      -8.755  -2.238  -3.281  0.00  0.00    -0.059 C 
ATOM      9  C   UNL     1      -7.740  -2.976  -2.395  0.00  0.00    +0.091 C 
ATOM     10  H   UNL     1      -6.775  -2.527  -0.226  0.00  0.00    +0.157 HD
ATOM     11  H   UNL     1      -8.307  -3.387  -4.906  0.00  0.00    -0.081 HD
ENDROOT
BRANCH   1  15
ATOM     12  C   UNL     1      -4.039  -1.537   2.722  0.00  0.00    -0.022 A 
ATOM     13  C   UNL     1      -2.944  -1.131   2.054  0.00  0.00    -0.008 A 
ATOM     14  S   UNL     1      -3.419  -1.297   0.347  0.00  0.00    -0.078 S 
ATOM     15  C   UNL     1      -4.984  -1.873   0.530  0.00  0.00    +0.087 A 
ATOM     16  C   UNL     1      -5.158  -1.951   1.905  0.00  0.00    +0.091 A 
ATOM     17  C   UNL     1      -1.631  -0.651   2.617  0.00  0.00    +0.052 C 
BRANCH  12  19
ATOM     18  C   UNL     1      -3.608  -2.926   4.730  0.00  0.00    +0.009 C 
ATOM     19  C   UNL     1      -4.094  -1.565   4.228  0.00  0.00    +0.033 C 
ENDBRANCH  12  19
BRANCH  16  20
ATOM     20  C   UNL     1      -6.411  -2.422   2.497  0.00  0.00    +0.342 C 
ATOM     21  O   UNL     1      -7.301  -1.631   2.749  0.00  0.00    -0.245 OA
BRANCH  20  22
ATOM     22  O   UNL     1      -6.580  -3.734   2.764  0.00  0.00    -0.461 OA
BRANCH  22  23
ATOM     23  C   UNL     1      -7.827  -4.123   3.342  0.00  0.00    +0.229 C 
ATOM     24  C   UNL     1      -7.833  -5.636   3.571  0.00  0.00    +0.048 C 
ENDBRANCH  22  23
ENDBRANCH  20  22
ENDBRANCH  16  20
ENDBRANCH   1  15
BRANCH   7  25
ATOM     25  C   UNL     1      -9.410  -1.796  -5.545  0.00  0.00    +0.019 C 
BRANCH  25  26
ATOM     26  C   UNL     1     -10.707  -2.543  -5.376  0.00  0.00    +0.201 C 
ATOM     27  O   UNL     1     -10.768  -3.489  -4.619  0.00  0.00    -0.278 OA
ATOM     28  N   UNL     1     -11.800  -2.160  -6.066  0.00  0.00    -0.287 N 
ATOM     29  H   UNL     1     -11.736  -1.447  -6.720  0.00  0.00    +0.155 HD
BRANCH  28  30
ATOM     30  C   UNL     1     -13.025  -2.791  -5.839  0.00  0.00    +0.041 A 
ATOM     31  C   UNL     1     -13.070  -4.135  -5.539  0.00  0.00    +0.024 A 
ATOM     32  C   UNL     1     -14.286  -4.774  -5.311  0.00  0.00    +0.002 A 
ATOM     33  C   UNL     1     -15.461  -4.090  -5.377  0.00  0.00    +0.008 A 
ATOM     34  C   UNL     1     -15.459  -2.718  -5.679  0.00  0.00    -0.016 A 
ATOM     35  C   UNL     1     -14.228  -2.056  -5.909  0.00  0.00    +0.003 A 
ATOM     36  C   UNL     1     -14.227  -0.684  -6.206  0.00  0.00    +0.010 A 
ATOM     37  C   UNL     1     -15.406  -0.007  -6.265  0.00  0.00    +0.001 A 
ATOM     38  C   UNL     1     -16.618  -0.655  -6.035  0.00  0.00    +0.001 A 
ATOM     39  C   UNL     1     -16.658  -1.987  -5.755  0.00  0.00    +0.008 A 
ENDBRANCH  28  30
ENDBRANCH  25  26
ENDBRANCH   7  25
TORSDOF 8
