REMARK  Name = ZINC00078168
REMARK  4 active torsions:
REMARK  status: ('A' for Active; 'I' for Inactive)
REMARK    1  A    between atoms: C_7  and  C_8
REMARK    2  A    between atoms: C_7  and  N_48
REMARK    3  A    between atoms: N_10  and  C_11
REMARK    4  A    between atoms: C_12  and  C_20
REMARK                            x       y       z     vdW  Elec       q    Type
REMARK                         _______ _______ _______ _____ _____    ______ ____
ROOT
ATOM      1  C   UNL     1      -3.722   0.632   4.833  0.00  0.00    +0.084 A 
ATOM      2  C   UNL     1      -4.745   0.043   5.563  0.00  0.00    +0.068 A 
ATOM      3  C   UNL     1      -5.016   0.574   6.888  0.00  0.00    -0.023 A 
ATOM      4  C   UNL     1      -4.233   1.609   7.264  0.00  0.00    -0.004 A 
ATOM      5  S   UNL     1      -3.146   1.876   5.893  0.00  0.00    -0.077 S 
ATOM      6  C   UNL     1      -4.285   2.357   8.561  0.00  0.00    +0.043 C 
ATOM      7  C   UNL     1      -5.611   2.020   9.260  0.00  0.00    +0.005 C 
ATOM      8  C   UNL     1      -5.807   0.501   9.240  0.00  0.00    +0.005 C 
ATOM      9  C   UNL     1      -6.099   0.034   7.813  0.00  0.00    +0.037 C 
ENDROOT
BRANCH   2  10
ATOM     10  C   UNL     1      -5.520  -1.076   5.020  0.00  0.00    +0.244 C 
ATOM     11  O   UNL     1      -5.153  -2.221   5.211  0.00  0.00    -0.270 OA
ATOM     12  N   UNL     1      -6.639  -0.838   4.308  0.00  0.00    -0.325 N 
ATOM     13  H   UNL     1      -6.932   0.074   4.155  0.00  0.00    +0.145 HD
ATOM     14  H   UNL     1      -7.152  -1.578   3.948  0.00  0.00    +0.145 HD
ENDBRANCH   2  10
BRANCH   1  17
ATOM     15  C   UNL     1      -2.262   1.003   3.006  0.00  0.00    +0.201 C 
ATOM     16  O   UNL     1      -1.742   1.912   3.618  0.00  0.00    -0.278 OA
ATOM     17  N   UNL     1      -3.274   0.308   3.562  0.00  0.00    -0.281 N 
ATOM     18  H   UNL     1      -3.689  -0.419   3.072  0.00  0.00    +0.155 HD
BRANCH  15  19
ATOM     19  C   UNL     1      -1.775   0.650   1.624  0.00  0.00    +0.019 C 
BRANCH  19  26
ATOM     20  C   UNL     1      -0.471   4.027  -0.910  0.00  0.00    -0.002 C 
ATOM     21  C   UNL     1      -0.035   2.878  -1.696  0.00  0.00    -0.002 C 
ATOM     22  C   UNL     1      -0.709   1.568  -1.236  0.00  0.00    -0.019 C 
ATOM     23  C   UNL     1      -0.013   1.086   0.008  0.00  0.00    -0.078 C 
ATOM     24  C   UNL     1      -1.122   2.957   1.223  0.00  0.00    -0.078 C 
ATOM     25  C   UNL     1      -0.118   3.878   0.585  0.00  0.00    -0.019 C 
ATOM     26  N   UNL     1      -0.645   1.534   1.295  0.00  0.00    +0.385 N 
ATOM     27  H   UNL     1       0.057   1.466   2.042  0.00  0.00    -0.081 HD
ENDBRANCH  19  26
ENDBRANCH  15  19
ENDBRANCH   1  17
TORSDOF 4
