REMARK  Name = ZINC08934624
REMARK  13 active torsions:
REMARK  status: ('A' for Active; 'I' for Inactive)
REMARK    1  A    between atoms: C_1  and  C_2
REMARK    2  A    between atoms: C_2  and  O_3
REMARK    3  A    between atoms: O_3  and  C_4
REMARK    4  A    between atoms: C_4  and  C_6
REMARK    5  A    between atoms: C_7  and  C_22
REMARK    6  A    between atoms: N_8  and  C_21
REMARK    7  A    between atoms: C_11  and  C_17
REMARK    8  A    between atoms: C_12  and  O_16
REMARK    9  A    between atoms: C_17  and  N_18
REMARK   10  A    between atoms: N_18  and  C_19
REMARK   11  A    between atoms: N_18  and  C_20
REMARK   12  A    between atoms: C_22  and  S_23
REMARK   13  A    between atoms: S_23  and  C_24
REMARK                            x       y       z     vdW  Elec       q    Type
REMARK                         _______ _______ _______ _____ _____    ______ ____
ROOT
ATOM      1  C   UNL     1       1.347  -2.154  -2.326  0.00  0.00    +0.088 A 
ATOM      2  C   UNL     1       2.704  -2.283  -2.396  0.00  0.00    +0.044 A 
ATOM      3  N   UNL     1       3.056  -2.770  -3.609  0.00  0.00    -0.345 N 
ATOM      4  C   UNL     1       1.935  -2.981  -4.388  0.00  0.00    +0.051 A 
ATOM      5  C   UNL     1       0.817  -2.613  -3.624  0.00  0.00    +0.019 A 
ATOM      6  C   UNL     1      -0.464  -2.727  -4.158  0.00  0.00    -0.011 A 
ATOM      7  C   UNL     1      -0.628  -3.207  -5.444  0.00  0.00    +0.133 A 
ATOM      8  C   UNL     1       0.481  -3.575  -6.200  0.00  0.00    +0.061 A 
ATOM      9  C   UNL     1       1.753  -3.458  -5.682  0.00  0.00    +0.045 A 
ATOM     10 BR   UNL     1       0.242  -4.232  -7.957  0.00  0.00    -0.046 Br
ATOM     11  C   UNL     1       4.433  -3.035  -4.035  0.00  0.00    +0.149 C 
ENDROOT
BRANCH   1  12
ATOM     12  C   UNL     1       0.569  -1.661  -1.184  0.00  0.00    +0.342 C 
ATOM     13  O   UNL     1       0.114  -2.446  -0.375  0.00  0.00    -0.245 OA
BRANCH  12  14
ATOM     14  O   UNL     1       0.359  -0.338  -1.032  0.00  0.00    -0.461 OA
BRANCH  14  16
ATOM     15  C   UNL     1      -0.538   1.595   0.107  0.00  0.00    +0.048 C 
ATOM     16  C   UNL     1      -0.407   0.071   0.103  0.00  0.00    +0.229 C 
ENDBRANCH  14  16
ENDBRANCH  12  14
ENDBRANCH   1  12
BRANCH   7  17
ATOM     17  O   UNL     1      -1.876  -3.320  -5.971  0.00  0.00    -0.505 OA
ATOM     18  H   UNL     1      -2.179  -2.530  -6.439  0.00  0.00    +0.292 HD
ENDBRANCH   7  17
BRANCH   6  19
ATOM     19  C   UNL     1      -1.665  -2.329  -3.339  0.00  0.00    -0.039 C 
BRANCH  19  20
ATOM     20  N   UNL     1      -2.046  -3.439  -2.457  0.00  0.00    +0.379 N 
ATOM     21  C   UNL     1      -3.125  -3.005  -1.560  0.00  0.00    -0.096 C 
ATOM     22  C   UNL     1      -2.510  -4.573  -3.268  0.00  0.00    -0.096 C 
ATOM     23  H   UNL     1      -1.247  -3.723  -1.909  0.00  0.00    -0.082 HD
ENDBRANCH  19  20
ENDBRANCH   6  19
BRANCH   2  24
ATOM     24  C   UNL     1       3.666  -1.934  -1.289  0.00  0.00    +0.128 C 
BRANCH  24  25
ATOM     25  S   UNL     1       4.172  -0.200  -1.451  0.00  0.00    -0.118 S 
BRANCH  25  26
ATOM     26  C   UNL     1       5.279   0.049  -0.103  0.00  0.00    +0.015 A 
ATOM     27  C   UNL     1       5.875   1.283   0.102  0.00  0.00    +0.022 A 
ATOM     28  C   UNL     1       6.722   1.438   1.149  0.00  0.00    +0.046 A 
ATOM     29  S   UNL     1       6.701  -0.186   1.888  0.00  0.00    -0.104 S 
ATOM     30  C   UNL     1       5.561  -0.966   0.757  0.00  0.00    +0.060 A 
ENDBRANCH  25  26
ENDBRANCH  24  25
ENDBRANCH   2  24
TORSDOF 9
