REMARK  Name = ZINC19219210
REMARK  9 active torsions:
REMARK  status: ('A' for Active; 'I' for Inactive)
REMARK    1  A    between atoms: C_1  and  C_2
REMARK    2  A    between atoms: C_8  and  O_35
REMARK    3  A    between atoms: N_15  and  C_18
REMARK    4  A    between atoms: C_18  and  C_19
REMARK    5  A    between atoms: C_19  and  C_21
REMARK    6  A    between atoms: C_19  and  O_34
REMARK    7  A    between atoms: C_22  and  C_33
REMARK    8  A    between atoms: C_28  and  O_31
REMARK    9  A    between atoms: O_31  and  C_32
REMARK                            x       y       z     vdW  Elec       q    Type
REMARK                         _______ _______ _______ _____ _____    ______ ____
ROOT
ATOM      1  C   UNL     1       3.761   9.216  -5.686  0.00  0.00    +0.044 C 
ATOM      2  C   UNL     1       3.713   7.734  -5.414  0.00  0.00    -0.050 A 
ATOM      3  C   UNL     1       4.688   7.143  -4.631  0.00  0.00    +0.007 A 
ATOM      4  C   UNL     1       4.643   5.786  -4.383  0.00  0.00    +0.046 A 
ATOM      5  C   UNL     1       3.620   5.010  -4.918  0.00  0.00    +0.127 A 
ATOM      6  C   UNL     1       2.646   5.605  -5.701  0.00  0.00    +0.023 A 
ATOM      7  C   UNL     1       2.696   6.967  -5.947  0.00  0.00    +0.013 A 
ATOM      8  C   UNL     1       1.516   4.802  -6.294  0.00  0.00    +0.152 C 
ATOM      9  C   UNL     1       1.879   3.315  -6.283  0.00  0.00    +0.084 C 
ATOM     10  C   UNL     1       2.402   2.957  -4.888  0.00  0.00    +0.110 C 
ATOM     11  O   UNL     1       3.612   3.677  -4.655  0.00  0.00    -0.485 OA
ATOM     12  C   UNL     1       2.671   1.453  -4.814  0.00  0.00    +0.029 C 
ATOM     13  C   UNL     1       3.129   1.089  -3.400  0.00  0.00    -0.075 C 
ATOM     14  N   UNL     1       2.091   1.470  -2.434  0.00  0.00    +0.382 N 
ATOM     15  C   UNL     1       1.857   2.920  -2.452  0.00  0.00    -0.075 C 
ATOM     16  C   UNL     1       1.359   3.340  -3.837  0.00  0.00    +0.029 C 
ATOM     17  H   UNL     1       1.156   0.976  -2.733  0.00  0.00    -0.082 HD
ENDROOT
BRANCH   8  18
ATOM     18  O   UNL     1       1.288   5.225  -7.640  0.00  0.00    -0.387 OA
ATOM     19  H   UNL     1       0.497   4.751  -8.239  0.00  0.00    +0.210 HD
ENDBRANCH   8  18
BRANCH  14  20
ATOM     20  C   UNL     1       2.436   1.010  -1.082  0.00  0.00    -0.042 C 
BRANCH  20  21
ATOM     21  C   UNL     1       1.386   1.513  -0.089  0.00  0.00    +0.130 C 
BRANCH  21  22
ATOM     22  C   UNL     1       1.734   1.032   1.296  0.00  0.00    +0.007 A 
ATOM     23  C   UNL     1       2.243   1.772   2.294  0.00  0.00    +0.019 A 
ATOM     24  N   UNL     1       2.424   0.995   3.405  0.00  0.00    -0.358 N 
ATOM     25  H   UNL     1       2.829   1.440   4.327  0.00  0.00    +0.166 HD
ATOM     26  C   UNL     1       2.035  -0.301   3.139  0.00  0.00    +0.047 A 
ATOM     27  C   UNL     1       1.586  -0.333   1.807  0.00  0.00    +0.009 A 
ATOM     28  C   UNL     1       1.125  -1.530   1.254  0.00  0.00    +0.056 A 
ATOM     29  C   UNL     1       1.115  -2.676   2.023  0.00  0.00    +0.121 A 
ATOM     30  C   UNL     1       1.560  -2.641   3.342  0.00  0.00    +0.047 A 
ATOM     31  C   UNL     1       2.017  -1.466   3.897  0.00  0.00    +0.030 A 
ATOM     32  C   UNL     1       2.563   3.242   2.204  0.00  0.00    +0.063 C 
BRANCH  29  33
ATOM     33  O   UNL     1       0.667  -3.845   1.491  0.00  0.00    -0.495 OA
ATOM     34  C   UNL     1       0.682  -4.993   2.341  0.00  0.00    +0.277 C 
ENDBRANCH  29  33
ENDBRANCH  21  22
BRANCH  21  35
ATOM     35  O   UNL     1       0.101   1.011  -0.459  0.00  0.00    -0.389 OA
ATOM     36  H   UNL     1      -0.784   1.269   0.141  0.00  0.00    +0.210 HD
ENDBRANCH  21  35
ENDBRANCH  20  21
ENDBRANCH  14  20
TORSDOF 6
