REMARK  Name = ZINC67466160
REMARK  8 active torsions:
REMARK  status: ('A' for Active; 'I' for Inactive)
REMARK    1  A    between atoms: C_1  and  O_2
REMARK    2  A    between atoms: O_2  and  C_3
REMARK    3  A    between atoms: C_7  and  C_10
REMARK    4  A    between atoms: C_8  and  O_9
REMARK    5  A    between atoms: N_12  and  N_13
REMARK    6  A    between atoms: C_14  and  C_16
REMARK    7  A    between atoms: C_18  and  S_21
REMARK    8  A    between atoms: S_21  and  N_24
REMARK                            x       y       z     vdW  Elec       q    Type
REMARK                         _______ _______ _______ _____ _____    ______ ____
ROOT
ATOM      1  N   UNL     1       1.996  -6.066  -3.452  0.00  0.00    -0.230 N 
ATOM      2  C   UNL     1       2.596  -6.653  -4.506  0.00  0.00    +0.261 C 
ATOM      3  O   UNL     1       3.090  -5.970  -5.383  0.00  0.00    -0.269 OA
ATOM      4  H   UNL     1       1.602  -6.611  -2.753  0.00  0.00    +0.173 HD
ENDROOT
BRANCH   2   5
ATOM      5  C   UNL     1       2.655  -8.121  -4.596  0.00  0.00    +0.047 A 
ATOM      6  C   UNL     1       3.295  -8.785  -5.706  0.00  0.00    +0.049 A 
ATOM      7  C   UNL     1       3.281 -10.133  -5.669  0.00  0.00    +0.143 A 
ATOM      8  S   UNL     1       2.415 -10.486  -4.155  0.00  0.00    -0.076 S 
ATOM      9  C   UNL     1       2.108  -8.925  -3.621  0.00  0.00    +0.060 A 
BRANCH   7  10
ATOM     10  S   UNL     1       3.955 -11.267  -6.836  0.00  0.00    +0.062 S 
ATOM     11  O   UNL     1       3.237 -12.484  -6.681  0.00  0.00    -0.153 OA
ATOM     12  O   UNL     1       4.027 -10.579  -8.077  0.00  0.00    -0.153 OA
BRANCH  10  13
ATOM     13  N   UNL     1       5.515 -11.576  -6.375  0.00  0.00    -0.203 NA
ATOM     14  H   UNL     1       5.881 -11.148  -5.584  0.00  0.00    +0.144 HD
ATOM     15  H   UNL     1       6.064 -12.184  -6.894  0.00  0.00    +0.144 HD
ENDBRANCH  10  13
ENDBRANCH   7  10
ENDBRANCH   2   5
BRANCH   1  18
ATOM     16  C   UNL     1       1.339  -4.081  -2.313  0.00  0.00    +0.264 C 
ATOM     17  O   UNL     1       0.845  -4.764  -1.437  0.00  0.00    -0.269 OA
ATOM     18  N   UNL     1       1.940  -4.669  -3.367  0.00  0.00    -0.230 N 
ATOM     19  H   UNL     1       2.333  -4.124  -4.066  0.00  0.00    +0.173 HD
BRANCH  16  24
ATOM     20  C   UNL     1       0.606  -0.608  -1.056  0.00  0.00    +0.162 A 
ATOM     21  C   UNL     1       1.172   0.160  -2.061  0.00  0.00    +0.049 A 
ATOM     22  C   UNL     1       1.788  -0.448  -3.142  0.00  0.00    +0.005 A 
ATOM     23  C   UNL     1       1.846  -1.821  -3.229  0.00  0.00    +0.017 A 
ATOM     24  C   UNL     1       1.280  -2.610  -2.224  0.00  0.00    +0.083 A 
ATOM     25  C   UNL     1       0.661  -1.996  -1.128  0.00  0.00    +0.171 A 
BRANCH  20  27
ATOM     26  C   UNL     1      -0.017   1.425   0.010  0.00  0.00    +0.277 C 
ATOM     27  O   UNL     1       0.002  -0.004   0.002  0.00  0.00    -0.491 OA
ENDBRANCH  20  27
BRANCH  25  28
ATOM     28  O   UNL     1       0.113  -2.752  -0.142  0.00  0.00    -0.503 OA
ATOM     29  H   UNL     1      -0.815  -2.979  -0.291  0.00  0.00    +0.292 HD
ENDBRANCH  25  28
ENDBRANCH  16  24
ENDBRANCH   1  18
TORSDOF 7
