REMARK  Name = ZINC48893928
REMARK  5 active torsions:
REMARK  status: ('A' for Active; 'I' for Inactive)
REMARK    1  A    between atoms: C_1  and  C_2
REMARK    2  A    between atoms: C_4  and  N_9
REMARK    3  A    between atoms: N_9  and  C_10
REMARK    4  A    between atoms: C_10  and  C_11
REMARK    5  A    between atoms: C_11  and  C_12
REMARK                            x       y       z     vdW  Elec       q    Type
REMARK                         _______ _______ _______ _____ _____    ______ ____
ROOT
ATOM      1  N   UNL     1       0.030  -2.826  -2.330  0.00  0.00    -0.329 N 
ATOM      2  H   UNL     1       0.043  -3.795  -2.296  0.00  0.00    +0.147 HD
ENDROOT
BRANCH   1   6
ATOM      3  C   UNL     1      -0.018   1.503   0.010  0.00  0.00    +0.063 C 
ATOM      4  C   UNL     1       0.002  -0.004   0.002  0.00  0.00    +0.019 A 
ATOM      5  C   UNL     1       0.006  -0.696  -1.194  0.00  0.00    +0.064 A 
ATOM      6  C   UNL     1       0.026  -2.091  -1.156  0.00  0.00    +0.124 A 
ATOM      7  N   UNL     1       0.040  -2.705   0.023  0.00  0.00    -0.201 NA
ATOM      8  C   UNL     1       0.035  -2.005   1.148  0.00  0.00    +0.192 A 
ATOM      9  N   UNL     1       0.022  -0.680   1.141  0.00  0.00    -0.332 N 
ATOM     10  N   UNL     1       0.051  -2.674   2.359  0.00  0.00    -0.329 N 
ATOM     11  H   UNL     1       0.064  -3.643   2.377  0.00  0.00    +0.145 HD
ATOM     12  H   UNL     1       0.048  -2.173   3.190  0.00  0.00    +0.145 HD
ATOM     13  H   UNL     1       0.023  -0.198   1.983  0.00  0.00    +0.168 HD
ENDBRANCH   1   6
BRANCH   1  14
ATOM     14  C   UNL     1       0.013  -2.139  -3.624  0.00  0.00    +0.107 C 
BRANCH  14  15
ATOM     15  C   UNL     1       0.022  -3.174  -4.751  0.00  0.00    +0.057 C 
BRANCH  15  16
ATOM     16  C   UNL     1       0.005  -2.468  -6.082  0.00  0.00    -0.009 A 
ATOM     17  C   UNL     1      -1.200  -2.155  -6.684  0.00  0.00    +0.046 A 
ATOM     18  C   UNL     1      -1.215  -1.506  -7.906  0.00  0.00    +0.020 A 
ATOM     19  C   UNL     1      -0.025  -1.171  -8.526  0.00  0.00    +0.003 A 
ATOM     20  C   UNL     1       1.179  -1.483  -7.925  0.00  0.00    +0.020 A 
ATOM     21  C   UNL     1       1.195  -2.127  -6.699  0.00  0.00    +0.046 A 
ATOM     22 CL   UNL     1       2.708  -2.512  -5.941  0.00  0.00    -0.083 Cl
ATOM     23 CL   UNL     1      -2.694  -2.577  -5.907  0.00  0.00    -0.083 Cl
ENDBRANCH  15  16
ENDBRANCH  14  15
ENDBRANCH   1  14
TORSDOF 4
