REMARK  Name = ZINC42445281
REMARK  11 active torsions:
REMARK  status: ('A' for Active; 'I' for Inactive)
REMARK    1  A    between atoms: C_1  and  C_2
REMARK    2  A    between atoms: C_2  and  N_3
REMARK    3  A    between atoms: N_3  and  C_4
REMARK    4  A    between atoms: N_3  and  C_14
REMARK    5  A    between atoms: C_4  and  C_5
REMARK    6  A    between atoms: C_8  and  O_12
REMARK    7  A    between atoms: O_12  and  C_13
REMARK    8  A    between atoms: C_14  and  C_15
REMARK    9  A    between atoms: C_15  and  C_17
REMARK   10  A    between atoms: C_15  and  C_18
REMARK   11  A    between atoms: N_19  and  O_20
REMARK                            x       y       z     vdW  Elec       q    Type
REMARK                         _______ _______ _______ _____ _____    ______ ____
ROOT
ATOM      1  N   UNL     1       0.820  -0.469   1.126  0.00  0.00    +0.383 N 
ATOM      2  H   UNL     1       1.671   0.073   1.106  0.00  0.00    -0.081 HD
ENDROOT
BRANCH   1   4
ATOM      3  C   UNL     1      -0.260   1.437   0.032  0.00  0.00    -0.017 C 
ATOM      4  C   UNL     1      -0.036  -0.076  -0.001  0.00  0.00    -0.082 C 
ENDBRANCH   1   4
BRANCH   1   5
ATOM      5  C   UNL     1       0.111  -0.222   2.389  0.00  0.00    -0.043 C 
BRANCH   5   6
ATOM      6  C   UNL     1       1.038  -0.490   3.546  0.00  0.00    -0.063 A 
ATOM      7  C   UNL     1       1.021  -1.723   4.173  0.00  0.00    +0.005 A 
ATOM      8  C   UNL     1       1.869  -1.972   5.234  0.00  0.00    +0.047 A 
ATOM      9  C   UNL     1       2.740  -0.984   5.671  0.00  0.00    +0.134 A 
ATOM     10  C   UNL     1       2.756   0.252   5.040  0.00  0.00    +0.060 A 
ATOM     11  C   UNL     1       1.909   0.494   3.975  0.00  0.00    +0.020 A 
ATOM     12 BR   UNL     1       3.941   1.601   5.633  0.00  0.00    -0.047 Br
BRANCH   9  13
ATOM     13  O   UNL     1       3.575  -1.227   6.716  0.00  0.00    -0.494 OA
ATOM     14  C   UNL     1       3.503  -2.521   7.317  0.00  0.00    +0.277 C 
ENDBRANCH   9  13
ENDBRANCH   5   6
ENDBRANCH   1   5
BRANCH   1  15
ATOM     15  C   UNL     1       1.146  -1.897   1.018  0.00  0.00    -0.068 C 
BRANCH  15  16
ATOM     16  C   UNL     1       1.992  -2.135  -0.234  0.00  0.00    +0.036 C 
ATOM     17  C   UNL     1       3.338  -1.422  -0.084  0.00  0.00    +0.013 C 
BRANCH  16  18
ATOM     18  C   UNL     1       2.223  -3.613  -0.412  0.00  0.00    +0.133 C 
ATOM     19  N   UNL     1       3.302  -4.157   0.045  0.00  0.00    -0.077 NA
ATOM     20  N   UNL     1       1.284  -4.384  -1.060  0.00  0.00    -0.344 N 
ATOM     21  H   UNL     1       0.474  -3.975  -1.403  0.00  0.00    +0.144 HD
ATOM     22  H   UNL     1       1.433  -5.336  -1.175  0.00  0.00    +0.144 HD
BRANCH  19  23
ATOM     23  O   UNL     1       3.520  -5.547  -0.122  0.00  0.00    -0.408 OA
ATOM     24  H   UNL     1       4.354  -5.862   0.252  0.00  0.00    +0.328 HD
ENDBRANCH  19  23
ENDBRANCH  16  18
ENDBRANCH  15  16
ENDBRANCH   1  15
TORSDOF 8
