REMARK  Name = ZINC03158709
REMARK  10 active torsions:
REMARK  status: ('A' for Active; 'I' for Inactive)
REMARK    1  A    between atoms: C_1  and  C_2
REMARK    2  A    between atoms: C_5  and  N_9
REMARK    3  A    between atoms: C_6  and  C_8
REMARK    4  A    between atoms: N_9  and  C_10
REMARK    5  A    between atoms: C_10  and  N_12
REMARK    6  A    between atoms: N_12  and  C_13
REMARK    7  A    between atoms: C_13  and  C_15
REMARK    8  A    between atoms: C_13  and  N_19
REMARK    9  A    between atoms: C_20  and  C_22
REMARK   10  A    between atoms: C_27  and  N_28
REMARK                            x       y       z     vdW  Elec       q    Type
REMARK                         _______ _______ _______ _____ _____    ______ ____
ROOT
ATOM      1  C   UNL     1       3.375  -2.128   0.352  0.00  0.00    +0.211 C 
ENDROOT
BRANCH   1   2
ATOM      2  C   UNL     1       4.520  -2.456  -0.608  0.00  0.00    +0.225 C 
ATOM      3 CL   UNL     1       6.001  -1.557  -0.107  0.00  0.00    -0.080 Cl
ATOM      4 CL   UNL     1       4.851  -4.228  -0.568  0.00  0.00    -0.080 Cl
ATOM      5 CL   UNL     1       4.059  -1.968  -2.282  0.00  0.00    -0.080 Cl
ENDBRANCH   1   2
BRANCH   1   6
ATOM      6  N   UNL     1       3.750  -2.524   1.712  0.00  0.00    -0.289 N 
ATOM      7  C   UNL     1       2.870  -3.189   2.487  0.00  0.00    +0.248 C 
ATOM      8  O   UNL     1       1.766  -3.460   2.058  0.00  0.00    -0.270 OA
ATOM      9  H   UNL     1       4.750  -2.279   2.100  0.00  0.00    +0.151 HD
BRANCH   7  10
ATOM     10  C   UNL     1       3.248  -3.589   3.859  0.00  0.00    +0.067 A 
ATOM     11  C   UNL     1       3.675  -2.627   4.777  0.00  0.00    +0.015 A 
ATOM     12  C   UNL     1       4.021  -3.006   6.057  0.00  0.00    +0.001 A 
ATOM     13  C   UNL     1       3.958  -4.337   6.429  0.00  0.00    +0.002 A 
ATOM     14  C   UNL     1       3.541  -5.296   5.523  0.00  0.00    +0.033 A 
ATOM     15  C   UNL     1       3.187  -4.930   4.241  0.00  0.00    +0.138 A 
BRANCH  15  16
ATOM     16  N   UNL     1       2.741  -5.957   3.272  0.00  0.00    +0.057 N 
ATOM     17  O   UNL     1       2.728  -7.131   3.594  0.00  0.00    -0.126 OA
ATOM     18  O   UNL     1       2.388  -5.627   2.154  0.00  0.00    -0.126 OA
ENDBRANCH  15  16
ENDBRANCH   7  10
ENDBRANCH   1   6
BRANCH   1  19
ATOM     19  N   UNL     1       3.107  -0.689   0.319  0.00  0.00    -0.305 N 
ATOM     20  H   UNL     1       3.941   0.027   0.351  0.00  0.00    +0.150 HD
BRANCH  19  21
ATOM     21  C   UNL     1       1.837  -0.241   0.251  0.00  0.00    +0.136 C 
ATOM     22  S   UNL     1       0.538  -1.355   0.202  0.00  0.00    -0.019 S 
BRANCH  21  23
ATOM     23  N   UNL     1       1.590   1.083   0.220  0.00  0.00    -0.297 N 
ATOM     24  H   UNL     1       2.425   1.798   0.173  0.00  0.00    +0.154 HD
BRANCH  23  29
ATOM     25  C   UNL     1      -3.756   2.977   0.337  0.00  0.00    +0.044 C 
ATOM     26  C   UNL     1      -2.336   2.473   0.306  0.00  0.00    -0.050 A 
ATOM     27  C   UNL     1      -1.985   1.451  -0.556  0.00  0.00    +0.005 A 
ATOM     28  C   UNL     1      -0.685   0.985  -0.584  0.00  0.00    +0.024 A 
ATOM     29  C   UNL     1       0.272   1.550   0.250  0.00  0.00    +0.036 A 
ATOM     30  C   UNL     1      -0.083   2.579   1.111  0.00  0.00    -0.029 A 
ATOM     31  C   UNL     1      -1.386   3.038   1.137  0.00  0.00    +0.008 A 
ATOM     32  C   UNL     1       0.952   3.195   2.017  0.00  0.00    +0.045 C 
ENDBRANCH  23  29
ENDBRANCH  21  23
ENDBRANCH  19  21
ENDBRANCH   1  19
TORSDOF 8
