REMARK  Name = ZINC43213893
REMARK  13 active torsions:
REMARK  status: ('A' for Active; 'I' for Inactive)
REMARK    1  A    between atoms: C_1  and  C_2
REMARK    2  A    between atoms: C_2  and  C_3
REMARK    3  A    between atoms: C_2  and  C_4
REMARK    4  A    between atoms: C_4  and  C_6
REMARK    5  A    between atoms: C_4  and  N_28
REMARK    6  A    between atoms: C_8  and  C_11
REMARK    7  A    between atoms: N_13  and  C_14
REMARK    8  A    between atoms: C_14  and  C_15
REMARK    9  A    between atoms: C_15  and  C_16
REMARK   10  A    between atoms: C_16  and  N_17
REMARK   11  A    between atoms: C_18  and  O_20
REMARK   12  A    between atoms: O_20  and  C_21
REMARK   13  A    between atoms: C_21  and  C_22
REMARK                            x       y       z     vdW  Elec       q    Type
REMARK                         _______ _______ _______ _____ _____    ______ ____
ROOT
ATOM      1  C   UNL     1      -4.491   2.058  -2.958  0.00  0.00    +0.266 C 
ATOM      2  O   UNL     1      -4.792   2.110  -4.135  0.00  0.00    -0.268 OA
ATOM      3  N   UNL     1      -5.078   2.889  -2.075  0.00  0.00    -0.310 N 
ATOM      4  H   UNL     1      -4.838   2.847  -1.136  0.00  0.00    +0.149 HD
ENDROOT
BRANCH   1   7
ATOM      5  C   UNL     1      -2.162  -0.034  -1.208  0.00  0.00    +0.182 A 
ATOM      6  N   UNL     1      -3.050   0.914  -1.219  0.00  0.00    -0.210 NA
ATOM      7  C   UNL     1      -3.483   1.085  -2.497  0.00  0.00    +0.163 A 
ATOM      8  C   UNL     1      -2.812   0.188  -3.270  0.00  0.00    +0.230 A 
ATOM      9  O   UNL     1      -1.993  -0.495  -2.455  0.00  0.00    -0.449 OA
BRANCH   5  10
ATOM     10  C   UNL     1      -1.433  -0.534   0.013  0.00  0.00    +0.015 C 
BRANCH  10  11
ATOM     11  N   UNL     1      -1.413  -2.002   0.005  0.00  0.00    +0.386 N 
ATOM     12  H   UNL     1      -0.941  -2.328  -0.825  0.00  0.00    -0.089 HD
ATOM     13  H   UNL     1      -0.925  -2.337   0.822  0.00  0.00    -0.089 HD
ATOM     14  H   UNL     1      -2.360  -2.352   0.012  0.00  0.00    -0.089 HD
ENDBRANCH  10  11
BRANCH  10  16
ATOM     15  C   UNL     1      -0.019   1.526   0.010  0.00  0.00    +0.006 C 
ATOM     16  C   UNL     1       0.002  -0.004   0.002  0.00  0.00    -0.023 C 
ATOM     17  C   UNL     1       0.742  -0.511   1.242  0.00  0.00    +0.006 C 
ENDBRANCH  10  16
ENDBRANCH   5  10
ENDBRANCH   1   7
BRANCH   3  18
ATOM     18  C   UNL     1      -6.079   3.856  -2.532  0.00  0.00    +0.106 C 
BRANCH  18  19
ATOM     19  C   UNL     1      -6.585   4.670  -1.340  0.00  0.00    +0.037 C 
BRANCH  19  20
ATOM     20  C   UNL     1      -7.630   5.679  -1.818  0.00  0.00    +0.109 C 
BRANCH  20  21
ATOM     21  N   UNL     1      -8.114   6.459  -0.676  0.00  0.00    -0.281 N 
ATOM     22  C   UNL     1      -9.046   7.415  -0.860  0.00  0.00    +0.401 C 
ATOM     23  O   UNL     1      -9.486   7.630  -1.972  0.00  0.00    -0.226 OA
ATOM     24  H   UNL     1      -7.763   6.288   0.212  0.00  0.00    +0.152 HD
BRANCH  22  25
ATOM     25  O   UNL     1      -9.491   8.132   0.190  0.00  0.00    -0.446 OA
BRANCH  25  26
ATOM     26  C   UNL     1     -10.479   9.129  -0.077  0.00  0.00    +0.269 C 
BRANCH  26  27
ATOM     27  C   UNL     1     -10.853   9.823   1.207  0.00  0.00    -0.010 A 
ATOM     28  C   UNL     1     -11.885   9.331   1.984  0.00  0.00    +0.007 A 
ATOM     29  C   UNL     1     -12.227   9.968   3.162  0.00  0.00    +0.000 A 
ATOM     30  C   UNL     1     -11.538  11.097   3.563  0.00  0.00    +0.000 A 
ATOM     31  C   UNL     1     -10.505  11.588   2.787  0.00  0.00    +0.000 A 
ATOM     32  C   UNL     1     -10.160  10.949   1.611  0.00  0.00    +0.007 A 
ENDBRANCH  26  27
ENDBRANCH  25  26
ENDBRANCH  22  25
ENDBRANCH  20  21
ENDBRANCH  19  20
ENDBRANCH  18  19
ENDBRANCH   3  18
TORSDOF 11
