REMARK  Name = ZINC56956198
REMARK  4 active torsions:
REMARK  status: ('A' for Active; 'I' for Inactive)
REMARK    1  A    between atoms: C_1  and  C_2
REMARK    2  A    between atoms: C_15  and  C_20
REMARK    3  A    between atoms: C_17  and  O_19
REMARK    4  A    between atoms: C_20  and  O_21
REMARK                            x       y       z     vdW  Elec       q    Type
REMARK                         _______ _______ _______ _____ _____    ______ ____
ROOT
ATOM      1  C   UNL     1      -0.018   1.503   0.010  0.00  0.00    +0.049 C 
ATOM      2  C   UNL     1       0.002  -0.004   0.002  0.00  0.00    +0.008 A 
ATOM      3  C   UNL     1      -1.142  -0.712   0.004  0.00  0.00    +0.100 A 
ATOM      4  N   UNL     1      -1.107  -2.079  -0.001  0.00  0.00    -0.272 N 
ATOM      5  C   UNL     1       0.103  -2.747  -0.053  0.00  0.00    +0.303 A 
ATOM      6  N   UNL     1       1.237  -2.090  -0.045  0.00  0.00    -0.179 NA
ATOM      7  C   UNL     1       1.272  -0.743  -0.014  0.00  0.00    +0.134 A 
ATOM      8  N   UNL     1       2.425  -0.100   0.007  0.00  0.00    -0.383 N 
ATOM      9  O   UNL     1      -0.096  -4.110  -0.126  0.00  0.00    -0.453 OA
ATOM     10  C   UNL     1      -1.351  -4.240  -0.778  0.00  0.00    +0.257 C 
ATOM     11  C   UNL     1      -2.086  -3.112   0.046  0.00  0.00    +0.267 C 
ATOM     12  O   UNL     1      -3.406  -3.223  -0.320  0.00  0.00    -0.344 OA
ATOM     13  C   UNL     1      -3.679  -4.643  -0.497  0.00  0.00    +0.178 C 
ATOM     14  C   UNL     1      -2.295  -5.391  -0.427  0.00  0.00    +0.190 C 
ATOM     15  H   UNL     1       2.439   0.870   0.033  0.00  0.00    +0.157 HD
ATOM     16  H   UNL     1       3.257  -0.597  -0.004  0.00  0.00    +0.157 HD
ENDROOT
BRANCH  14  17
ATOM     17  O   UNL     1      -2.039  -5.885   0.889  0.00  0.00    -0.385 OA
ATOM     18  H   UNL     1      -2.615  -6.616   1.153  0.00  0.00    +0.210 HD
ENDBRANCH  14  17
BRANCH  13  19
ATOM     19  C   UNL     1      -4.609  -5.139   0.612  0.00  0.00    +0.190 C 
BRANCH  19  20
ATOM     20  O   UNL     1      -5.891  -4.523   0.470  0.00  0.00    -0.392 OA
ATOM     21  H   UNL     1      -6.533  -4.793   1.141  0.00  0.00    +0.210 HD
ENDBRANCH  19  20
ENDBRANCH  13  19
TORSDOF 3
