REMARK  Name = ZINC36913873
REMARK  4 active torsions:
REMARK  status: ('A' for Active; 'I' for Inactive)
REMARK    1  A    between atoms: C_1  and  C_2
REMARK    2  A    between atoms: N_7  and  C_8
REMARK    3  A    between atoms: C_17  and  C_18
REMARK    4  A    between atoms: C_18  and  N_20
REMARK                            x       y       z     vdW  Elec       q    Type
REMARK                         _______ _______ _______ _____ _____    ______ ____
ROOT
ATOM      1  C   UNL     1       0.139  -4.926  -0.112  0.00  0.00    +0.053 A 
ATOM      2  C   UNL     1       0.551  -6.245   0.192  0.00  0.00    +0.020 A 
ATOM      3  C   UNL     1       1.855  -6.516   0.631  0.00  0.00    +0.012 A 
ATOM      4  C   UNL     1       2.218  -7.799   0.915  0.00  0.00    +0.001 A 
ATOM      5  C   UNL     1       1.309  -8.844   0.774  0.00  0.00    +0.002 A 
ATOM      6  C   UNL     1       0.035  -8.614   0.350  0.00  0.00    +0.026 A 
ATOM      7  C   UNL     1      -0.375  -7.305   0.048  0.00  0.00    +0.048 A 
ATOM      8  N   UNL     1      -1.625  -7.058  -0.370  0.00  0.00    -0.360 N 
ATOM      9  C   UNL     1      -2.033  -5.849  -0.658  0.00  0.00    +0.095 A 
ATOM     10  C   UNL     1      -1.184  -4.736  -0.539  0.00  0.00    +0.041 A 
ATOM     11  H   UNL     1      -2.245  -7.798  -0.463  0.00  0.00    +0.165 HD
ENDROOT
BRANCH   1  18
ATOM     12  C   UNL     1       5.404  -2.569  -2.971  0.00  0.00    +0.053 C 
ATOM     13  C   UNL     1       4.188  -3.149  -2.294  0.00  0.00    +0.008 A 
ATOM     14  C   UNL     1       3.552  -4.324  -2.518  0.00  0.00    +0.124 A 
ATOM     15  N   UNL     1       2.496  -4.588  -1.770  0.00  0.00    -0.233 NA
ATOM     16  C   UNL     1       2.087  -3.741  -0.850  0.00  0.00    +0.163 A 
ATOM     17  S   UNL     1       3.195  -2.480  -0.969  0.00  0.00    -0.057 S 
ATOM     18  N   UNL     1       1.008  -3.861   0.014  0.00  0.00    -0.293 N 
ATOM     19  H   UNL     1       0.864  -3.197   0.706  0.00  0.00    +0.154 HD
ENDBRANCH   1  18
BRANCH  10  20
ATOM     20  C   UNL     1      -1.674  -3.388  -0.863  0.00  0.00    +0.080 C 
ATOM     21  S   UNL     1      -0.592  -2.062  -0.867  0.00  0.00    -0.035 S 
BRANCH  20  22
ATOM     22  N   UNL     1      -2.976  -3.197  -1.157  0.00  0.00    -0.352 N 
ATOM     23  H   UNL     1      -3.589  -3.949  -1.155  0.00  0.00    +0.143 HD
ATOM     24  H   UNL     1      -3.299  -2.308  -1.371  0.00  0.00    +0.143 HD
ENDBRANCH  20  22
ENDBRANCH  10  20
TORSDOF 3
