REMARK  Name = ZINC04221817
REMARK  10 active torsions:
REMARK  status: ('A' for Active; 'I' for Inactive)
REMARK    1  A    between atoms: C_3  and  S_6
REMARK    2  A    between atoms: S_6  and  N_9
REMARK    3  A    between atoms: N_9  and  C_10
REMARK    4  A    between atoms: C_13  and  C_21
REMARK    5  A    between atoms: C_15  and  O_20
REMARK    6  A    between atoms: C_17  and  O_19
REMARK    7  A    between atoms: N_23  and  C_24
REMARK    8  A    between atoms: C_24  and  C_25
REMARK    9  A    between atoms: C_25  and  C_26
REMARK   10  A    between atoms: C_26  and  C_27
REMARK                            x       y       z     vdW  Elec       q    Type
REMARK                         _______ _______ _______ _____ _____    ______ ____
ROOT
ATOM      1  C   UNL     1      -2.807   2.135   0.046  0.00  0.00    +0.131 C 
ATOM      2  C   UNL     1      -1.940   2.026   1.266  0.00  0.00    +0.004 C 
ATOM      3  C   UNL     1      -0.710   1.567   1.247  0.00  0.00    +0.014 C 
ATOM      4  C   UNL     1      -0.013   1.086   0.008  0.00  0.00    +0.074 C 
ATOM      5  C   UNL     1      -0.747   1.590  -1.236  0.00  0.00    +0.149 C 
ATOM      6  C   UNL     1      -2.240   1.271  -1.083  0.00  0.00    +0.166 C 
ENDROOT
BRANCH   3   7
ATOM      7  C   UNL     1       0.028   1.523   2.519  0.00  0.00    +0.240 C 
ATOM      8  O   UNL     1      -0.503   1.905   3.544  0.00  0.00    -0.271 OA
ATOM      9  N   UNL     1       1.294   1.060   2.548  0.00  0.00    -0.312 N 
ATOM     10  H   UNL     1       1.718   0.756   1.730  0.00  0.00    +0.149 HD
BRANCH   9  11
ATOM     11  C   UNL     1       2.029   1.017   3.814  0.00  0.00    +0.105 C 
BRANCH  11  12
ATOM     12  C   UNL     1       3.430   0.454   3.571  0.00  0.00    +0.028 C 
BRANCH  12  13
ATOM     13  C   UNL     1       4.198   0.408   4.894  0.00  0.00    +0.097 C 
BRANCH  13  14
ATOM     14  C   UNL     1       5.579  -0.146   4.655  0.00  0.00    +0.211 C 
ATOM     15  O   UNL     1       5.916  -0.472   3.536  0.00  0.00    -0.276 OA
ATOM     16  N   UNL     1       6.439  -0.279   5.684  0.00  0.00    -0.329 N 
ATOM     17  H   UNL     1       6.170  -0.018   6.578  0.00  0.00    +0.145 HD
ATOM     18  H   UNL     1       7.328  -0.635   5.529  0.00  0.00    +0.145 HD
ENDBRANCH  13  14
ENDBRANCH  12  13
ENDBRANCH  11  12
ENDBRANCH   9  11
ENDBRANCH   3   7
BRANCH   1  19
ATOM     19  N   UNL     1      -2.858   3.532  -0.391  0.00  0.00    -0.180 NA
ATOM     20  H   UNL     1      -2.168   3.884  -0.974  0.00  0.00    +0.149 HD
BRANCH  19  21
ATOM     21  S   UNL     1      -4.095   4.512   0.113  0.00  0.00    +0.065 S 
ATOM     22  O   UNL     1      -3.852   5.794  -0.449  0.00  0.00    -0.153 OA
ATOM     23  O   UNL     1      -5.300   3.796  -0.117  0.00  0.00    -0.153 OA
BRANCH  21  26
ATOM     24  C   UNL     1      -3.275   5.566   3.946  0.00  0.00    +0.010 A 
ATOM     25  C   UNL     1      -3.253   5.621   2.565  0.00  0.00    +0.036 A 
ATOM     26  C   UNL     1      -3.941   4.690   1.859  0.00  0.00    +0.142 A 
ATOM     27  S   UNL     1      -4.655   3.696   3.158  0.00  0.00    -0.077 S 
ATOM     28  C   UNL     1      -3.982   4.583   4.553  0.00  0.00    +0.047 A 
ENDBRANCH  21  26
ENDBRANCH  19  21
ENDBRANCH   1  19
BRANCH   6  29
ATOM     29  O   UNL     1      -2.921   1.563  -2.304  0.00  0.00    -0.387 OA
ATOM     30  H   UNL     1      -2.599   1.058  -3.064  0.00  0.00    +0.210 HD
ENDBRANCH   6  29
BRANCH   5  31
ATOM     31  O   UNL     1      -0.230   0.937  -2.397  0.00  0.00    -0.389 OA
ATOM     32  H   UNL     1       0.714   1.087  -2.544  0.00  0.00    +0.210 HD
ENDBRANCH   5  31
TORSDOF 10
