REMARK  Name = ZINC22619899
REMARK  10 active torsions:
REMARK  status: ('A' for Active; 'I' for Inactive)
REMARK    1  A    between atoms: C_1  and  C_2
REMARK    2  A    between atoms: C_7  and  O_8
REMARK    3  A    between atoms: O_8  and  C_9
REMARK    4  A    between atoms: C_9  and  C_10
REMARK    5  A    between atoms: C_13  and  S_21
REMARK    6  A    between atoms: N_14  and  C_15
REMARK    7  A    between atoms: S_21  and  C_22
REMARK    8  A    between atoms: C_22  and  C_24
REMARK    9  A    between atoms: C_22  and  C_25
REMARK   10  A    between atoms: N_30  and  C_31
REMARK                            x       y       z     vdW  Elec       q    Type
REMARK                         _______ _______ _______ _____ _____    ______ ____
ROOT
ATOM      1  C   UNL     1       0.047   0.090   4.775  0.00  0.00    +0.176 A 
ATOM      2  N   UNL     1       1.096   0.575   5.377  0.00  0.00    -0.130 NA
ATOM      3  N   UNL     1       0.737   1.314   6.365  0.00  0.00    -0.122 NA
ATOM      4  C   UNL     1      -0.573   1.343   6.450  0.00  0.00    +0.197 A 
ATOM      5  N   UNL     1      -1.056   0.566   5.433  0.00  0.00    -0.271 N 
ENDROOT
BRANCH   5   6
ATOM      6  C   UNL     1      -2.401   0.307   5.129  0.00  0.00    +0.050 A 
ATOM      7  C   UNL     1      -2.940   0.750   3.929  0.00  0.00    +0.026 A 
ATOM      8  C   UNL     1      -4.265   0.494   3.633  0.00  0.00    +0.002 A 
ATOM      9  C   UNL     1      -5.054  -0.201   4.531  0.00  0.00    +0.000 A 
ATOM     10  C   UNL     1      -4.519  -0.643   5.727  0.00  0.00    +0.002 A 
ATOM     11  C   UNL     1      -3.193  -0.396   6.026  0.00  0.00    +0.026 A 
ENDBRANCH   5   6
BRANCH   1  12
ATOM     12  C   UNL     1       0.048  -0.820   3.574  0.00  0.00    +0.305 C 
BRANCH  12  13
ATOM     13  O   UNL     1       0.025  -0.033   2.381  0.00  0.00    -0.484 OA
BRANCH  13  20
ATOM     14  C   UNL     1      -0.018   1.503   0.010  0.00  0.00    +0.047 C 
ATOM     15  C   UNL     1       0.002  -0.004   0.002  0.00  0.00    -0.009 A 
ATOM     16  C   UNL     1       0.006  -0.689  -1.198  0.00  0.00    +0.007 A 
ATOM     17  C   UNL     1       0.024  -2.071  -1.206  0.00  0.00    +0.000 A 
ATOM     18  C   UNL     1       0.039  -2.772  -0.014  0.00  0.00    +0.004 A 
ATOM     19  C   UNL     1       0.036  -2.092   1.188  0.00  0.00    +0.046 A 
ATOM     20  C   UNL     1       0.023  -0.705   1.199  0.00  0.00    +0.124 A 
ENDBRANCH  13  20
ENDBRANCH  12  13
ENDBRANCH   1  12
BRANCH   4  21
ATOM     21  S   UNL     1      -1.527   2.220   7.643  0.00  0.00    -0.073 S 
BRANCH  21  22
ATOM     22  C   UNL     1      -0.286   3.041   8.680  0.00  0.00    +0.137 C 
ATOM     23  C   UNL     1       0.536   1.986   9.423  0.00  0.00    +0.029 C 
BRANCH  22  24
ATOM     24  C   UNL     1      -0.976   3.934   9.678  0.00  0.00    +0.233 C 
ATOM     25  O   UNL     1      -2.117   3.700  10.014  0.00  0.00    -0.274 OA
ATOM     26  N   UNL     1      -0.325   4.994  10.198  0.00  0.00    -0.239 N 
ATOM     27  C   UNL     1      -0.943   5.793  11.091  0.00  0.00    +0.306 C 
ATOM     28  O   UNL     1      -2.087   5.558  11.427  0.00  0.00    -0.252 OA
ATOM     29  N   UNL     1      -0.292   6.852  11.610  0.00  0.00    -0.296 N 
ATOM     30  H   UNL     1       0.588   5.182   9.930  0.00  0.00    +0.159 HD
ATOM     31  H   UNL     1       0.621   7.040  11.342  0.00  0.00    +0.151 HD
BRANCH  29  32
ATOM     32  C   UNL     1      -0.963   7.721  12.581  0.00  0.00    +0.074 C 
ATOM     33  C   UNL     1      -1.785   8.776  11.838  0.00  0.00    +0.022 C 
ATOM     34  C   UNL     1      -2.486   9.682  12.851  0.00  0.00    +0.002 C 
ATOM     35  C   UNL     1      -1.439  10.375  13.726  0.00  0.00    +0.000 C 
ATOM     36  C   UNL     1      -0.617   9.319  14.469  0.00  0.00    +0.002 C 
ATOM     37  C   UNL     1       0.084   8.413  13.456  0.00  0.00    +0.022 C 
ENDBRANCH  29  32
ENDBRANCH  22  24
ENDBRANCH  21  22
ENDBRANCH   4  21
TORSDOF 8
