REMARK  Name = ZINC02916562
REMARK  8 active torsions:
REMARK  status: ('A' for Active; 'I' for Inactive)
REMARK    1  A    between atoms: C_1  and  O_2
REMARK    2  A    between atoms: O_2  and  C_3
REMARK    3  A    between atoms: C_5  and  C_13
REMARK    4  A    between atoms: C_6  and  O_11
REMARK    5  A    between atoms: C_8  and  O_9
REMARK    6  A    between atoms: O_9  and  C_10
REMARK    7  A    between atoms: O_11  and  C_12
REMARK    8  A    between atoms: C_16  and  C_24
REMARK                            x       y       z     vdW  Elec       q    Type
REMARK                         _______ _______ _______ _____ _____    ______ ____
ROOT
ATOM      1  C   UNL     1       2.401   0.384  -4.230  0.00  0.00    +0.148 C 
ATOM      2  C   UNL     1       3.494   1.282  -3.636  0.00  0.00    +0.059 C 
ATOM      3  C   UNL     1       3.927   2.326  -4.672  0.00  0.00    +0.106 C 
ATOM      4  N   UNL     1       2.768   3.182  -4.994  0.00  0.00    -0.305 N 
ATOM      5  C   UNL     1       1.559   2.528  -5.183  0.00  0.00    +0.236 A 
ATOM      6  N   UNL     1       1.375   1.226  -4.838  0.00  0.00    -0.206 N 
ATOM      7  N   UNL     1       0.057   0.928  -5.182  0.00  0.00    -0.042 NA
ATOM      8  N   UNL     1      -0.446   2.009  -5.685  0.00  0.00    -0.021 NA
ATOM      9  N   UNL     1       0.435   2.958  -5.684  0.00  0.00    -0.092 NA
ATOM     10  H   UNL     1       2.847   4.146  -5.068  0.00  0.00    +0.150 HD
ENDROOT
BRANCH   3  11
ATOM     11  C   UNL     1       4.409   1.631  -5.920  0.00  0.00    -0.027 A 
ATOM     12  C   UNL     1       3.495   1.156  -6.842  0.00  0.00    +0.006 A 
ATOM     13  C   UNL     1       3.936   0.518  -7.987  0.00  0.00    +0.015 A 
ATOM     14  C   UNL     1       5.292   0.356  -8.209  0.00  0.00    +0.013 A 
ATOM     15  C   UNL     1       6.205   0.832  -7.286  0.00  0.00    +0.015 A 
ATOM     16  C   UNL     1       5.764   1.474  -6.144  0.00  0.00    +0.006 A 
ATOM     17  I   UNL     1       5.961  -0.610  -9.943  0.00  0.00    -0.044 I 
ENDBRANCH   3  11
BRANCH   1  20
ATOM     18  C   UNL     1       0.607  -0.608  -1.057  0.00  0.00    +0.162 A 
ATOM     19  C   UNL     1       1.173   0.160  -2.062  0.00  0.00    +0.058 A 
ATOM     20  C   UNL     1       1.787  -0.453  -3.138  0.00  0.00    +0.022 A 
ATOM     21  C   UNL     1       1.838  -1.837  -3.214  0.00  0.00    +0.129 A 
ATOM     22  C   UNL     1       1.272  -2.609  -2.211  0.00  0.00    +0.095 A 
ATOM     23  C   UNL     1       0.661  -1.996  -1.129  0.00  0.00    +0.165 A 
BRANCH  18  25
ATOM     24  C   UNL     1      -0.017   1.425   0.010  0.00  0.00    +0.277 C 
ATOM     25  O   UNL     1       0.002  -0.004   0.002  0.00  0.00    -0.491 OA
ENDBRANCH  18  25
BRANCH  23  26
ATOM     26  O   UNL     1       0.112  -2.751  -0.140  0.00  0.00    -0.491 OA
ATOM     27  C   UNL     1       0.205  -4.170  -0.279  0.00  0.00    +0.277 C 
ENDBRANCH  23  26
BRANCH  21  28
ATOM     28  O   UNL     1       2.442  -2.437  -4.274  0.00  0.00    -0.495 OA
ATOM     29  C   UNL     1       2.458  -3.866  -4.288  0.00  0.00    +0.277 C 
ENDBRANCH  21  28
ENDBRANCH   1  20
TORSDOF 5
