REMARK  Name = ZINC39500469
REMARK  4 active torsions:
REMARK  status: ('A' for Active; 'I' for Inactive)
REMARK    1  A    between atoms: C_1  and  C_2
REMARK    2  A    between atoms: C_10  and  C_12
REMARK    3  A    between atoms: C_12  and  N_13
REMARK    4  A    between atoms: N_13  and  C_14
REMARK                            x       y       z     vdW  Elec       q    Type
REMARK                         _______ _______ _______ _____ _____    ______ ____
ROOT
ATOM      1  N   UNL     1       1.579   0.334  -3.032  0.00  0.00    +0.387 N 
ATOM      2  H   UNL     1       1.369  -0.230  -2.222  0.00  0.00    -0.085 HD
ATOM      3  H   UNL     1       1.024   0.019  -3.814  0.00  0.00    -0.085 HD
ENDROOT
BRANCH   1   4
ATOM      4  C   UNL     1       3.005   0.207  -3.361  0.00  0.00    -0.041 C 
ATOM      5  C   UNL     1       3.307   0.934  -4.682  0.00  0.00    -0.011 C 
ATOM      6  C   UNL     1       2.640   0.202  -5.846  0.00  0.00    +0.001 C 
ATOM      7  C   UNL     1       3.218  -1.206  -6.018  0.00  0.00    +0.029 C 
ATOM      8  C   UNL     1       2.863  -2.031  -4.778  0.00  0.00    +0.121 C 
ATOM      9  C   UNL     1       3.359  -1.245  -3.571  0.00  0.00    -0.047 C 
ATOM     10  C   UNL     1       4.102  -2.041  -2.853  0.00  0.00    +0.087 C 
ATOM     11  N   UNL     1       4.244  -3.283  -3.451  0.00  0.00    -0.270 N 
ATOM     12  N   UNL     1       3.606  -3.293  -4.726  0.00  0.00    -0.230 N 
ATOM     13  C   UNL     1       3.672  -4.273  -5.709  0.00  0.00    +0.138 A 
ATOM     14  C   UNL     1       4.427  -5.421  -5.489  0.00  0.00    +0.045 A 
ATOM     15  C   UNL     1       4.483  -6.389  -6.476  0.00  0.00    +0.005 A 
ATOM     16  C   UNL     1       3.779  -6.175  -7.654  0.00  0.00    +0.020 A 
ATOM     17  C   UNL     1       3.050  -5.013  -7.805  0.00  0.00    +0.113 A 
ATOM     18  N   UNL     1       3.011  -4.109  -6.845  0.00  0.00    -0.239 NA
ATOM     19  H   UNL     1       4.706  -4.040  -3.057  0.00  0.00    +0.170 HD
ENDBRANCH   1   4
BRANCH   1  20
ATOM     20  C   UNL     1       1.265   1.740  -2.744  0.00  0.00    -0.027 C 
BRANCH  20  30
ATOM     21  C   UNL     1      -0.013   1.086   0.008  0.00  0.00    +0.046 C 
ATOM     22  C   UNL     1      -0.742   1.585  -1.213  0.00  0.00    -0.024 A 
ATOM     23  C   UNL     1      -2.177   1.857  -1.320  0.00  0.00    +0.004 A 
ATOM     24  C   UNL     1      -3.252   1.762  -0.434  0.00  0.00    +0.010 A 
ATOM     25  C   UNL     1      -4.508   2.101  -0.851  0.00  0.00    +0.002 A 
ATOM     26  C   UNL     1      -4.725   2.539  -2.150  0.00  0.00    +0.022 A 
ATOM     27  C   UNL     1      -3.679   2.640  -3.042  0.00  0.00    +0.065 A 
ATOM     28  C   UNL     1      -2.391   2.301  -2.638  0.00  0.00    +0.065 A 
ATOM     29  N   UNL     1      -1.169   2.294  -3.272  0.00  0.00    -0.358 N 
ATOM     30  C   UNL     1      -0.198   1.870  -2.406  0.00  0.00    +0.003 A 
ATOM     31  H   UNL     1      -1.018   2.554  -4.195  0.00  0.00    +0.166 HD
ATOM     32 CL   UNL     1      -3.967   3.189  -4.664  0.00  0.00    -0.081 Cl
ENDBRANCH  20  30
ENDBRANCH   1  20
TORSDOF 3
