REMARK  Name = ZINC39695857
REMARK  6 active torsions:
REMARK  status: ('A' for Active; 'I' for Inactive)
REMARK    1  A    between atoms: C_1  and  C_2
REMARK    2  A    between atoms: C_10  and  C_12
REMARK    3  A    between atoms: C_12  and  C_13
REMARK    4  A    between atoms: C_12  and  N_14
REMARK    5  A    between atoms: C_15  and  C_17
REMARK    6  A    between atoms: C_27  and  C_29
REMARK                            x       y       z     vdW  Elec       q    Type
REMARK                         _______ _______ _______ _____ _____    ______ ____
ROOT
ATOM      1  C   UNL     1      -1.625  -8.785   1.007  0.00  0.00    +0.100 C 
ATOM      2  C   UNL     1      -2.914  -8.259   0.337  0.00  0.00    +0.121 C 
ATOM      3  N   UNL     1      -3.821  -9.430   0.300  0.00  0.00    -0.295 N 
ATOM      4  C   UNL     1      -3.596 -10.112   1.597  0.00  0.00    +0.115 C 
ATOM      5  C   UNL     1      -2.079  -9.999   1.834  0.00  0.00    -0.004 C 
ATOM      6  C   UNL     1      -1.794  -9.766   3.315  0.00  0.00    -0.010 C 
ATOM      7  C   UNL     1      -2.201 -11.010   4.110  0.00  0.00    -0.082 C 
ATOM      8  N   UNL     1      -1.448 -12.172   3.623  0.00  0.00    +0.379 N 
ATOM      9  C   UNL     1      -1.799 -12.445   2.224  0.00  0.00    -0.082 C 
ATOM     10  C   UNL     1      -1.375 -11.262   1.349  0.00  0.00    -0.010 C 
ATOM     11  C   UNL     1      -4.660  -9.794  -0.690  0.00  0.00    +0.265 C 
ATOM     12  O   UNL     1      -5.406 -10.741  -0.536  0.00  0.00    -0.268 OA
ATOM     13  H   UNL     1      -0.460 -11.983   3.690  0.00  0.00    -0.086 HD
ATOM     14  H   UNL     1      -1.673 -12.978   4.188  0.00  0.00    -0.086 HD
ENDROOT
BRANCH  11  15
ATOM     15  C   UNL     1      -4.674  -9.039  -1.965  0.00  0.00    +0.126 A 
ATOM     16  C   UNL     1      -5.631  -9.358  -2.940  0.00  0.00    +0.033 A 
ATOM     17  C   UNL     1      -5.655  -8.669  -4.119  0.00  0.00    +0.012 A 
ATOM     18  C   UNL     1      -4.704  -7.650  -4.314  0.00  0.00    +0.000 A 
ATOM     19  C   UNL     1      -4.671  -6.901  -5.502  0.00  0.00    +0.010 A 
ATOM     20  C   UNL     1      -3.737  -5.923  -5.655  0.00  0.00    +0.001 A 
ATOM     21  C   UNL     1      -2.811  -5.652  -4.649  0.00  0.00    +0.002 A 
ATOM     22  C   UNL     1      -2.813  -6.356  -3.485  0.00  0.00    +0.028 A 
ATOM     23  C   UNL     1      -3.763  -7.377  -3.288  0.00  0.00    +0.072 A 
ATOM     24  N   UNL     1      -3.790  -8.079  -2.155  0.00  0.00    -0.242 NA
ENDBRANCH  11  15
BRANCH   1  26
ATOM     25  N   UNL     1       0.267  -7.793   2.255  0.00  0.00    -0.305 N 
ATOM     26  C   UNL     1      -1.033  -7.729   1.906  0.00  0.00    +0.219 C 
ATOM     27  O   UNL     1      -1.727  -6.823   2.315  0.00  0.00    -0.275 OA
ATOM     28  H   UNL     1       0.822  -8.519   1.927  0.00  0.00    +0.149 HD
BRANCH  25  29
ATOM     29  C   UNL     1       0.843  -6.768   3.128  0.00  0.00    +0.136 C 
ATOM     30  C   UNL     1       0.584  -7.139   4.590  0.00  0.00    +0.036 C 
BRANCH  29  40
ATOM     31  C   UNL     1       8.053  -5.078   2.395  0.00  0.00    +0.044 C 
ATOM     32  C   UNL     1       6.746  -5.828   2.375  0.00  0.00    -0.048 A 
ATOM     33  C   UNL     1       6.713  -7.142   1.931  0.00  0.00    +0.005 A 
ATOM     34  C   UNL     1       5.538  -7.839   1.906  0.00  0.00    +0.030 A 
ATOM     35  C   UNL     1       4.356  -7.227   2.331  0.00  0.00    +0.089 A 
ATOM     36  C   UNL     1       4.389  -5.897   2.781  0.00  0.00    +0.067 A 
ATOM     37  C   UNL     1       5.593  -5.206   2.804  0.00  0.00    +0.031 A 
ATOM     38  N   UNL     1       3.091  -5.578   3.126  0.00  0.00    -0.340 N 
ATOM     39  H   UNL     1       2.781  -4.728   3.474  0.00  0.00    +0.167 HD
ATOM     40  C   UNL     1       2.328  -6.679   2.888  0.00  0.00    +0.128 A 
ATOM     41  N   UNL     1       3.067  -7.643   2.422  0.00  0.00    -0.231 NA
ENDBRANCH  29  40
ENDBRANCH  25  29
ENDBRANCH   1  26
TORSDOF 4
