REMARK  Name = ZINC09312299
REMARK  15 active torsions:
REMARK  status: ('A' for Active; 'I' for Inactive)
REMARK    1  A    between atoms: C_1  and  C_2
REMARK    2  A    between atoms: C_2  and  N_72
REMARK    3  A    between atoms: C_3  and  C_4
REMARK    4  A    between atoms: C_3  and  N_72
REMARK    5  A    between atoms: C_5  and  C_6
REMARK    6  A    between atoms: C_5  and  N_72
REMARK    7  A    between atoms: C_6  and  N_7
REMARK    8  A    between atoms: C_8  and  C_32
REMARK    9  A    between atoms: C_11  and  C_12
REMARK   10  A    between atoms: C_11  and  O_27
REMARK   11  A    between atoms: C_15  and  O_19
REMARK   12  A    between atoms: C_16  and  C_18
REMARK   13  A    between atoms: O_19  and  C_20
REMARK   14  A    between atoms: C_20  and  C_21
REMARK   15  A    between atoms: C_35  and  O_38
REMARK                            x       y       z     vdW  Elec       q    Type
REMARK                         _______ _______ _______ _____ _____    ______ ____
ROOT
ATOM      1  N   UNL     1      -0.973   3.472   5.151  0.00  0.00    -0.285 N 
ATOM      2  C   UNL     1      -0.106   3.994   6.211  0.00  0.00    +0.144 C 
ATOM      3  C   UNL     1      -1.002   4.729   7.181  0.00  0.00    +0.071 C 
ATOM      4  C   UNL     1      -0.617   5.383   8.335  0.00  0.00    +0.133 C 
ATOM      5  C   UNL     1      -2.305   4.613   6.673  0.00  0.00    +0.249 C 
ATOM      6  O   UNL     1      -3.312   5.077   7.177  0.00  0.00    -0.282 OA
ATOM      7  C   UNL     1      -2.242   3.831   5.409  0.00  0.00    +0.288 C 
ATOM      8  O   UNL     1      -3.198   3.554   4.713  0.00  0.00    -0.266 OA
ENDROOT
BRANCH   4   9
ATOM      9  C   UNL     1      -1.604   6.149   9.111  0.00  0.00    +0.017 A 
ATOM     10  C   UNL     1      -2.444   7.067   8.469  0.00  0.00    +0.015 A 
ATOM     11  C   UNL     1      -3.370   7.776   9.198  0.00  0.00    +0.046 A 
ATOM     12  C   UNL     1      -3.465   7.591  10.574  0.00  0.00    +0.124 A 
ATOM     13  C   UNL     1      -2.629   6.685  11.217  0.00  0.00    -0.008 A 
ATOM     14  C   UNL     1      -1.703   5.966  10.495  0.00  0.00    +0.018 A 
ATOM     15  C   UNL     1      -2.737   6.490  12.708  0.00  0.00    +0.047 C 
BRANCH  12  16
ATOM     16  O   UNL     1      -4.375   8.297  11.290  0.00  0.00    -0.487 OA
BRANCH  16  17
ATOM     17  C   UNL     1      -5.202   9.211  10.566  0.00  0.00    +0.264 C 
BRANCH  17  18
ATOM     18  C   UNL     1      -6.144   9.899  11.520  0.00  0.00    -0.010 A 
ATOM     19  C   UNL     1      -7.386   9.351  11.781  0.00  0.00    +0.007 A 
ATOM     20  C   UNL     1      -8.248   9.980  12.660  0.00  0.00    +0.000 A 
ATOM     21  C   UNL     1      -7.873  11.162  13.270  0.00  0.00    +0.000 A 
ATOM     22  C   UNL     1      -6.633  11.713  13.005  0.00  0.00    +0.000 A 
ATOM     23  C   UNL     1      -5.769  11.082  12.130  0.00  0.00    +0.007 A 
ENDBRANCH  17  18
ENDBRANCH  16  17
ENDBRANCH  12  16
ENDBRANCH   4   9
BRANCH   2  24
ATOM     24  C   UNL     1       0.593   2.858   6.913  0.00  0.00    -0.022 A 
ATOM     25  C   UNL     1      -0.095   1.691   7.190  0.00  0.00    +0.009 A 
ATOM     26  C   UNL     1       0.545   0.646   7.828  0.00  0.00    +0.046 A 
ATOM     27  C   UNL     1       1.875   0.773   8.201  0.00  0.00    +0.117 A 
ATOM     28  C   UNL     1       2.561   1.947   7.927  0.00  0.00    +0.046 A 
ATOM     29  C   UNL     1       1.918   2.987   7.284  0.00  0.00    +0.009 A 
BRANCH  27  30
ATOM     30  O   UNL     1       2.505  -0.252   8.834  0.00  0.00    -0.507 OA
ATOM     31  H   UNL     1       2.437  -0.220   9.798  0.00  0.00    +0.292 HD
ENDBRANCH  27  30
ENDBRANCH   2  24
BRANCH   4  32
ATOM     32  O   UNL     1       0.666   5.320   8.750  0.00  0.00    -0.506 OA
ATOM     33  H   UNL     1       0.770   5.846   9.595  0.00  0.00    +0.292 HD
ENDBRANCH   4  32
BRANCH   1  34
ATOM     34  C   UNL     1      -0.528   2.691   3.994  0.00  0.00    +0.090 C 
BRANCH  34  35
ATOM     35  C   UNL     1      -0.558   1.202   4.343  0.00  0.00    -0.060 C 
BRANCH  35  36
ATOM     36  N   UNL     1      -0.086   0.429   3.175  0.00  0.00    +0.380 N 
ATOM     37  H   UNL     1       0.814   0.813   2.862  0.00  0.00    -0.082 HD
BRANCH  36  39
ATOM     38  C   UNL     1      -2.437   0.034   2.519  0.00  0.00    -0.017 C 
ATOM     39  C   UNL     1      -1.063   0.536   2.070  0.00  0.00    -0.082 C 
ENDBRANCH  36  39
BRANCH  36  40
ATOM     40  C   UNL     1       0.101  -0.989   3.548  0.00  0.00    -0.082 C 
ATOM     41  C   UNL     1       1.007  -1.654   2.511  0.00  0.00    -0.017 C 
ENDBRANCH  36  40
ENDBRANCH  35  36
ENDBRANCH  34  35
ENDBRANCH   1  34
TORSDOF 12
