REMARK  Name = ZINC04350986
REMARK  10 active torsions:
REMARK  status: ('A' for Active; 'I' for Inactive)
REMARK    1  A    between atoms: C_4  and  C_7
REMARK    2  A    between atoms: C_7  and  N_51
REMARK    3  A    between atoms: C_8  and  C_9
REMARK    4  A    between atoms: C_8  and  N_51
REMARK    5  A    between atoms: C_15  and  C_16
REMARK    6  A    between atoms: C_15  and  N_51
REMARK    7  A    between atoms: C_16  and  O_28
REMARK    8  A    between atoms: C_17  and  O_27
REMARK    9  A    between atoms: C_19  and  O_26
REMARK   10  A    between atoms: C_21  and  O_25
REMARK                            x       y       z     vdW  Elec       q    Type
REMARK                         _______ _______ _______ _____ _____    ______ ____
ROOT
ATOM      1  N   UNL     1      -2.342   1.566   1.150  0.00  0.00    +0.389 N 
ATOM      2  H   UNL     1      -2.443   1.719   0.140  0.00  0.00    -0.081 HD
ENDROOT
BRANCH   1   3
ATOM      3  C   UNL     1      -2.208   0.117   1.405  0.00  0.00    -0.042 C 
BRANCH   3   7
ATOM      4  C   UNL     1      -1.181  -0.598   5.489  0.00  0.00    +0.000 A 
ATOM      5  C   UNL     1      -2.508  -0.481   5.120  0.00  0.00    +0.000 A 
ATOM      6  C   UNL     1      -2.841  -0.250   3.799  0.00  0.00    +0.002 A 
ATOM      7  C   UNL     1      -1.846  -0.135   2.846  0.00  0.00    -0.064 A 
ATOM      8  C   UNL     1      -0.519  -0.256   3.213  0.00  0.00    +0.002 A 
ATOM      9  C   UNL     1      -0.186  -0.482   4.536  0.00  0.00    +0.000 A 
ENDBRANCH   3   7
ENDBRANCH   1   3
BRANCH   1  10
ATOM     10  C   UNL     1      -3.541   2.092   1.837  0.00  0.00    -0.042 C 
BRANCH  10  11
ATOM     11  C   UNL     1      -4.764   1.674   1.063  0.00  0.00    -0.064 A 
ATOM     12  C   UNL     1      -5.179   2.416  -0.027  0.00  0.00    +0.002 A 
ATOM     13  C   UNL     1      -6.299   2.030  -0.740  0.00  0.00    +0.000 A 
ATOM     14  C   UNL     1      -7.009   0.907  -0.357  0.00  0.00    +0.000 A 
ATOM     15  C   UNL     1      -6.596   0.168   0.735  0.00  0.00    +0.000 A 
ATOM     16  C   UNL     1      -5.474   0.551   1.445  0.00  0.00    +0.002 A 
ENDBRANCH  10  11
ENDBRANCH   1  10
BRANCH   1  17
ATOM     17  C   UNL     1      -1.136   2.276   1.625  0.00  0.00    -0.009 C 
BRANCH  17  18
ATOM     18  C   UNL     1      -0.029   2.113   0.581  0.00  0.00    +0.181 C 
ATOM     19  C   UNL     1       1.179   2.965   0.980  0.00  0.00    +0.202 C 
ATOM     20  C   UNL     1       2.304   2.750  -0.037  0.00  0.00    +0.179 C 
ATOM     21  C   UNL     1       2.641   1.257  -0.102  0.00  0.00    +0.171 C 
ATOM     22  C   UNL     1       1.377   0.471  -0.459  0.00  0.00    +0.197 C 
ATOM     23  O   UNL     1       0.360   0.740   0.509  0.00  0.00    -0.345 OA
BRANCH  21  24
ATOM     24  O   UNL     1       3.639   1.036  -1.100  0.00  0.00    -0.387 OA
ATOM     25  H   UNL     1       3.898   0.109  -1.198  0.00  0.00    +0.210 HD
ENDBRANCH  21  24
BRANCH  20  26
ATOM     26  O   UNL     1       1.877   3.200  -1.324  0.00  0.00    -0.386 OA
ATOM     27  H   UNL     1       2.539   3.087  -2.020  0.00  0.00    +0.210 HD
ENDBRANCH  20  26
BRANCH  19  28
ATOM     28  O   UNL     1       1.629   2.576   2.279  0.00  0.00    -0.384 OA
ATOM     29  H   UNL     1       2.394   3.075   2.597  0.00  0.00    +0.210 HD
ENDBRANCH  19  28
BRANCH  18  30
ATOM     30  O   UNL     1      -0.511   2.539  -0.695  0.00  0.00    -0.364 OA
ATOM     31  H   UNL     1      -1.277   2.041  -1.012  0.00  0.00    +0.213 HD
ENDBRANCH  18  30
ENDBRANCH  17  18
ENDBRANCH   1  17
TORSDOF 10
