REMARK  Name = ZINC08579810
REMARK  7 active torsions:
REMARK  status: ('A' for Active; 'I' for Inactive)
REMARK    1  A    between atoms: C_1  and  C_2
REMARK    2  A    between atoms: C_2  and  C_25
REMARK    3  A    between atoms: C_3  and  C_20
REMARK    4  A    between atoms: N_7  and  O_8
REMARK    5  A    between atoms: N_15  and  N_16
REMARK    6  A    between atoms: N_16  and  C_17
REMARK    7  A    between atoms: C_17  and  N_19
REMARK                            x       y       z     vdW  Elec       q    Type
REMARK                         _______ _______ _______ _____ _____    ______ ____
ROOT
ATOM      1  C   UNL     1      -0.028   1.595   0.104  0.00  0.00    +0.037 C 
ATOM      2  C   UNL     1       0.181   0.086   0.008  0.00  0.00    +0.088 C 
ATOM      3  C   UNL     1      -1.133  -0.644  -0.131  0.00  0.00    +0.095 C 
ATOM      4  N   UNL     1      -1.417  -1.247   0.984  0.00  0.00    -0.138 N 
ATOM      5  O   UNL     1      -2.573  -2.046   1.144  0.00  0.00    -0.167 OA
ATOM      6  C   UNL     1      -0.404  -0.958   2.010  0.00  0.00    +0.197 C 
ATOM      7  N   UNL     1       0.779  -0.461   1.251  0.00  0.00    -0.145 NA
ATOM      8  C   UNL     1      -0.910   0.243   2.858  0.00  0.00    +0.056 C 
ATOM      9  C   UNL     1      -1.657  -0.203   4.131  0.00  0.00    +0.004 C 
ATOM     10  C   UNL     1      -2.604  -1.333   3.918  0.00  0.00    +0.000 C 
ATOM     11  C   UNL     1      -1.859  -2.608   4.272  0.00  0.00    +0.006 C 
ATOM     12  C   UNL     1      -1.093  -3.203   3.174  0.00  0.00    +0.056 C 
ATOM     13  C   UNL     1      -0.026  -2.157   2.787  0.00  0.00    +0.082 C 
ATOM     14  N   UNL     1       1.183  -2.330   3.184  0.00  0.00    -0.186 NA
ATOM     15  C   UNL     1       1.088  -0.239  -1.188  0.00  0.00    +0.037 C 
ENDROOT
BRANCH   3  16
ATOM     16  C   UNL     1      -1.967  -0.672  -1.337  0.00  0.00    +0.036 A 
ATOM     17  C   UNL     1      -3.179  -1.308  -1.544  0.00  0.00    +0.017 A 
ATOM     18  C   UNL     1      -3.778  -1.187  -2.775  0.00  0.00    +0.008 A 
ATOM     19  C   UNL     1      -3.167  -0.454  -3.743  0.00  0.00    +0.046 A 
ATOM     20  S   UNL     1      -1.689   0.110  -2.917  0.00  0.00    -0.095 S 
ENDBRANCH   3  16
BRANCH   7  21
ATOM     21  O   UNL     1       1.698  -1.550   0.912  0.00  0.00    -0.309 OA
ATOM     22  H   UNL     1       2.427  -1.284   0.336  0.00  0.00    +0.237 HD
ENDBRANCH   7  21
BRANCH  14  23
ATOM     23  N   UNL     1       1.494  -3.398   4.036  0.00  0.00    -0.219 N 
ATOM     24  H   UNL     1       0.786  -3.958   4.391  0.00  0.00    +0.176 HD
BRANCH  23  25
ATOM     25  C   UNL     1       2.778  -3.646   4.364  0.00  0.00    +0.147 C 
ATOM     26  S   UNL     1       3.159  -4.950   5.406  0.00  0.00    -0.017 S 
BRANCH  25  27
ATOM     27  N   UNL     1       3.762  -2.868   3.872  0.00  0.00    -0.339 N 
ATOM     28  H   UNL     1       3.546  -2.129   3.281  0.00  0.00    +0.144 HD
ATOM     29  H   UNL     1       4.686  -3.046   4.108  0.00  0.00    +0.144 HD
ENDBRANCH  25  27
ENDBRANCH  23  25
ENDBRANCH  14  23
TORSDOF 5
