REMARK  Name = ZINC40343809
REMARK  9 active torsions:
REMARK  status: ('A' for Active; 'I' for Inactive)
REMARK    1  A    between atoms: C_4  and  C_7
REMARK    2  A    between atoms: C_7  and  O_8
REMARK    3  A    between atoms: O_8  and  C_9
REMARK    4  A    between atoms: C_12  and  C_15
REMARK    5  A    between atoms: C_18  and  C_34
REMARK    6  A    between atoms: N_25  and  C_26
REMARK    7  A    between atoms: C_26  and  C_27
REMARK    8  A    between atoms: C_27  and  C_28
REMARK    9  A    between atoms: C_28  and  N_29
REMARK                            x       y       z     vdW  Elec       q    Type
REMARK                         _______ _______ _______ _____ _____    ______ ____
ROOT
ATOM      1  C   UNL     1       9.022  -3.675   1.977  0.00  0.00    +0.141 C 
ATOM      2  C   UNL     1       8.764  -5.115   2.330  0.00  0.00    +0.035 A 
ATOM      3  C   UNL     1       8.219  -6.305   1.969  0.00  0.00    +0.072 A 
ATOM      4  N   UNL     1       8.473  -7.178   2.988  0.00  0.00    -0.276 N 
ATOM      5  N   UNL     1       9.128  -6.583   3.921  0.00  0.00    -0.168 NA
ATOM      6  H   UNL     1       8.199  -8.108   3.006  0.00  0.00    +0.189 HD
ATOM      7  C   UNL     1       9.348  -5.324   3.601  0.00  0.00    +0.153 A 
ATOM      8  C   UNL     1       9.954  -4.052   4.035  0.00  0.00    +0.268 C 
ATOM      9  O   UNL     1      10.540  -3.887   5.087  0.00  0.00    -0.268 OA
ATOM     10  N   UNL     1       9.770  -3.101   3.102  0.00  0.00    -0.285 N 
ENDROOT
BRANCH   3  11
ATOM     11  C   UNL     1       7.491  -6.599   0.715  0.00  0.00    +0.000 A 
ATOM     12  C   UNL     1       6.531  -5.706   0.237  0.00  0.00    +0.011 A 
ATOM     13  C   UNL     1       5.855  -5.986  -0.933  0.00  0.00    +0.020 A 
ATOM     14  C   UNL     1       6.127  -7.149  -1.632  0.00  0.00    +0.041 A 
ATOM     15  C   UNL     1       7.079  -8.039  -1.163  0.00  0.00    +0.020 A 
ATOM     16  C   UNL     1       7.765  -7.767   0.003  0.00  0.00    +0.011 A 
ATOM     17 CL   UNL     1       5.272  -7.495  -3.103  0.00  0.00    -0.084 Cl
ENDBRANCH   3  11
BRANCH   1  21
ATOM     18  C   UNL     1       5.319  -1.605   1.466  0.00  0.00    +0.121 A 
ATOM     19  C   UNL     1       6.048  -2.007   0.357  0.00  0.00    +0.046 A 
ATOM     20  C   UNL     1       7.245  -2.676   0.525  0.00  0.00    +0.009 A 
ATOM     21  C   UNL     1       7.716  -2.945   1.797  0.00  0.00    -0.022 A 
ATOM     22  C   UNL     1       6.990  -2.545   2.904  0.00  0.00    +0.009 A 
ATOM     23  C   UNL     1       5.796  -1.871   2.742  0.00  0.00    +0.046 A 
BRANCH  18  24
ATOM     24  O   UNL     1       4.141  -0.946   1.304  0.00  0.00    -0.487 OA
BRANCH  24  25
ATOM     25  C   UNL     1       3.711  -0.707  -0.038  0.00  0.00    +0.264 C 
BRANCH  25  29
ATOM     26  C   UNL     1      -0.017   1.378   0.010  0.00  0.00    +0.000 A 
ATOM     27  C   UNL     1       1.171   2.086   0.002  0.00  0.00    +0.000 A 
ATOM     28  C   UNL     1       2.377   1.411  -0.013  0.00  0.00    +0.007 A 
ATOM     29  C   UNL     1       2.396   0.029  -0.020  0.00  0.00    -0.010 A 
ATOM     30  C   UNL     1       1.208  -0.679  -0.012  0.00  0.00    +0.007 A 
ATOM     31  C   UNL     1       0.002  -0.004   0.002  0.00  0.00    +0.000 A 
ENDBRANCH  25  29
ENDBRANCH  24  25
ENDBRANCH  18  24
ENDBRANCH   1  21
BRANCH  10  32
ATOM     32  C   UNL     1      10.239  -1.716   3.193  0.00  0.00    +0.111 C 
BRANCH  32  33
ATOM     33  C   UNL     1       9.162  -0.855   3.856  0.00  0.00    +0.040 C 
BRANCH  33  34
ATOM     34  C   UNL     1       9.651   0.591   3.951  0.00  0.00    +0.124 C 
BRANCH  34  35
ATOM     35  N   UNL     1       8.620   1.415   4.585  0.00  0.00    -0.338 N 
ATOM     36  C   UNL     1       7.606   2.081   3.950  0.00  0.00    +0.104 A 
ATOM     37  C   UNL     1       6.894   2.709   4.904  0.00  0.00    +0.101 A 
ATOM     38  N   UNL     1       7.456   2.434   6.091  0.00  0.00    -0.352 N 
ATOM     39  C   UNL     1       8.488   1.656   5.908  0.00  0.00    +0.173 A 
ATOM     40  H   UNL     1       7.144   2.760   6.949  0.00  0.00    +0.166 HD
ENDBRANCH  34  35
ENDBRANCH  33  34
ENDBRANCH  32  33
ENDBRANCH  10  32
TORSDOF 9
