REMARK  Name = ZINC03838414
REMARK  11 active torsions:
REMARK  status: ('A' for Active; 'I' for Inactive)
REMARK    1  A    between atoms: C_1  and  C_2
REMARK    2  A    between atoms: C_2  and  C_3
REMARK    3  A    between atoms: C_2  and  N_4
REMARK    4  A    between atoms: N_7  and  C_8
REMARK    5  A    between atoms: C_11  and  C_22
REMARK    6  A    between atoms: C_15  and  C_17
REMARK    7  A    between atoms: C_17  and  C_18
REMARK    8  A    between atoms: C_18  and  C_19
REMARK    9  A    between atoms: C_18  and  C_20
REMARK   10  A    between atoms: C_18  and  C_21
REMARK   11  A    between atoms: C_28  and  C_30
REMARK                            x       y       z     vdW  Elec       q    Type
REMARK                         _______ _______ _______ _____ _____    ______ ____
ROOT
ATOM      1  C   UNL     1      -0.787   1.032   1.442  0.00  0.00    +0.094 C 
ATOM      2  C   UNL     1       0.000   0.661   0.158  0.00  0.00    +0.056 C 
ATOM      3  C   UNL     1      -0.862   1.269  -0.968  0.00  0.00    +0.164 C 
ATOM      4  N   UNL     1      -2.225   1.424  -0.440  0.00  0.00    -0.288 N 
ATOM      5  C   UNL     1      -2.255   0.919   0.945  0.00  0.00    +0.131 C 
ATOM      6  C   UNL     1      -3.274   1.942  -1.110  0.00  0.00    +0.217 C 
ATOM      7  O   UNL     1      -3.133   2.328  -2.251  0.00  0.00    -0.276 OA
ENDROOT
BRANCH   3   8
ATOM      8  C   UNL     1      -0.876   0.345  -2.159  0.00  0.00    +0.237 C 
ATOM      9  O   UNL     1      -1.823  -0.388  -2.347  0.00  0.00    -0.274 OA
ATOM     10  N   UNL     1       0.165   0.333  -3.015  0.00  0.00    -0.288 N 
ATOM     11  C   UNL     1       1.328   1.231  -2.962  0.00  0.00    +0.109 C 
ATOM     12  C   UNL     1       2.243   0.867  -4.150  0.00  0.00    +0.021 C 
ATOM     13  C   UNL     1       1.271   0.163  -5.134  0.00  0.00    +0.033 C 
ATOM     14  C   UNL     1       0.330  -0.587  -4.155  0.00  0.00    +0.162 C 
BRANCH  14  15
ATOM     15  C   UNL     1      -1.001  -0.854  -4.809  0.00  0.00    +0.231 C 
ATOM     16  O   UNL     1      -1.859   0.003  -4.811  0.00  0.00    -0.274 OA
ATOM     17  N   UNL     1      -1.238  -2.046  -5.392  0.00  0.00    -0.328 N 
ATOM     18  H   UNL     1      -0.552  -2.732  -5.390  0.00  0.00    +0.145 HD
ATOM     19  H   UNL     1      -2.095  -2.219  -5.813  0.00  0.00    +0.145 HD
ENDBRANCH  14  15
ENDBRANCH   3   8
BRANCH   1  23
ATOM     20  N   UNL     1      -0.417  -0.433   4.795  0.00  0.00    -0.297 N 
ATOM     21  C   UNL     1      -0.665   0.448   3.805  0.00  0.00    +0.300 C 
ATOM     22  O   UNL     1      -1.022   1.579   4.073  0.00  0.00    -0.253 OA
ATOM     23  N   UNL     1      -0.518   0.075   2.518  0.00  0.00    -0.295 N 
ATOM     24  H   UNL     1      -0.133  -1.335   4.581  0.00  0.00    +0.150 HD
ATOM     25  H   UNL     1      -0.234  -0.828   2.305  0.00  0.00    +0.151 HD
BRANCH  20  27
ATOM     26  C   UNL     1      -0.855  -1.261   7.054  0.00  0.00    +0.027 C 
ATOM     27  C   UNL     1      -0.577  -0.027   6.193  0.00  0.00    +0.068 C 
ATOM     28  C   UNL     1       0.705   0.654   6.677  0.00  0.00    +0.027 C 
ENDBRANCH  20  27
ENDBRANCH   1  23
BRANCH   6  29
ATOM     29  C   UNL     1      -4.621   2.040  -0.442  0.00  0.00    +0.102 C 
BRANCH  29  30
ATOM     30  C   UNL     1      -5.628   2.659  -1.413  0.00  0.00    -0.029 C 
ATOM     31  C   UNL     1      -5.740   1.780  -2.660  0.00  0.00    +0.011 C 
ATOM     32  C   UNL     1      -6.995   2.760  -0.735  0.00  0.00    +0.011 C 
ATOM     33  C   UNL     1      -5.155   4.057  -1.817  0.00  0.00    +0.011 C 
ENDBRANCH  29  30
ENDBRANCH   6  29
TORSDOF 6
