REMARK  Name = ZINC65734159
REMARK  15 active torsions:
REMARK  status: ('A' for Active; 'I' for Inactive)
REMARK    1  A    between atoms: C_2  and  C_3
REMARK    2  A    between atoms: C_3  and  O_4
REMARK    3  A    between atoms: O_4  and  C_5
REMARK    4  A    between atoms: N_7  and  C_8
REMARK    5  A    between atoms: C_10  and  O_39
REMARK    6  A    between atoms: C_12  and  O_22
REMARK    7  A    between atoms: C_14  and  C_20
REMARK    8  A    between atoms: C_17  and  O_19
REMARK    9  A    between atoms: C_20  and  O_21
REMARK   10  A    between atoms: O_22  and  C_23
REMARK   11  A    between atoms: C_25  and  O_38
REMARK   12  A    between atoms: C_27  and  O_37
REMARK   13  A    between atoms: C_29  and  O_36
REMARK   14  A    between atoms: C_31  and  C_34
REMARK   15  A    between atoms: C_34  and  O_35
REMARK                            x       y       z     vdW  Elec       q    Type
REMARK                         _______ _______ _______ _____ _____    ______ ____
ROOT
ATOM      1  C   UNL     1      -3.915  -4.273  -2.292  0.00  0.00    +0.163 C 
ATOM      2  C   UNL     1      -3.394  -5.690  -2.551  0.00  0.00    +0.171 C 
ATOM      3  C   UNL     1      -4.567  -6.587  -2.956  0.00  0.00    +0.183 C 
ATOM      4  C   UNL     1      -5.257  -5.988  -4.185  0.00  0.00    +0.178 C 
ATOM      5  O   UNL     1      -5.690  -4.660  -3.886  0.00  0.00    -0.341 OA
ATOM      6  C   UNL     1      -4.631  -3.762  -3.545  0.00  0.00    +0.271 C 
ENDROOT
BRANCH   1   9
ATOM      7  C   UNL     1      -2.995  -2.274  -1.244  0.00  0.00    +0.401 C 
ATOM      8  O   UNL     1      -4.112  -2.004  -0.847  0.00  0.00    -0.226 OA
ATOM      9  N   UNL     1      -2.791  -3.388  -1.975  0.00  0.00    -0.271 N 
ATOM     10  H   UNL     1      -1.900  -3.603  -2.292  0.00  0.00    +0.153 HD
BRANCH   7  11
ATOM     11  O   UNL     1      -1.962  -1.461  -0.954  0.00  0.00    -0.446 OA
BRANCH  11  12
ATOM     12  C   UNL     1      -2.252  -0.298  -0.174  0.00  0.00    +0.261 C 
BRANCH  12  14
ATOM     13  C   UNL     1      -0.981   1.786  -0.104  0.00  0.00    +0.007 C 
ATOM     14  C   UNL     1      -0.983   0.485   0.049  0.00  0.00    +0.006 C 
ENDBRANCH  12  14
ENDBRANCH  11  12
ENDBRANCH   7  11
ENDBRANCH   1   9
BRANCH   6  15
ATOM     15  O   UNL     1      -5.169  -2.463  -3.291  0.00  0.00    -0.365 OA
ATOM     16  H   UNL     1      -5.638  -2.077  -4.043  0.00  0.00    +0.213 HD
ENDBRANCH   6  15
BRANCH   2  17
ATOM     17  O   UNL     1      -2.787  -6.201  -1.362  0.00  0.00    -0.387 OA
ATOM     18  H   UNL     1      -2.039  -5.676  -1.045  0.00  0.00    +0.210 HD
ENDBRANCH   2  17
BRANCH   4  19
ATOM     19  C   UNL     1      -6.466  -6.847  -4.560  0.00  0.00    +0.190 C 
BRANCH  19  20
ATOM     20  O   UNL     1      -7.027  -6.370  -5.785  0.00  0.00    -0.392 OA
ATOM     21  H   UNL     1      -7.800  -6.869  -6.084  0.00  0.00    +0.210 HD
ENDBRANCH  19  20
ENDBRANCH   4  19
BRANCH   3  22
ATOM     22  O   UNL     1      -4.082  -7.894  -3.269  0.00  0.00    -0.340 OA
BRANCH  22  23
ATOM     23  C   UNL     1      -4.928  -8.953  -2.815  0.00  0.00    +0.282 C 
ATOM     24  C   UNL     1      -4.451 -10.279  -3.412  0.00  0.00    +0.201 C 
ATOM     25  C   UNL     1      -3.032 -10.573  -2.915  0.00  0.00    +0.179 C 
ATOM     26  C   UNL     1      -3.032 -10.591  -1.384  0.00  0.00    +0.177 C 
ATOM     27  C   UNL     1      -3.564  -9.252  -0.865  0.00  0.00    +0.178 C 
ATOM     28  O   UNL     1      -4.874  -9.026  -1.389  0.00  0.00    -0.341 OA
BRANCH  26  29
ATOM     29  O   UNL     1      -1.700 -10.794  -0.908  0.00  0.00    -0.386 OA
ATOM     30  H   UNL     1      -1.299 -11.623  -1.203  0.00  0.00    +0.210 HD
ENDBRANCH  26  29
BRANCH  25  31
ATOM     31  O   UNL     1      -2.143  -9.557  -3.383  0.00  0.00    -0.386 OA
ATOM     32  H   UNL     1      -2.098  -9.487  -4.346  0.00  0.00    +0.210 HD
ENDBRANCH  25  31
BRANCH  24  33
ATOM     33  O   UNL     1      -5.329 -11.330  -3.001  0.00  0.00    -0.384 OA
ATOM     34  H   UNL     1      -6.247 -11.206  -3.279  0.00  0.00    +0.210 HD
ENDBRANCH  24  33
BRANCH  27  35
ATOM     35  C   UNL     1      -3.623  -9.284   0.663  0.00  0.00    +0.190 C 
BRANCH  35  36
ATOM     36  O   UNL     1      -4.007  -7.998   1.152  0.00  0.00    -0.392 OA
ATOM     37  H   UNL     1      -4.066  -7.944   2.116  0.00  0.00    +0.210 HD
ENDBRANCH  35  36
ENDBRANCH  27  35
ENDBRANCH  22  23
ENDBRANCH   3  22
TORSDOF 15
