REMARK  Name = ZINC63821717
REMARK  12 active torsions:
REMARK  status: ('A' for Active; 'I' for Inactive)
REMARK    1  A    between atoms: C_1  and  C_2
REMARK    2  A    between atoms: C_2  and  C_3
REMARK    3  A    between atoms: C_6  and  C_9
REMARK    4  A    between atoms: C_9  and  C_10
REMARK    5  A    between atoms: C_9  and  N_27
REMARK    6  A    between atoms: C_10  and  N_11
REMARK    7  A    between atoms: C_12  and  C_14
REMARK    8  A    between atoms: N_16  and  C_17
REMARK    9  A    between atoms: C_19  and  C_24
REMARK   10  A    between atoms: C_22  and  C_23
REMARK   11  A    between atoms: N_27  and  C_28
REMARK   12  A    between atoms: N_27  and  C_29
REMARK                            x       y       z     vdW  Elec       q    Type
REMARK                         _______ _______ _______ _____ _____    ______ ____
ROOT
ATOM      1  N   UNL     1       3.662  -3.821  -5.958  0.00  0.00    -0.309 N 
ATOM      2  C   UNL     1       3.950  -5.110  -6.230  0.00  0.00    +0.299 C 
ATOM      3  O   UNL     1       3.628  -5.981  -5.449  0.00  0.00    -0.265 OA
ATOM      4  H   UNL     1       3.919  -3.125  -6.581  0.00  0.00    +0.149 HD
ENDROOT
BRANCH   2   5
ATOM      5  C   UNL     1       4.666  -5.464  -7.492  0.00  0.00    +0.303 C 
ATOM      6  O   UNL     1       4.989  -4.592  -8.272  0.00  0.00    -0.265 OA
ATOM      7  N   UNL     1       4.955  -6.752  -7.764  0.00  0.00    -0.277 N 
ATOM      8  H   UNL     1       4.773  -7.440  -7.104  0.00  0.00    +0.155 HD
BRANCH   7   9
ATOM      9  C   UNL     1       5.516  -7.097  -8.996  0.00  0.00    +0.037 A 
ATOM     10  C   UNL     1       5.316  -6.284 -10.102  0.00  0.00    +0.036 A 
ATOM     11  C   UNL     1       5.878  -6.632 -11.329  0.00  0.00    +0.038 A 
ATOM     12  C   UNL     1       6.638  -7.798 -11.437  0.00  0.00    +0.013 A 
ATOM     13  C   UNL     1       6.831  -8.601 -10.332  0.00  0.00    +0.006 A 
ATOM     14  C   UNL     1       6.279  -8.253  -9.114  0.00  0.00    -0.029 A 
ATOM     15  C   UNL     1       6.499  -9.133  -7.910  0.00  0.00    +0.045 C 
BRANCH  11  16
ATOM     16  C   UNL     1       5.669  -5.771 -12.512  0.00  0.00    +0.242 C 
ATOM     17  O   UNL     1       5.006  -4.756 -12.416  0.00  0.00    -0.270 OA
ATOM     18  N   UNL     1       6.213  -6.110 -13.698  0.00  0.00    -0.325 N 
ATOM     19  H   UNL     1       6.742  -6.919 -13.774  0.00  0.00    +0.145 HD
ATOM     20  H   UNL     1       6.076  -5.544 -14.474  0.00  0.00    +0.145 HD
ENDBRANCH  11  16
ENDBRANCH   7   9
ENDBRANCH   2   5
BRANCH   1  21
ATOM     21  C   UNL     1       2.960  -3.474  -4.720  0.00  0.00    +0.094 C 
BRANCH  21  22
ATOM     22  C   UNL     1       2.647  -1.976  -4.714  0.00  0.00    -0.021 C 
BRANCH  22  26
ATOM     23  C   UNL     1       0.137  -1.035  -8.041  0.00  0.00    -0.048 A 
ATOM     24  C   UNL     1       1.495  -0.785  -8.107  0.00  0.00    +0.004 A 
ATOM     25  C   UNL     1       2.307  -1.090  -7.030  0.00  0.00    +0.002 A 
ATOM     26  C   UNL     1       1.762  -1.643  -5.888  0.00  0.00    -0.059 A 
ATOM     27  C   UNL     1       0.403  -1.893  -5.821  0.00  0.00    +0.002 A 
ATOM     28  C   UNL     1      -0.409  -1.584  -6.896  0.00  0.00    +0.004 A 
BRANCH  23  30
ATOM     29  C   UNL     1      -1.259   0.732  -9.078  0.00  0.00    +0.009 C 
ATOM     30  C   UNL     1      -0.748  -0.704  -9.214  0.00  0.00    +0.032 C 
ENDBRANCH  23  30
ENDBRANCH  22  26
BRANCH  22  31
ATOM     31  N   UNL     1       1.958  -1.624  -3.466  0.00  0.00    +0.382 N 
ATOM     32  C   UNL     1       2.863  -1.841  -2.329  0.00  0.00    -0.096 C 
ATOM     33  C   UNL     1       1.556  -0.212  -3.509  0.00  0.00    -0.096 C 
ATOM     34  H   UNL     1       1.139  -2.204  -3.358  0.00  0.00    -0.082 HD
ENDBRANCH  22  31
ENDBRANCH  21  22
ENDBRANCH   1  21
TORSDOF 8
