REMARK  Name = ZINC21283810
REMARK  12 active torsions:
REMARK  status: ('A' for Active; 'I' for Inactive)
REMARK    1  A    between atoms: C_1  and  C_2
REMARK    2  A    between atoms: C_2  and  O_3
REMARK    3  A    between atoms: O_3  and  C_4
REMARK    4  A    between atoms: C_9  and  N_10
REMARK    5  A    between atoms: C_14  and  S_16
REMARK    6  A    between atoms: S_16  and  C_17
REMARK    7  A    between atoms: C_17  and  C_18
REMARK    8  A    between atoms: N_20  and  C_21
REMARK    9  A    between atoms: C_22  and  C_34
REMARK   10  A    between atoms: N_24  and  C_27
REMARK   11  A    between atoms: C_25  and  C_26
REMARK   12  A    between atoms: C_30  and  C_33
REMARK                            x       y       z     vdW  Elec       q    Type
REMARK                         _______ _______ _______ _____ _____    ______ ____
ROOT
ATOM      1  C   UNL     1      -2.527   1.092   0.445  0.00  0.00    +0.172 C 
ENDROOT
BRANCH   1   2
ATOM      2  C   UNL     1      -1.279   1.917   0.259  0.00  0.00    +0.228 C 
ATOM      3  O   UNL     1      -1.271   3.085   0.586  0.00  0.00    -0.275 OA
ATOM      4  N   UNL     1      -0.173   1.357  -0.270  0.00  0.00    -0.282 N 
ATOM      5  H   UNL     1      -0.207   0.326  -0.650  0.00  0.00    +0.155 HD
BRANCH   4   6
ATOM      6  C   UNL     1       1.025   2.092  -0.335  0.00  0.00    +0.078 A 
ATOM      7  C   UNL     1       1.160   3.414  -0.786  0.00  0.00    +0.082 A 
ATOM      8  N   UNL     1       2.421   3.753  -0.696  0.00  0.00    -0.170 NA
ATOM      9  N   UNL     1       3.138   2.660  -0.194  0.00  0.00    -0.235 N 
ATOM     10  C   UNL     1       2.257   1.646   0.022  0.00  0.00    +0.063 A 
ATOM     11  C   UNL     1       2.587   0.277   0.559  0.00  0.00    +0.068 C 
ATOM     12  C   UNL     1       0.044   4.294  -1.286  0.00  0.00    +0.069 C 
BRANCH   9  13
ATOM     13  C   UNL     1       4.519   2.618   0.045  0.00  0.00    +0.066 A 
ATOM     14  C   UNL     1       5.160   3.710   0.614  0.00  0.00    +0.028 A 
ATOM     15  C   UNL     1       6.520   3.664   0.852  0.00  0.00    +0.005 A 
ATOM     16  C   UNL     1       7.244   2.535   0.515  0.00  0.00    -0.050 A 
ATOM     17  C   UNL     1       6.609   1.448  -0.056  0.00  0.00    +0.005 A 
ATOM     18  C   UNL     1       5.249   1.486  -0.292  0.00  0.00    +0.028 A 
ATOM     19  C   UNL     1       8.728   2.490   0.771  0.00  0.00    +0.044 C 
ENDBRANCH   9  13
ENDBRANCH   4   6
ENDBRANCH   1   2
BRANCH   1  20
ATOM     20  S   UNL     1      -3.830   2.123   1.172  0.00  0.00    -0.088 S 
BRANCH  20  25
ATOM     21  N   UNL     1      -8.783  -0.771   2.015  0.00  0.00    -0.289 N 
ATOM     22  C   UNL     1      -7.512  -0.289   1.725  0.00  0.00    +0.187 A 
ATOM     23  N   UNL     1      -6.479  -0.920   1.200  0.00  0.00    -0.125 NA
ATOM     24  N   UNL     1      -5.299  -0.244   0.990  0.00  0.00    -0.133 NA
ATOM     25  C   UNL     1      -5.204   1.029   1.324  0.00  0.00    +0.160 A 
ATOM     26  S   UNL     1      -6.841   1.349   1.963  0.00  0.00    -0.024 S 
ATOM     27  H   UNL     1      -9.574  -0.077   2.337  0.00  0.00    +0.154 HD
BRANCH  21  33
ATOM     28  C   UNL     1     -10.364  -2.603   2.028  0.00  0.00    +0.142 A 
ATOM     29  C   UNL     1     -10.630  -3.957   1.906  0.00  0.00    +0.047 A 
ATOM     30  C   UNL     1      -9.598  -4.845   1.665  0.00  0.00    +0.004 A 
ATOM     31  C   UNL     1      -8.300  -4.386   1.540  0.00  0.00    +0.002 A 
ATOM     32  C   UNL     1      -8.027  -3.036   1.656  0.00  0.00    +0.027 A 
ATOM     33  C   UNL     1      -9.057  -2.138   1.897  0.00  0.00    +0.075 A 
BRANCH  28  34
ATOM     34  O   UNL     1     -11.377  -1.728   2.270  0.00  0.00    -0.490 OA
BRANCH  34  36
ATOM     35  C   UNL     1     -13.691  -1.149   2.662  0.00  0.00    +0.048 C 
ATOM     36  C   UNL     1     -12.692  -2.276   2.393  0.00  0.00    +0.226 C 
ENDBRANCH  34  36
ENDBRANCH  28  34
ENDBRANCH  21  33
ENDBRANCH  20  25
ENDBRANCH   1  20
TORSDOF 8
