REMARK  Name = ZINC14832354
REMARK  12 active torsions:
REMARK  status: ('A' for Active; 'I' for Inactive)
REMARK    1  A    between atoms: C_1  and  C_2
REMARK    2  A    between atoms: C_2  and  C_3
REMARK    3  A    between atoms: C_3  and  C_5
REMARK    4  A    between atoms: C_3  and  C_6
REMARK    5  A    between atoms: C_9  and  O_13
REMARK    6  A    between atoms: O_13  and  C_14
REMARK    7  A    between atoms: C_14  and  C_15
REMARK    8  A    between atoms: N_17  and  N_18
REMARK    9  A    between atoms: C_19  and  C_21
REMARK   10  A    between atoms: C_21  and  C_23
REMARK   11  A    between atoms: C_21  and  O_24
REMARK   12  A    between atoms: O_24  and  C_25
REMARK                            x       y       z     vdW  Elec       q    Type
REMARK                         _______ _______ _______ _____ _____    ______ ____
ROOT
ATOM      1  C   UNL     1      -7.025  -0.256  -1.200  0.00  0.00    +0.267 C 
ATOM      2  O   UNL     1      -7.195   0.873  -0.792  0.00  0.00    -0.271 OA
ATOM      3  N   UNL     1      -5.807  -0.828  -1.114  0.00  0.00    -0.231 N 
ATOM      4  H   UNL     1      -5.671  -1.731  -1.440  0.00  0.00    +0.173 HD
ENDROOT
BRANCH   3   5
ATOM      5  N   UNL     1      -4.738  -0.117  -0.553  0.00  0.00    -0.231 N 
ATOM      6  C   UNL     1      -3.520  -0.689  -0.467  0.00  0.00    +0.270 C 
ATOM      7  O   UNL     1      -3.350  -1.818  -0.875  0.00  0.00    -0.270 OA
ATOM      8  H   UNL     1      -4.874   0.786  -0.227  0.00  0.00    +0.173 HD
BRANCH   6   9
ATOM      9  C   UNL     1      -2.370   0.076   0.136  0.00  0.00    +0.257 C 
ATOM     10  C   UNL     1      -2.653   0.339   1.617  0.00  0.00    +0.062 C 
BRANCH   9  11
ATOM     11  O   UNL     1      -1.171  -0.691   0.010  0.00  0.00    -0.480 OA
BRANCH  11  12
ATOM     12  C   UNL     1       0.002  -0.004   0.007  0.00  0.00    +0.122 A 
ATOM     13  C   UNL     1      -0.004   1.375   0.240  0.00  0.00    +0.046 A 
ATOM     14  C   UNL     1       1.153   2.088   0.244  0.00  0.00    +0.012 A 
ATOM     15  C   UNL     1       2.376   1.435   0.010  0.00  0.00    -0.018 A 
ATOM     16  C   UNL     1       3.590   2.142   0.006  0.00  0.00    +0.008 A 
ATOM     17  C   UNL     1       4.756   1.478  -0.224  0.00  0.00    +0.001 A 
ATOM     18  C   UNL     1       4.765   0.104  -0.457  0.00  0.00    +0.001 A 
ATOM     19  C   UNL     1       3.609  -0.614  -0.461  0.00  0.00    +0.008 A 
ATOM     20  C   UNL     1       2.385   0.038  -0.227  0.00  0.00    -0.014 A 
ATOM     21  C   UNL     1       1.172  -0.670  -0.224  0.00  0.00    +0.054 A 
ENDBRANCH  11  12
ENDBRANCH   9  11
ENDBRANCH   6   9
ENDBRANCH   3   5
BRANCH   1  22
ATOM     22  C   UNL     1      -8.175  -1.020  -1.803  0.00  0.00    +0.326 C 
BRANCH  22  23
ATOM     23  O   UNL     1      -9.350  -0.208  -1.781  0.00  0.00    -0.482 OA
BRANCH  23  27
ATOM     24  C   UNL     1     -12.798  -1.859  -3.333  0.00  0.00    -0.043 A 
ATOM     25  C   UNL     1     -11.626  -2.592  -3.323  0.00  0.00    +0.007 A 
ATOM     26  C   UNL     1     -10.468  -2.039  -2.810  0.00  0.00    +0.047 A 
ATOM     27  C   UNL     1     -10.486  -0.752  -2.293  0.00  0.00    +0.135 A 
ATOM     28  C   UNL     1     -11.664  -0.018  -2.304  0.00  0.00    +0.060 A 
ATOM     29  C   UNL     1     -12.818  -0.574  -2.824  0.00  0.00    +0.022 A 
ATOM     30 BR   UNL     1     -11.691   1.740  -1.608  0.00  0.00    -0.047 Br
BRANCH  24  31
ATOM     31  C   UNL     1     -14.057  -2.463  -3.901  0.00  0.00    +0.016 C 
ATOM     32  C   UNL     1     -14.416  -3.726  -3.115  0.00  0.00    +0.012 C 
BRANCH  31  34
ATOM     33  C   UNL     1     -15.145  -3.320  -5.980  0.00  0.00    +0.004 C 
ATOM     34  C   UNL     1     -13.833  -2.823  -5.370  0.00  0.00    +0.004 C 
ENDBRANCH  31  34
ENDBRANCH  24  31
ENDBRANCH  23  27
ENDBRANCH  22  23
ENDBRANCH   1  22
TORSDOF 9
