REMARK  Name = ZINC59170650
REMARK  9 active torsions:
REMARK  status: ('A' for Active; 'I' for Inactive)
REMARK    1  A    between atoms: C_1  and  C_2
REMARK    2  A    between atoms: C_2  and  C_3
REMARK    3  A    between atoms: C_8  and  N_9
REMARK    4  A    between atoms: C_10  and  C_12
REMARK    5  A    between atoms: C_17  and  O_33
REMARK    6  A    between atoms: N_22  and  C_23
REMARK    7  A    between atoms: C_26  and  S_29
REMARK    8  A    between atoms: S_29  and  N_32
REMARK    9  A    between atoms: O_33  and  C_34
REMARK                            x       y       z     vdW  Elec       q    Type
REMARK                         _______ _______ _______ _____ _____    ______ ____
ROOT
ATOM      1  C   UNL     1       4.896  -0.289   1.145  0.00  0.00    +0.098 A 
ATOM      2  C   UNL     1       6.280  -0.388   1.138  0.00  0.00    +0.030 A 
ATOM      3  C   UNL     1       6.977  -0.103   2.340  0.00  0.00    +0.018 A 
ATOM      4  C   UNL     1       8.376   0.009   2.339  0.00  0.00    +0.015 A 
ATOM      5  C   UNL     1       9.033   0.324   3.492  0.00  0.00    +0.046 A 
ATOM      6  C   UNL     1       8.326   0.528   4.676  0.00  0.00    +0.124 A 
ATOM      7  C   UNL     1       6.945   0.402   4.700  0.00  0.00    +0.092 A 
ATOM      8  C   UNL     1       6.263   0.076   3.540  0.00  0.00    +0.141 A 
ATOM      9  O   UNL     1       4.918  -0.092   3.562  0.00  0.00    -0.438 OA
ATOM     10  C   UNL     1       4.252   0.144   2.400  0.00  0.00    +0.212 A 
ATOM     11  N   UNL     1       3.076   0.735   2.393  0.00  0.00    -0.325 N 
ATOM     12  H   UNL     1       2.671   1.000   1.553  0.00  0.00    +0.169 HD
ENDROOT
BRANCH  11  13
ATOM     13  C   UNL     1       2.425   0.975   3.572  0.00  0.00    +0.042 A 
ATOM     14  C   UNL     1       2.361  -0.017   4.553  0.00  0.00    +0.027 A 
ATOM     15  C   UNL     1       1.703   0.233   5.739  0.00  0.00    +0.030 A 
ATOM     16  C   UNL     1       1.107   1.462   5.958  0.00  0.00    +0.105 A 
ATOM     17  C   UNL     1       1.167   2.450   4.991  0.00  0.00    +0.030 A 
ATOM     18  C   UNL     1       1.827   2.216   3.802  0.00  0.00    +0.027 A 
BRANCH  16  19
ATOM     19  S   UNL     1       0.269   1.772   7.477  0.00  0.00    +0.056 S 
ATOM     20  O   UNL     1      -0.671   2.806   7.218  0.00  0.00    -0.153 OA
ATOM     21  O   UNL     1      -0.115   0.506   7.994  0.00  0.00    -0.153 OA
BRANCH  19  22
ATOM     22  N   UNL     1       1.381   2.397   8.532  0.00  0.00    -0.204 NA
ATOM     23  H   UNL     1       2.301   2.523   8.249  0.00  0.00    +0.144 HD
ATOM     24  H   UNL     1       1.114   2.637   9.433  0.00  0.00    +0.144 HD
ENDBRANCH  19  22
ENDBRANCH  16  19
ENDBRANCH  11  13
BRANCH   1  26
ATOM     25  N   UNL     1       2.756  -0.611   0.013  0.00  0.00    -0.281 N 
ATOM     26  C   UNL     1       4.102  -0.599  -0.055  0.00  0.00    +0.253 C 
ATOM     27  O   UNL     1       4.660  -0.845  -1.107  0.00  0.00    -0.270 OA
ATOM     28  H   UNL     1       2.310  -0.370   0.840  0.00  0.00    +0.155 HD
BRANCH  25  34
ATOM     29  C   UNL     1       0.696  -1.415  -0.957  0.00  0.00    -0.026 A 
ATOM     30  C   UNL     1      -0.047  -1.763  -2.068  0.00  0.00    +0.005 A 
ATOM     31  C   UNL     1       0.510  -1.674  -3.330  0.00  0.00    +0.000 A 
ATOM     32  C   UNL     1       1.813  -1.236  -3.485  0.00  0.00    +0.002 A 
ATOM     33  C   UNL     1       2.561  -0.886  -2.379  0.00  0.00    +0.023 A 
ATOM     34  C   UNL     1       2.002  -0.969  -1.109  0.00  0.00    +0.037 A 
BRANCH  29  36
ATOM     35  C   UNL     1      -0.485  -0.151   0.820  0.00  0.00    +0.009 C 
ATOM     36  C   UNL     1       0.088  -1.512   0.418  0.00  0.00    +0.033 C 
ENDBRANCH  29  36
ENDBRANCH  25  34
ENDBRANCH   1  26
BRANCH   6  37
ATOM     37  O   UNL     1       8.993   0.853   5.812  0.00  0.00    -0.495 OA
ATOM     38  C   UNL     1      10.414   0.967   5.720  0.00  0.00    +0.277 C 
ENDBRANCH   6  37
TORSDOF 7
