REMARK  Name = ZINC37892207
REMARK  12 active torsions:
REMARK  status: ('A' for Active; 'I' for Inactive)
REMARK    1  A    between atoms: C_1  and  C_2
REMARK    2  A    between atoms: C_2  and  C_3
REMARK    3  A    between atoms: C_3  and  N_4
REMARK    4  A    between atoms: C_5  and  C_7
REMARK    5  A    between atoms: C_7  and  N_8
REMARK    6  A    between atoms: N_8  and  C_9
REMARK    7  A    between atoms: C_9  and  C_10
REMARK    8  A    between atoms: C_10  and  C_12
REMARK    9  A    between atoms: C_10  and  O_22
REMARK   10  A    between atoms: C_12  and  O_13
REMARK   11  A    between atoms: O_13  and  C_14
REMARK   12  A    between atoms: C_17  and  C_21
REMARK                            x       y       z     vdW  Elec       q    Type
REMARK                         _______ _______ _______ _____ _____    ______ ____
ROOT
ATOM      1  C   UNL     1      -5.345  -6.702   0.017  0.00  0.00    +0.135 C 
ENDROOT
BRANCH   1   2
ATOM      2  O   UNL     1      -6.000  -6.326  -1.196  0.00  0.00    -0.390 OA
ATOM      3  H   UNL     1      -5.576  -6.668  -1.994  0.00  0.00    +0.210 HD
ENDBRANCH   1   2
BRANCH   1   4
ATOM      4  C   UNL     1      -3.909  -6.172   0.006  0.00  0.00    -0.047 C 
BRANCH   4   5
ATOM      5  N   UNL     1      -3.929  -4.704   0.014  0.00  0.00    +0.386 N 
ATOM      6  H   UNL     1      -4.401  -4.378   0.845  0.00  0.00    -0.085 HD
ATOM      7  H   UNL     1      -4.417  -4.369  -0.803  0.00  0.00    -0.085 HD
BRANCH   5   8
ATOM      8  C   UNL     1      -2.551  -4.195   0.004  0.00  0.00    +0.015 C 
BRANCH   8  10
ATOM      9  N   UNL     1      -1.413  -1.998   0.005  0.00  0.00    -0.317 N 
ATOM     10  C   UNL     1      -2.571  -2.688   0.012  0.00  0.00    +0.196 C 
ATOM     11  O   UNL     1      -3.630  -2.096   0.025  0.00  0.00    -0.278 OA
ATOM     12  H   UNL     1      -0.567  -2.472  -0.006  0.00  0.00    +0.149 HD
BRANCH   9  13
ATOM     13  C   UNL     1      -1.433  -0.534   0.013  0.00  0.00    +0.104 C 
BRANCH  13  15
ATOM     14  C   UNL     1      -0.019   1.526   0.010  0.00  0.00    +0.005 C 
ATOM     15  C   UNL     1       0.002  -0.004   0.002  0.00  0.00    +0.015 C 
ENDBRANCH  13  15
ENDBRANCH   9  13
ENDBRANCH   8  10
ENDBRANCH   5   8
ENDBRANCH   4   5
ENDBRANCH   1   4
BRANCH   1  16
ATOM     16  C   UNL     1      -5.324  -8.227   0.134  0.00  0.00    +0.258 C 
BRANCH  16  17
ATOM     17  O   UNL     1      -6.662  -8.713   0.262  0.00  0.00    -0.488 OA
BRANCH  17  18
ATOM     18  C   UNL     1      -6.822 -10.058   0.377  0.00  0.00    +0.135 A 
ATOM     19  C   UNL     1      -5.714 -10.892   0.374  0.00  0.00    +0.047 A 
ATOM     20  C   UNL     1      -5.879 -12.259   0.491  0.00  0.00    +0.007 A 
ATOM     21  C   UNL     1      -7.148 -12.795   0.612  0.00  0.00    -0.049 A 
ATOM     22  C   UNL     1      -8.255 -11.967   0.616  0.00  0.00    +0.022 A 
ATOM     23  C   UNL     1      -8.095 -10.598   0.504  0.00  0.00    +0.060 A 
ATOM     24 BR   UNL     1      -9.608  -9.464   0.518  0.00  0.00    -0.047 Br
ATOM     25  C   UNL     1      -7.325 -14.287   0.739  0.00  0.00    +0.044 C 
ENDBRANCH  17  18
ENDBRANCH  16  17
ENDBRANCH   1  16
TORSDOF 10
