REMARK  Name = ZINC34756580
REMARK  6 active torsions:
REMARK  status: ('A' for Active; 'I' for Inactive)
REMARK    1  A    between atoms: C_1  and  C_2
REMARK    2  A    between atoms: N_17  and  C_20
REMARK    3  A    between atoms: N_27  and  C_28
REMARK    4  A    between atoms: C_31  and  C_34
REMARK    5  A    between atoms: C_34  and  C_35
REMARK    6  A    between atoms: C_34  and  C_36
REMARK                            x       y       z     vdW  Elec       q    Type
REMARK                         _______ _______ _______ _____ _____    ______ ____
ROOT
ATOM      1  C   UNL     1      -2.384   0.444  -1.364  0.00  0.00    +0.007 C 
ATOM      2  C   UNL     1      -1.483  -0.326  -0.396  0.00  0.00    -0.011 C 
ATOM      3  C   UNL     1      -1.239  -1.736  -0.939  0.00  0.00    +0.022 C 
ATOM      4  C   UNL     1      -0.309  -2.492   0.015  0.00  0.00    +0.107 C 
ATOM      5  N   UNL     1      -0.886  -2.457   1.366  0.00  0.00    -0.315 N 
ATOM      6  C   UNL     1      -1.243  -1.155   1.948  0.00  0.00    +0.107 C 
ATOM      7  C   UNL     1      -2.163  -0.414   0.972  0.00  0.00    +0.022 C 
ATOM      8  C   UNL     1      -1.091  -3.628   2.077  0.00  0.00    +0.131 A 
ATOM      9  C   UNL     1      -0.057  -4.182   2.842  0.00  0.00    +0.031 A 
ATOM     10  C   UNL     1      -0.300  -5.340   3.538  0.00  0.00    +0.054 A 
ATOM     11  N   UNL     1      -1.504  -5.903   3.450  0.00  0.00    -0.219 NA
ATOM     12  C   UNL     1      -2.463  -5.360   2.718  0.00  0.00    +0.220 A 
ATOM     13  N   UNL     1      -2.271  -4.235   2.046  0.00  0.00    -0.199 NA
ATOM     14  N   UNL     1      -3.699  -5.980   2.659  0.00  0.00    -0.303 N 
ATOM     15  C   UNL     1      -4.791  -5.413   1.853  0.00  0.00    +0.089 C 
ATOM     16  C   UNL     1      -5.362  -6.521   0.961  0.00  0.00    -0.060 C 
ATOM     17  N   UNL     1      -5.753  -7.665   1.794  0.00  0.00    +0.380 N 
ATOM     18  C   UNL     1      -4.567  -8.246   2.435  0.00  0.00    -0.060 C 
ATOM     19  C   UNL     1      -3.956  -7.227   3.396  0.00  0.00    +0.089 C 
ATOM     20  C   UNL     1      -6.400  -8.681   0.953  0.00  0.00    -0.096 C 
ATOM     21  C   UNL     1       0.732  -6.000   4.412  0.00  0.00    +0.075 C 
ATOM     22  C   UNL     1       2.138  -5.535   4.037  0.00  0.00    +0.116 C 
ATOM     23  N   UNL     1       2.117  -4.067   3.919  0.00  0.00    -0.281 N 
ATOM     24  C   UNL     1       1.278  -3.487   2.863  0.00  0.00    +0.149 C 
ATOM     25  C   UNL     1       2.838  -3.287   4.748  0.00  0.00    +0.307 C 
ATOM     26  O   UNL     1       3.590  -3.794   5.559  0.00  0.00    -0.252 OA
ATOM     27  N   UNL     1       2.726  -1.946   4.679  0.00  0.00    -0.269 N 
ATOM     28  H   UNL     1       2.029  -1.545   4.137  0.00  0.00    +0.156 HD
ATOM     29  H   UNL     1      -6.401  -7.357   2.503  0.00  0.00    -0.082 HD
ENDROOT
BRANCH  27  30
ATOM     30  C   UNL     1       3.615  -1.132   5.391  0.00  0.00    +0.035 A 
ATOM     31  C   UNL     1       4.262  -1.626   6.516  0.00  0.00    +0.023 A 
ATOM     32  C   UNL     1       5.139  -0.820   7.215  0.00  0.00    +0.006 A 
ATOM     33  C   UNL     1       5.373   0.477   6.796  0.00  0.00    -0.045 A 
ATOM     34  C   UNL     1       4.729   0.972   5.677  0.00  0.00    +0.006 A 
ATOM     35  C   UNL     1       3.855   0.169   4.970  0.00  0.00    +0.023 A 
BRANCH  33  36
ATOM     36  C   UNL     1       6.330   1.353   7.562  0.00  0.00    +0.013 C 
ATOM     37  C   UNL     1       7.472   1.788   6.641  0.00  0.00    +0.012 C 
ATOM     38  C   UNL     1       5.590   2.590   8.076  0.00  0.00    +0.012 C 
ENDBRANCH  33  36
ENDBRANCH  27  30
TORSDOF 2
