REMARK  Name = ZINC08790658
REMARK  7 active torsions:
REMARK  status: ('A' for Active; 'I' for Inactive)
REMARK    1  A    between atoms: C_1  and  C_2
REMARK    2  A    between atoms: C_2  and  C_3
REMARK    3  A    between atoms: C_17  and  C_19
REMARK    4  A    between atoms: C_19  and  C_20
REMARK    5  A    between atoms: C_20  and  C_21
REMARK    6  A    between atoms: N_26  and  C_29
REMARK    7  A    between atoms: C_29  and  C_30
REMARK                            x       y       z     vdW  Elec       q    Type
REMARK                         _______ _______ _______ _____ _____    ______ ____
ROOT
ATOM      1  C   UNL     1       4.881   2.600   5.445  0.00  0.00    -0.026 A 
ATOM      2  C   UNL     1       4.904   3.980   5.432  0.00  0.00    +0.005 A 
ATOM      3  C   UNL     1       3.820   4.692   4.951  0.00  0.00    +0.001 A 
ATOM      4  C   UNL     1       2.707   4.017   4.482  0.00  0.00    +0.004 A 
ATOM      5  C   UNL     1       2.679   2.641   4.493  0.00  0.00    -0.027 A 
ATOM      6  C   UNL     1       3.764   1.914   4.975  0.00  0.00    +0.039 A 
ATOM      7  N   UNL     1       3.504   0.544   4.888  0.00  0.00    -0.286 N 
ATOM      8  C   UNL     1       2.288   0.290   4.367  0.00  0.00    +0.211 C 
ATOM      9  O   UNL     1       1.796  -0.802   4.176  0.00  0.00    -0.277 OA
ATOM     10  C   UNL     1       1.658   1.623   4.070  0.00  0.00    +0.050 C 
ATOM     11  C   UNL     1       0.338   1.802   4.827  0.00  0.00    +0.088 C 
ATOM     12  C   UNL     1      -0.763   1.452   3.787  0.00  0.00    +0.073 C 
ATOM     13  C   UNL     1       0.011   1.072   2.506  0.00  0.00    -0.057 C 
ATOM     14  C   UNL     1      -1.406   0.212   4.364  0.00  0.00    +0.224 C 
ATOM     15  O   UNL     1      -2.327  -0.398   3.863  0.00  0.00    -0.275 OA
ATOM     16  N   UNL     1      -0.801  -0.110   5.513  0.00  0.00    -0.237 N 
ATOM     17  C   UNL     1       0.192   0.714   5.867  0.00  0.00    +0.225 C 
ATOM     18  O   UNL     1       0.870   0.606   6.867  0.00  0.00    -0.275 OA
ATOM     19  H   UNL     1       4.127  -0.144   5.169  0.00  0.00    +0.155 HD
ATOM     20  N   UNL     1       1.306   1.738   2.665  0.00  0.00    +0.394 N 
ATOM     21  H   UNL     1       2.015   1.278   2.083  0.00  0.00    -0.083 HD
ATOM     22  H   UNL     1       1.232   2.726   2.397  0.00  0.00    -0.083 HD
ENDROOT
BRANCH   1  24
ATOM     23  C   UNL     1       6.979   1.444   4.805  0.00  0.00    +0.009 C 
ATOM     24  C   UNL     1       6.067   1.834   5.970  0.00  0.00    +0.033 C 
ENDBRANCH   1  24
BRANCH  13  25
ATOM     25  C   UNL     1      -0.729   1.579   1.267  0.00  0.00    -0.006 C 
BRANCH  25  26
ATOM     26  C   UNL     1      -0.013   1.086   0.008  0.00  0.00    +0.094 C 
BRANCH  26  27
ATOM     27  C   UNL     1      -0.742   1.585  -1.213  0.00  0.00    +0.210 C 
ATOM     28  O   UNL     1      -1.736   2.268  -1.088  0.00  0.00    -0.276 OA
ATOM     29  N   UNL     1      -0.288   1.272  -2.443  0.00  0.00    -0.329 N 
ATOM     30  H   UNL     1       0.507   0.726  -2.543  0.00  0.00    +0.145 HD
ATOM     31  H   UNL     1      -0.758   1.594  -3.229  0.00  0.00    +0.145 HD
ENDBRANCH  26  27
ENDBRANCH  25  26
ENDBRANCH  13  25
BRANCH  16  32
ATOM     32  C   UNL     1      -1.193  -1.269   6.318  0.00  0.00    +0.151 C 
BRANCH  32  33
ATOM     33  C   UNL     1      -0.402  -2.475   5.881  0.00  0.00    -0.026 A 
ATOM     34  C   UNL     1       0.810  -2.759   6.482  0.00  0.00    +0.009 A 
ATOM     35  C   UNL     1       1.540  -3.864   6.085  0.00  0.00    +0.050 A 
ATOM     36  C   UNL     1       1.057  -4.690   5.083  0.00  0.00    +0.166 A 
ATOM     37  C   UNL     1      -0.164  -4.404   4.477  0.00  0.00    +0.167 A 
ATOM     38  C   UNL     1      -0.893  -3.298   4.885  0.00  0.00    +0.054 A 
ATOM     39  O   UNL     1      -0.416  -5.356   3.532  0.00  0.00    -0.453 OA
ATOM     40  C   UNL     1       0.462  -6.452   3.847  0.00  0.00    +0.466 C 
ATOM     41  O   UNL     1       1.570  -5.821   4.517  0.00  0.00    -0.453 OA
ENDBRANCH  32  33
ENDBRANCH  16  32
TORSDOF 6
