REMARK  Name = ZINC02324753
REMARK  11 active torsions:
REMARK  status: ('A' for Active; 'I' for Inactive)
REMARK    1  A    between atoms: C_1  and  C_2
REMARK    2  A    between atoms: C_7  and  O_8
REMARK    3  A    between atoms: O_8  and  C_9
REMARK    4  A    between atoms: C_9  and  C_10
REMARK    5  A    between atoms: N_12  and  N_13
REMARK    6  A    between atoms: C_14  and  C_16
REMARK    7  A    between atoms: C_19  and  C_21
REMARK    8  A    between atoms: C_21  and  S_22
REMARK    9  A    between atoms: S_22  and  C_23
REMARK   10  A    between atoms: C_25  and  C_33
REMARK   11  A    between atoms: C_27  and  C_29
REMARK                            x       y       z     vdW  Elec       q    Type
REMARK                         _______ _______ _______ _____ _____    ______ ____
ROOT
ATOM      1  N   UNL     1      -3.517   2.318   0.029  0.00  0.00    -0.228 N 
ATOM      2  C   UNL     1      -2.513   1.419   0.020  0.00  0.00    +0.295 C 
ATOM      3  O   UNL     1      -2.763   0.228   0.014  0.00  0.00    -0.265 OA
ATOM      4  H   UNL     1      -3.317   3.268   0.033  0.00  0.00    +0.173 HD
ENDROOT
BRANCH   2   5
ATOM      5  C   UNL     1      -1.119   1.876   0.017  0.00  0.00    +0.191 A 
ATOM      6  C   UNL     1      -0.013   1.076   0.008  0.00  0.00    +0.055 A 
ATOM      7  C   UNL     1       1.102   1.929   0.002  0.00  0.00    +0.046 A 
ATOM      8  C   UNL     1       0.633   3.196   0.013  0.00  0.00    +0.116 A 
ATOM      9  O   UNL     1      -0.706   3.160   0.026  0.00  0.00    -0.454 OA
BRANCH   8  10
ATOM     10  C   UNL     1       1.478   4.444   0.013  0.00  0.00    +0.151 C 
BRANCH  10  11
ATOM     11  S   UNL     1       1.800   4.954  -1.694  0.00  0.00    -0.078 S 
BRANCH  11  12
ATOM     12  C   UNL     1       2.776   6.392  -1.405  0.00  0.00    +0.189 A 
ATOM     13  N   UNL     1       3.034   6.759  -0.157  0.00  0.00    -0.227 NA
ATOM     14  C   UNL     1       3.768   7.830   0.094  0.00  0.00    +0.043 A 
ATOM     15  C   UNL     1       4.260   8.577  -0.965  0.00  0.00    +0.055 A 
ATOM     16  C   UNL     1       3.967   8.168  -2.257  0.00  0.00    +0.148 A 
ATOM     17  N   UNL     1       3.232   7.084  -2.439  0.00  0.00    -0.218 NA
ATOM     18  C   UNL     1       4.062   8.236   1.515  0.00  0.00    +0.066 C 
BRANCH  16  19
ATOM     19  C   UNL     1       4.481   8.949  -3.439  0.00  0.00    +0.434 C 
ATOM     20  F   UNL     1       3.960   8.406  -4.619  0.00  0.00    -0.164 F 
ATOM     21  F   UNL     1       4.081  10.285  -3.325  0.00  0.00    -0.164 F 
ATOM     22  F   UNL     1       5.878   8.881  -3.471  0.00  0.00    -0.164 F 
ENDBRANCH  16  19
ENDBRANCH  11  12
ENDBRANCH  10  11
ENDBRANCH   8  10
ENDBRANCH   2   5
BRANCH   1  25
ATOM     23  C   UNL     1      -5.852   2.781   0.041  0.00  0.00    +0.267 C 
ATOM     24  O   UNL     1      -5.603   3.968   0.046  0.00  0.00    -0.271 OA
ATOM     25  N   UNL     1      -4.848   1.882   0.032  0.00  0.00    -0.231 N 
ATOM     26  H   UNL     1      -5.047   0.933   0.028  0.00  0.00    +0.173 HD
BRANCH  23  27
ATOM     27  C   UNL     1      -7.284   2.312   0.044  0.00  0.00    +0.326 C 
BRANCH  27  28
ATOM     28  O   UNL     1      -8.156   3.444   0.054  0.00  0.00    -0.482 OA
BRANCH  28  35
ATOM     29  C   UNL     1      -9.897   5.668   0.085  0.00  0.00    +0.047 C 
ATOM     30  C   UNL     1     -10.396   4.246   0.073  0.00  0.00    -0.007 A 
ATOM     31  C   UNL     1     -11.753   3.989   0.072  0.00  0.00    +0.027 A 
ATOM     32  C   UNL     1     -12.211   2.684   0.067  0.00  0.00    +0.041 A 
ATOM     33  C   UNL     1     -11.311   1.633   0.057  0.00  0.00    +0.023 A 
ATOM     34  C   UNL     1      -9.953   1.885   0.053  0.00  0.00    +0.047 A 
ATOM     35  C   UNL     1      -9.492   3.194   0.058  0.00  0.00    +0.124 A 
ATOM     36 CL   UNL     1     -13.918   2.364   0.073  0.00  0.00    -0.084 Cl
ENDBRANCH  28  35
ENDBRANCH  27  28
ENDBRANCH  23  27
ENDBRANCH   1  25
TORSDOF 9
