REMARK  Name = ZINC43216441
REMARK  12 active torsions:
REMARK  status: ('A' for Active; 'I' for Inactive)
REMARK    1  A    between atoms: C_1  and  C_2
REMARK    2  A    between atoms: C_2  and  C_4
REMARK    3  A    between atoms: C_2  and  N_30
REMARK    4  A    between atoms: C_6  and  C_9
REMARK    5  A    between atoms: N_11  and  C_12
REMARK    6  A    between atoms: C_12  and  C_14
REMARK    7  A    between atoms: C_12  and  C_18
REMARK    8  A    between atoms: C_14  and  C_15
REMARK    9  A    between atoms: C_15  and  C_16
REMARK   10  A    between atoms: C_15  and  C_17
REMARK   11  A    between atoms: N_20  and  C_21
REMARK   12  A    between atoms: C_24  and  N_27
REMARK                            x       y       z     vdW  Elec       q    Type
REMARK                         _______ _______ _______ _____ _____    ______ ____
ROOT
ATOM      1  C   UNL     1      -5.135  -3.136  -3.491  0.00  0.00    +0.160 C 
ENDROOT
BRANCH   1   4
ATOM      2  C   UNL     1      -4.354  -2.679  -1.229  0.00  0.00    +0.266 C 
ATOM      3  O   UNL     1      -5.509  -2.488  -0.898  0.00  0.00    -0.268 OA
ATOM      4  N   UNL     1      -4.059  -2.955  -2.514  0.00  0.00    -0.299 N 
ATOM      5  H   UNL     1      -3.133  -3.035  -2.793  0.00  0.00    +0.150 HD
BRANCH   2   8
ATOM      6  C   UNL     1      -1.318  -2.653   0.679  0.00  0.00    +0.181 A 
ATOM      7  N   UNL     1      -1.950  -2.797  -0.447  0.00  0.00    -0.210 NA
ATOM      8  C   UNL     1      -3.278  -2.607  -0.224  0.00  0.00    +0.163 A 
ATOM      9  C   UNL     1      -3.427  -2.339   1.102  0.00  0.00    +0.230 A 
ATOM     10  O   UNL     1      -2.201  -2.376   1.649  0.00  0.00    -0.449 OA
BRANCH   6  12
ATOM     11  C   UNL     1       0.787  -1.393   1.042  0.00  0.00    -0.005 C 
ATOM     12  C   UNL     1       0.172  -2.783   0.867  0.00  0.00    +0.010 C 
BRANCH  12  13
ATOM     13  N   UNL     1       0.446  -3.594   2.061  0.00  0.00    +0.386 N 
ATOM     14  H   UNL     1       0.042  -3.147   2.871  0.00  0.00    -0.089 HD
ATOM     15  H   UNL     1       0.040  -4.510   1.945  0.00  0.00    -0.089 HD
ATOM     16  H   UNL     1       1.443  -3.681   2.187  0.00  0.00    -0.089 HD
ENDBRANCH  12  13
ENDBRANCH   6  12
ENDBRANCH   2   8
ENDBRANCH   1   4
BRANCH   1  17
ATOM     17  C   UNL     1      -4.673  -4.066  -4.583  0.00  0.00    +0.238 C 
ATOM     18  O   UNL     1      -3.487  -4.252  -4.760  0.00  0.00    -0.273 OA
ATOM     19  N   UNL     1      -5.576  -4.693  -5.362  0.00  0.00    -0.284 N 
ATOM     20  H   UNL     1      -6.520  -4.489  -5.270  0.00  0.00    +0.155 HD
BRANCH  19  21
ATOM     21  C   UNL     1      -5.152  -5.638  -6.303  0.00  0.00    +0.034 A 
ATOM     22  C   UNL     1      -5.939  -6.750  -6.576  0.00  0.00    +0.025 A 
ATOM     23  C   UNL     1      -5.518  -7.680  -7.505  0.00  0.00    +0.034 A 
ATOM     24  C   UNL     1      -4.315  -7.506  -8.165  0.00  0.00    +0.126 A 
ATOM     25  C   UNL     1      -3.530  -6.400  -7.896  0.00  0.00    +0.034 A 
ATOM     26  C   UNL     1      -3.948  -5.463  -6.971  0.00  0.00    +0.025 A 
BRANCH  24  27
ATOM     27  N   UNL     1      -3.867  -8.505  -9.161  0.00  0.00    +0.056 N 
ATOM     28  O   UNL     1      -4.553  -9.473  -9.397  0.00  0.00    -0.126 OA
ATOM     29  O   UNL     1      -2.816  -8.354  -9.738  0.00  0.00    -0.126 OA
ENDBRANCH  24  27
ENDBRANCH  19  21
ENDBRANCH   1  17
BRANCH   1  30
ATOM     30  C   UNL     1      -5.505  -1.781  -4.099  0.00  0.00    +0.034 C 
BRANCH  30  31
ATOM     31  C   UNL     1      -6.707  -1.951  -5.030  0.00  0.00    -0.015 C 
ATOM     32  C   UNL     1      -7.939  -2.336  -4.208  0.00  0.00    +0.007 C 
ATOM     33  C   UNL     1      -6.974  -0.635  -5.763  0.00  0.00    +0.007 C 
ENDBRANCH  30  31
ENDBRANCH   1  30
TORSDOF 9
