REMARK  Name = ZINC67294414
REMARK  6 active torsions:
REMARK  status: ('A' for Active; 'I' for Inactive)
REMARK    1  A    between atoms: C_1  and  C_2
REMARK    2  A    between atoms: C_9  and  C_11
REMARK    3  A    between atoms: C_16  and  O_31
REMARK    4  A    between atoms: N_21  and  C_22
REMARK    5  A    between atoms: C_27  and  O_28
REMARK    6  A    between atoms: O_28  and  C_29
REMARK                            x       y       z     vdW  Elec       q    Type
REMARK                         _______ _______ _______ _____ _____    ______ ____
ROOT
ATOM      1  C   UNL     1       0.069  -6.432  -0.981  0.00  0.00    +0.098 A 
ATOM      2  C   UNL     1       0.398  -7.183  -2.101  0.00  0.00    +0.030 A 
ATOM      3  C   UNL     1       0.653  -8.568  -1.928  0.00  0.00    +0.018 A 
ATOM      4  C   UNL     1       1.181  -9.329  -2.982  0.00  0.00    +0.015 A 
ATOM      5  C   UNL     1       1.461 -10.650  -2.792  0.00  0.00    +0.046 A 
ATOM      6  C   UNL     1       1.218 -11.254  -1.560  0.00  0.00    +0.120 A 
ATOM      7  C   UNL     1       0.678 -10.523  -0.513  0.00  0.00    +0.092 A 
ATOM      8  C   UNL     1       0.381  -9.182  -0.691  0.00  0.00    +0.141 A 
ATOM      9  O   UNL     1      -0.188  -8.469   0.313  0.00  0.00    -0.438 OA
ATOM     10  C   UNL     1       0.047  -7.129   0.320  0.00  0.00    +0.212 A 
ATOM     11  N   UNL     1       0.243  -6.476   1.445  0.00  0.00    -0.322 N 
ATOM     12  H   UNL     1       0.524  -5.548   1.424  0.00  0.00    +0.169 HD
ENDROOT
BRANCH   1  21
ATOM     13  C   UNL     1      -2.033   1.123  -0.357  0.00  0.00    +0.045 C 
ATOM     14  C   UNL     1      -1.651  -0.334  -0.295  0.00  0.00    -0.032 A 
ATOM     15  C   UNL     1      -0.819  -0.882  -1.262  0.00  0.00    +0.008 A 
ATOM     16  C   UNL     1      -0.492  -2.223  -1.168  0.00  0.00    +0.044 A 
ATOM     17  C   UNL     1      -1.005  -2.972  -0.114  0.00  0.00    +0.125 A 
ATOM     18  N   UNL     1      -1.796  -2.412   0.788  0.00  0.00    -0.240 NA
ATOM     19  C   UNL     1      -2.120  -1.135   0.727  0.00  0.00    +0.116 A 
ATOM     20  N   UNL     1      -0.685  -4.324  -0.007  0.00  0.00    -0.266 N 
ATOM     21  C   UNL     1      -0.239  -4.998  -1.086  0.00  0.00    +0.254 C 
ATOM     22  O   UNL     1      -0.091  -4.420  -2.146  0.00  0.00    -0.270 OA
ATOM     23  H   UNL     1      -0.782  -4.779   0.843  0.00  0.00    +0.157 HD
ENDBRANCH   1  21
BRANCH  11  24
ATOM     24  C   UNL     1       0.051  -7.106   2.644  0.00  0.00    +0.085 A 
ATOM     25  C   UNL     1      -1.129  -7.812   2.885  0.00  0.00    +0.049 A 
ATOM     26  C   UNL     1      -1.317  -8.446   4.097  0.00  0.00    +0.043 A 
ATOM     27  C   UNL     1      -0.338  -8.384   5.075  0.00  0.00    +0.024 A 
ATOM     28  C   UNL     1       0.835  -7.687   4.847  0.00  0.00    +0.049 A 
ATOM     29  C   UNL     1       1.040  -7.051   3.635  0.00  0.00    +0.143 A 
ATOM     30 CL   UNL     1      -2.784  -9.324   4.396  0.00  0.00    -0.083 Cl
BRANCH  29  31
ATOM     31  O   UNL     1       2.195  -6.370   3.409  0.00  0.00    -0.493 OA
ATOM     32  C   UNL     1       3.158  -6.357   4.465  0.00  0.00    +0.277 C 
ENDBRANCH  29  31
ENDBRANCH  11  24
BRANCH   6  33
ATOM     33  O   UNL     1       1.513 -12.567  -1.384  0.00  0.00    -0.507 OA
ATOM     34  H   UNL     1       2.411 -12.729  -1.065  0.00  0.00    +0.292 HD
ENDBRANCH   6  33
TORSDOF 4
