REMARK  Name = ZINC45681829
REMARK  9 active torsions:
REMARK  status: ('A' for Active; 'I' for Inactive)
REMARK    1  A    between atoms: C_1  and  C_2
REMARK    2  A    between atoms: C_2  and  C_4
REMARK    3  A    between atoms: C_2  and  N_18
REMARK    4  A    between atoms: N_6  and  C_7
REMARK    5  A    between atoms: C_8  and  C_15
REMARK    6  A    between atoms: N_21  and  C_24
REMARK    7  A    between atoms: C_24  and  C_26
REMARK    8  A    between atoms: C_24  and  C_27
REMARK    9  A    between atoms: N_29  and  C_30
REMARK                            x       y       z     vdW  Elec       q    Type
REMARK                         _______ _______ _______ _____ _____    ______ ____
ROOT
ATOM      1  C   UNL     1      -0.947   1.889   0.159  0.00  0.00    +0.034 C 
ATOM      2  C   UNL     1      -1.476   1.515   1.546  0.00  0.00    +0.140 C 
ENDROOT
BRANCH   2   3
ATOM      3  N   UNL     1      -2.476   0.447   1.417  0.00  0.00    -0.295 NA
ATOM      4  C   UNL     1      -1.830  -0.855   1.195  0.00  0.00    +0.066 C 
ATOM      5  C   UNL     1      -2.900  -1.947   1.126  0.00  0.00    -0.062 C 
ATOM      6  N   UNL     1      -3.832  -1.650   0.030  0.00  0.00    +0.389 N 
ATOM      7  C   UNL     1      -4.487  -0.359   0.278  0.00  0.00    -0.062 C 
ATOM      8  C   UNL     1      -3.430   0.746   0.340  0.00  0.00    +0.066 C 
ATOM      9  H   UNL     1      -3.324  -1.608  -0.841  0.00  0.00    -0.081 HD
BRANCH   6  10
ATOM     10  C   UNL     1      -4.848  -2.708  -0.048  0.00  0.00    +0.016 C 
ATOM     11  C   UNL     1      -4.160  -4.065  -0.211  0.00  0.00    -0.004 C 
BRANCH  10  12
ATOM     12  C   UNL     1      -5.747  -2.455  -1.230  0.00  0.00    +0.199 C 
ATOM     13  O   UNL     1      -5.340  -1.814  -2.176  0.00  0.00    -0.278 OA
ATOM     14  N   UNL     1      -7.004  -2.942  -1.238  0.00  0.00    -0.314 N 
ATOM     15  H   UNL     1      -7.330  -3.455  -0.481  0.00  0.00    +0.149 HD
BRANCH  14  16
ATOM     16  C   UNL     1      -7.878  -2.696  -2.387  0.00  0.00    +0.073 C 
ATOM     17  C   UNL     1      -9.326  -2.294  -2.100  0.00  0.00    +0.024 C 
ATOM     18  C   UNL     1      -9.012  -3.692  -2.638  0.00  0.00    +0.024 C 
ENDBRANCH  14  16
ENDBRANCH  10  12
ENDBRANCH   6  10
ENDBRANCH   2   3
BRANCH   2  19
ATOM     19  C   UNL     1      -2.112   2.724   2.182  0.00  0.00    +0.235 C 
ATOM     20  O   UNL     1      -3.320   2.810   2.247  0.00  0.00    -0.274 OA
ATOM     21  N   UNL     1      -1.339   3.709   2.680  0.00  0.00    -0.278 N 
ATOM     22  H   UNL     1      -0.372   3.640   2.628  0.00  0.00    +0.155 HD
BRANCH  21  23
ATOM     23  C   UNL     1      -1.924   4.821   3.266  0.00  0.00    +0.084 A 
ATOM     24  C   UNL     1      -1.295   5.921   3.819  0.00  0.00    +0.068 A 
ATOM     25  C   UNL     1      -2.147   6.970   4.377  0.00  0.00    -0.023 A 
ATOM     26  C   UNL     1      -3.464   6.718   4.277  0.00  0.00    -0.004 A 
ATOM     27  S   UNL     1      -3.558   5.145   3.460  0.00  0.00    -0.077 S 
ATOM     28  C   UNL     1      -4.294   7.825   4.869  0.00  0.00    +0.043 C 
ATOM     29  C   UNL     1      -3.307   8.624   5.749  0.00  0.00    +0.010 C 
ATOM     30  C   UNL     1      -1.958   8.321   5.065  0.00  0.00    +0.037 C 
BRANCH  24  31
ATOM     31  C   UNL     1       0.167   6.031   3.845  0.00  0.00    +0.244 C 
ATOM     32  O   UNL     1       0.754   6.559   2.919  0.00  0.00    -0.270 OA
ATOM     33  N   UNL     1       0.861   5.546   4.895  0.00  0.00    -0.325 N 
ATOM     34  H   UNL     1       0.393   5.125   5.633  0.00  0.00    +0.145 HD
ATOM     35  H   UNL     1       1.828   5.619   4.912  0.00  0.00    +0.145 HD
ENDBRANCH  24  31
ENDBRANCH  21  23
ENDBRANCH   2  19
TORSDOF 7
