REMARK  Name = ZINC65772208
REMARK  4 active torsions:
REMARK  status: ('A' for Active; 'I' for Inactive)
REMARK    1  A    between atoms: C_3  and  N_20
REMARK    2  A    between atoms: C_6  and  N_7
REMARK    3  A    between atoms: N_10  and  C_11
REMARK    4  A    between atoms: C_14  and  N_18
REMARK                            x       y       z     vdW  Elec       q    Type
REMARK                         _______ _______ _______ _____ _____    ______ ____
ROOT
ATOM      1  N   UNL     1      -1.231  -0.644   0.152  0.00  0.00    -0.268 N 
ATOM      2  C   UNL     1      -2.369  -0.097  -0.320  0.00  0.00    +0.308 C 
ATOM      3  O   UNL     1      -2.375   1.058  -0.701  0.00  0.00    -0.252 OA
ATOM      4  N   UNL     1      -3.499  -0.829  -0.370  0.00  0.00    -0.269 N 
ATOM      5  H   UNL     1      -1.206  -1.585   0.386  0.00  0.00    +0.156 HD
ATOM      6  H   UNL     1      -3.513  -1.725   0.003  0.00  0.00    +0.156 HD
ENDROOT
BRANCH   4   7
ATOM      7  C   UNL     1      -4.653  -0.297  -0.960  0.00  0.00    +0.038 A 
ATOM      8  C   UNL     1      -4.545   0.565  -2.043  0.00  0.00    +0.045 A 
ATOM      9  C   UNL     1      -5.683   1.090  -2.625  0.00  0.00    +0.065 A 
ATOM     10  C   UNL     1      -6.936   0.755  -2.127  0.00  0.00    +0.062 A 
ATOM     11  C   UNL     1      -7.044  -0.108  -1.043  0.00  0.00    +0.065 A 
ATOM     12  C   UNL     1      -5.905  -0.636  -0.465  0.00  0.00    +0.045 A 
ATOM     13 CL   UNL     1      -8.609  -0.527  -0.419  0.00  0.00    -0.082 Cl
ATOM     14 CL   UNL     1      -5.547   2.168  -3.979  0.00  0.00    -0.082 Cl
BRANCH  10  15
ATOM     15  N   UNL     1      -8.090   1.287  -2.716  0.00  0.00    -0.356 N 
ATOM     16  H   UNL     1      -8.014   1.889  -3.473  0.00  0.00    +0.142 HD
ATOM     17  H   UNL     1      -8.964   1.053  -2.368  0.00  0.00    +0.142 HD
ENDBRANCH  10  15
ENDBRANCH   4   7
BRANCH   1  23
ATOM     18  C   UNL     1      -0.196   1.498   0.629  0.00  0.00    +0.028 A 
ATOM     19  C   UNL     1       0.962   2.240   0.772  0.00  0.00    +0.043 A 
ATOM     20  C   UNL     1       2.192   1.618   0.590  0.00  0.00    +0.099 A 
ATOM     21  N   UNL     1       2.262   0.332   0.284  0.00  0.00    -0.348 N 
ATOM     22  C   UNL     1       1.177  -0.405   0.140  0.00  0.00    +0.107 A 
ATOM     23  C   UNL     1      -0.084   0.147   0.306  0.00  0.00    +0.051 A 
ATOM     24  H   UNL     1       3.132  -0.078   0.162  0.00  0.00    +0.167 HD
BRANCH  20  25
ATOM     25  N   UNL     1       3.364   2.357   0.731  0.00  0.00    -0.317 N 
ATOM     26  C   UNL     1       3.442   3.785   1.072  0.00  0.00    +0.106 C 
ATOM     27  C   UNL     1       4.936   4.171   1.091  0.00  0.00    +0.020 C 
ATOM     28  C   UNL     1       5.589   3.077   0.205  0.00  0.00    +0.020 C 
ATOM     29  C   UNL     1       4.733   1.835   0.568  0.00  0.00    +0.106 C 
ENDBRANCH  20  25
ENDBRANCH   1  23
TORSDOF 4
