REMARK  Name = ZINC49568851
REMARK  4 active torsions:
REMARK  status: ('A' for Active; 'I' for Inactive)
REMARK    1  A    between atoms: C_3  and  S_19
REMARK    2  A    between atoms: C_6  and  N_7
REMARK    3  A    between atoms: N_7  and  C_8
REMARK    4  A    between atoms: S_19  and  N_22
REMARK                            x       y       z     vdW  Elec       q    Type
REMARK                         _______ _______ _______ _____ _____    ______ ____
ROOT
ATOM      1  C   UNL     1      -0.017   1.385   0.010  0.00  0.00    +0.025 A 
ATOM      2  C   UNL     1       1.171   2.090   0.002  0.00  0.00    +0.030 A 
ATOM      3  C   UNL     1       2.377   1.415  -0.013  0.00  0.00    +0.105 A 
ATOM      4  C   UNL     1       2.400   0.032  -0.021  0.00  0.00    +0.030 A 
ATOM      5  C   UNL     1       1.216  -0.679  -0.014  0.00  0.00    +0.025 A 
ATOM      6  C   UNL     1       0.002  -0.004   0.002  0.00  0.00    +0.027 A 
ENDROOT
BRANCH   3   7
ATOM      7  S   UNL     1       3.890   2.319  -0.024  0.00  0.00    +0.056 S 
ATOM      8  O   UNL     1       4.872   1.461  -0.589  0.00  0.00    -0.153 OA
ATOM      9  O   UNL     1       3.595   3.599  -0.566  0.00  0.00    -0.153 OA
BRANCH   7  10
ATOM     10  N   UNL     1       4.326   2.562   1.555  0.00  0.00    -0.204 NA
ATOM     11  H   UNL     1       5.264   2.630   1.794  0.00  0.00    +0.144 HD
ATOM     12  H   UNL     1       3.644   2.636   2.240  0.00  0.00    +0.144 HD
ENDBRANCH   7  10
ENDBRANCH   3   7
BRANCH   6  13
ATOM     13  N   UNL     1      -1.197  -0.720   0.010  0.00  0.00    -0.343 N 
ATOM     14  H   UNL     1      -2.044  -0.248   0.021  0.00  0.00    +0.146 HD
BRANCH  13  15
ATOM     15  C   UNL     1      -1.175  -2.185   0.002  0.00  0.00    +0.055 C 
ATOM     16  C   UNL     1      -1.137  -2.748   1.450  0.00  0.00    +0.002 C 
ATOM     17  C   UNL     1      -2.073  -3.981   1.425  0.00  0.00    -0.077 C 
ATOM     18  N   UNL     1      -2.503  -4.130   0.033  0.00  0.00    +0.383 N 
ATOM     19  C   UNL     1      -2.504  -2.752  -0.526  0.00  0.00    -0.048 C 
ATOM     20  C   UNL     1      -2.555  -2.875  -2.043  0.00  0.00    -0.014 C 
ATOM     21  C   UNL     1      -3.890  -3.545  -2.407  0.00  0.00    -0.003 C 
ATOM     22  C   UNL     1      -4.035  -4.882  -1.681  0.00  0.00    -0.019 C 
ATOM     23  C   UNL     1      -3.824  -4.706  -0.167  0.00  0.00    -0.078 C 
ATOM     24  H   UNL     1      -1.821  -4.678  -0.468  0.00  0.00    -0.081 HD
ENDBRANCH  13  15
ENDBRANCH   6  13
TORSDOF 4
