REMARK  Name = ZINC39001246
REMARK  11 active torsions:
REMARK  status: ('A' for Active; 'I' for Inactive)
REMARK    1  A    between atoms: C_1  and  C_2
REMARK    2  A    between atoms: C_6  and  C_28
REMARK    3  A    between atoms: C_7  and  N_8
REMARK    4  A    between atoms: C_9  and  C_11
REMARK    5  A    between atoms: C_11  and  S_12
REMARK    6  A    between atoms: S_12  and  C_13
REMARK    7  A    between atoms: C_17  and  C_21
REMARK    8  A    between atoms: N_19  and  N_20
REMARK    9  A    between atoms: C_24  and  C_27
REMARK   10  A    between atoms: C_28  and  C_29
REMARK   11  A    between atoms: C_28  and  C_30
REMARK                            x       y       z     vdW  Elec       q    Type
REMARK                         _______ _______ _______ _____ _____    ______ ____
ROOT
ATOM      1  S   UNL     1      -0.683   3.853   3.358  0.00  0.00    -0.115 S 
ENDROOT
BRANCH   1   2
ATOM      2  C   UNL     1      -0.366   4.712   4.924  0.00  0.00    +0.214 C 
ATOM      3  N   UNL     1       1.083   4.694   5.229  0.00  0.00    -0.228 NA
ATOM      4  N   UNL     1       1.149   4.526   6.689  0.00  0.00    -0.234 NA
ATOM      5  C   UNL     1       0.032   3.588   6.970  0.00  0.00    +0.185 C 
ATOM      6  N   UNL     1      -1.039   4.006   6.034  0.00  0.00    -0.197 NA
ATOM      7  H   UNL     1       1.542   3.930   4.755  0.00  0.00    +0.143 HD
ATOM      8  H   UNL     1       2.034   4.128   6.967  0.00  0.00    +0.143 HD
BRANCH   5   9
ATOM      9  C   UNL     1      -0.435   3.731   8.420  0.00  0.00    +0.186 C 
ATOM     10  C   UNL     1       0.706   3.452   9.382  0.00  0.00    +0.029 C 
ATOM     11  C   UNL     1       0.287   2.394  10.080  0.00  0.00    +0.058 C 
ATOM     12  N   UNL     1      -0.941   2.004   9.670  0.00  0.00    -0.159 NA
ATOM     13  N   UNL     1      -1.419   2.688   8.756  0.00  0.00    -0.177 NA
ATOM     14  C   UNL     1       1.075   1.725  11.176  0.00  0.00    +0.067 C 
ENDBRANCH   5   9
BRANCH   6  15
ATOM     15  N   UNL     1      -2.002   4.872   6.696  0.00  0.00    -0.264 NA
ATOM     16  H   UNL     1      -2.711   5.184   6.050  0.00  0.00    +0.137 HD
ATOM     17  H   UNL     1      -2.416   4.411   7.492  0.00  0.00    +0.137 HD
ENDBRANCH   6  15
ENDBRANCH   1   2
BRANCH   1  18
ATOM     18  C   UNL     1      -0.016   2.188   3.628  0.00  0.00    +0.168 C 
BRANCH  18  20
ATOM     19  N   UNL     1       0.203   0.079   2.354  0.00  0.00    -0.284 N 
ATOM     20  C   UNL     1      -0.217   1.359   2.386  0.00  0.00    +0.227 C 
ATOM     21  O   UNL     1      -0.758   1.843   1.414  0.00  0.00    -0.275 OA
ATOM     22  H   UNL     1       0.566  -0.332   3.155  0.00  0.00    +0.155 HD
BRANCH  19  29
ATOM     23  C   UNL     1      -2.383  -0.569   1.361  0.00  0.00    +0.045 C 
ATOM     24  C   UNL     1      -1.126  -0.995   0.648  0.00  0.00    -0.029 A 
ATOM     25  C   UNL     1      -1.208  -1.717  -0.527  0.00  0.00    +0.005 A 
ATOM     26  C   UNL     1      -0.055  -2.108  -1.182  0.00  0.00    +0.001 A 
ATOM     27  C   UNL     1       1.184  -1.778  -0.664  0.00  0.00    +0.006 A 
ATOM     28  C   UNL     1       1.273  -1.056   0.510  0.00  0.00    -0.023 A 
ATOM     29  C   UNL     1       0.117  -0.657   1.168  0.00  0.00    +0.040 A 
BRANCH  28  30
ATOM     30  C   UNL     1       2.624  -0.697   1.074  0.00  0.00    +0.015 C 
ATOM     31  C   UNL     1       3.411  -1.976   1.367  0.00  0.00    +0.012 C 
ATOM     32  C   UNL     1       3.391   0.153   0.059  0.00  0.00    +0.012 C 
ENDBRANCH  28  30
ENDBRANCH  19  29
ENDBRANCH  18  20
ENDBRANCH   1  18
TORSDOF 7
