REMARK  Name = ZINC09462565
REMARK  5 active torsions:
REMARK  status: ('A' for Active; 'I' for Inactive)
REMARK    1  A    between atoms: C_1  and  C_2
REMARK    2  A    between atoms: C_24  and  C_26
REMARK    3  A    between atoms: N_31  and  C_32
REMARK    4  A    between atoms: C_36  and  O_38
REMARK    5  A    between atoms: O_38  and  C_39
REMARK                            x       y       z     vdW  Elec       q    Type
REMARK                         _______ _______ _______ _____ _____    ______ ____
ROOT
ATOM      1  C   UNL     1      -3.143   2.429   2.785  0.00  0.00    +0.068 C 
ATOM      2  C   UNL     1      -2.866   3.901   2.616  0.00  0.00    +0.068 A 
ATOM      3  C   UNL     1      -2.673   4.554   1.408  0.00  0.00    +0.045 A 
ATOM      4  C   UNL     1      -2.447   5.895   1.672  0.00  0.00    +0.165 A 
ATOM      5  N   UNL     1      -2.506   6.038   3.033  0.00  0.00    -0.196 N 
ATOM      6  N   UNL     1      -2.768   4.778   3.586  0.00  0.00    -0.168 NA
ATOM      7  C   UNL     1      -2.334   7.228   3.743  0.00  0.00    +0.156 A 
ATOM      8  C   UNL     1      -2.911   7.370   4.999  0.00  0.00    +0.048 A 
ATOM      9  C   UNL     1      -2.729   8.552   5.694  0.00  0.00    +0.005 A 
ATOM     10  C   UNL     1      -1.982   9.561   5.101  0.00  0.00    +0.020 A 
ATOM     11  C   UNL     1      -1.442   9.353   3.847  0.00  0.00    +0.113 A 
ATOM     12  N   UNL     1      -1.628   8.213   3.211  0.00  0.00    -0.236 NA
ATOM     13  N   UNL     1      -2.226   6.770   0.667  0.00  0.00    -0.209 NA
ATOM     14  C   UNL     1      -2.205   6.450  -0.604  0.00  0.00    +0.169 C 
ATOM     15  C   UNL     1      -1.954   7.490  -1.620  0.00  0.00    +0.164 C 
ATOM     16  N   UNL     1      -1.934   7.173  -2.891  0.00  0.00    -0.227 NA
ATOM     17  C   UNL     1      -2.138   5.899  -3.312  0.00  0.00    +0.087 A 
ATOM     18  C   UNL     1      -2.107   5.599  -4.679  0.00  0.00    +0.030 A 
ATOM     19  C   UNL     1      -2.315   4.307  -5.104  0.00  0.00    +0.002 A 
ATOM     20  C   UNL     1      -2.555   3.295  -4.186  0.00  0.00    +0.002 A 
ATOM     21  C   UNL     1      -2.589   3.572  -2.834  0.00  0.00    +0.025 A 
ATOM     22  C   UNL     1      -2.381   4.870  -2.385  0.00  0.00    +0.062 A 
ATOM     23  N   UNL     1      -2.412   5.159  -1.034  0.00  0.00    -0.268 N 
ATOM     24  C   UNL     1      -2.664   4.108  -0.037  0.00  0.00    +0.153 C 
ATOM     25  N   UNL     1      -1.742   8.800  -1.231  0.00  0.00    -0.297 N 
ATOM     26  H   UNL     1      -1.833   9.049  -0.298  0.00  0.00    +0.154 HD
ENDROOT
BRANCH  25  27
ATOM     27  C   UNL     1      -1.397   9.764  -2.181  0.00  0.00    +0.036 A 
ATOM     28  C   UNL     1      -0.626   9.411  -3.282  0.00  0.00    +0.023 A 
ATOM     29  C   UNL     1      -0.289  10.364  -4.224  0.00  0.00    +0.005 A 
ATOM     30  C   UNL     1      -0.709  11.671  -4.069  0.00  0.00    +0.046 A 
ATOM     31  C   UNL     1      -1.475  12.030  -2.969  0.00  0.00    +0.122 A 
ATOM     32  C   UNL     1      -1.820  11.077  -2.024  0.00  0.00    +0.069 A 
BRANCH  31  33
ATOM     33  O   UNL     1      -1.887  13.317  -2.818  0.00  0.00    -0.495 OA
ATOM     34  C   UNL     1      -1.495  14.246  -3.831  0.00  0.00    +0.277 C 
ENDBRANCH  31  33
ENDBRANCH  25  27
BRANCH  24  35
ATOM     35  C   UNL     1      -1.606   3.047  -0.195  0.00  0.00    +0.015 A 
ATOM     36  C   UNL     1      -1.749   1.700  -0.246  0.00  0.00    +0.013 A 
ATOM     37  C   UNL     1      -0.623   0.911  -0.392  0.00  0.00    +0.008 A 
ATOM     38  C   UNL     1       0.590   1.509  -0.491  0.00  0.00    +0.045 A 
ATOM     39  S   UNL     1       0.160   3.237  -0.370  0.00  0.00    -0.099 S 
ENDBRANCH  24  35
TORSDOF 3
