REMARK  Name = ZINC09270531
REMARK  13 active torsions:
REMARK  status: ('A' for Active; 'I' for Inactive)
REMARK    1  A    between atoms: C_1  and  N_59
REMARK    2  A    between atoms: C_2  and  N_59
REMARK    3  A    between atoms: C_3  and  C_4
REMARK    4  A    between atoms: C_3  and  N_59
REMARK    5  A    between atoms: C_4  and  C_5
REMARK    6  A    between atoms: C_5  and  N_6
REMARK    7  A    between atoms: C_7  and  C_26
REMARK    8  A    between atoms: C_10  and  C_11
REMARK    9  A    between atoms: C_10  and  O_21
REMARK   10  A    between atoms: C_14  and  O_19
REMARK   11  A    between atoms: C_15  and  O_17
REMARK   12  A    between atoms: O_17  and  C_18
REMARK   13  A    between atoms: O_19  and  C_20
REMARK                            x       y       z     vdW  Elec       q    Type
REMARK                         _______ _______ _______ _____ _____    ______ ____
ROOT
ATOM      1  N   UNL     1       3.244  -6.447   0.245  0.00  0.00    -0.284 N 
ATOM      2  C   UNL     1       3.736  -5.069   0.160  0.00  0.00    +0.144 C 
ATOM      3  C   UNL     1       2.518  -4.180   0.061  0.00  0.00    +0.071 C 
ATOM      4  C   UNL     1       2.502  -2.801  -0.036  0.00  0.00    +0.133 C 
ATOM      5  C   UNL     1       1.407  -5.036   0.082  0.00  0.00    +0.249 C 
ATOM      6  O   UNL     1       0.240  -4.693   0.017  0.00  0.00    -0.282 OA
ATOM      7  C   UNL     1       1.901  -6.434   0.197  0.00  0.00    +0.288 C 
ATOM      8  O   UNL     1       1.194  -7.420   0.241  0.00  0.00    -0.266 OA
ENDROOT
BRANCH   2   9
ATOM      9  C   UNL     1       4.524  -4.728   1.399  0.00  0.00    -0.022 A 
ATOM     10  C   UNL     1       4.101  -5.183   2.634  0.00  0.00    +0.007 A 
ATOM     11  C   UNL     1       4.827  -4.875   3.769  0.00  0.00    +0.015 A 
ATOM     12  C   UNL     1       5.970  -4.103   3.671  0.00  0.00    +0.018 A 
ATOM     13  C   UNL     1       6.390  -3.643   2.436  0.00  0.00    +0.015 A 
ATOM     14  C   UNL     1       5.667  -3.956   1.300  0.00  0.00    +0.007 A 
ATOM     15 BR   UNL     1       6.959  -3.676   5.225  0.00  0.00    -0.050 Br
ENDBRANCH   2   9
BRANCH   4  16
ATOM     16  C   UNL     1       1.226  -2.074   0.029  0.00  0.00    +0.021 A 
ATOM     17  C   UNL     1       0.328  -2.324   1.074  0.00  0.00    +0.015 A 
ATOM     18  C   UNL     1      -0.867  -1.641   1.133  0.00  0.00    +0.050 A 
ATOM     19  C   UNL     1      -1.182  -0.701   0.161  0.00  0.00    +0.162 A 
ATOM     20  C   UNL     1      -0.295  -0.450  -0.887  0.00  0.00    +0.162 A 
ATOM     21  C   UNL     1       0.904  -1.130  -0.953  0.00  0.00    +0.061 A 
BRANCH  20  22
ATOM     22  O   UNL     1      -0.610   0.468  -1.839  0.00  0.00    -0.491 OA
ATOM     23  C   UNL     1       0.347   0.678  -2.879  0.00  0.00    +0.277 C 
ENDBRANCH  20  22
BRANCH  19  24
ATOM     24  O   UNL     1      -2.359  -0.027   0.227  0.00  0.00    -0.491 OA
ATOM     25  C   UNL     1      -3.220  -0.332   1.326  0.00  0.00    +0.277 C 
ENDBRANCH  19  24
ENDBRANCH   4  16
BRANCH   4  26
ATOM     26  O   UNL     1       3.659  -2.122  -0.191  0.00  0.00    -0.506 OA
ATOM     27  H   UNL     1       3.466  -1.143  -0.243  0.00  0.00    +0.292 HD
ENDBRANCH   4  26
BRANCH   1  28
ATOM     28  C   UNL     1       4.080  -7.644   0.358  0.00  0.00    +0.107 C 
BRANCH  28  29
ATOM     29  C   UNL     1       4.422  -8.161  -1.041  0.00  0.00    +0.000 C 
BRANCH  29  30
ATOM     30  C   UNL     1       5.296  -9.411  -0.924  0.00  0.00    -0.078 C 
BRANCH  30  33
ATOM     31  C   UNL     1       6.476  -8.952  -2.988  0.00  0.00    -0.097 C 
ATOM     32  C   UNL     1       6.257 -11.231  -2.200  0.00  0.00    -0.097 C 
ATOM     33  N   UNL     1       5.599  -9.910  -2.282  0.00  0.00    +0.376 N 
ATOM     34  H   UNL     1       4.721 -10.007  -2.805  0.00  0.00    -0.083 HD
ENDBRANCH  30  33
ENDBRANCH  29  30
ENDBRANCH  28  29
ENDBRANCH   1  28
TORSDOF 9
