REMARK  Name = ZINC39330088
REMARK  6 active torsions:
REMARK  status: ('A' for Active; 'I' for Inactive)
REMARK    1  A    between atoms: C_4  and  C_7
REMARK    2  A    between atoms: C_17  and  S_19
REMARK    3  A    between atoms: S_19  and  C_20
REMARK    4  A    between atoms: C_22  and  C_27
REMARK    5  A    between atoms: C_27  and  S_28
REMARK    6  A    between atoms: S_28  and  C_29
REMARK                            x       y       z     vdW  Elec       q    Type
REMARK                         _______ _______ _______ _____ _____    ______ ____
ROOT
ATOM      1  C   UNL     1       3.029  -0.502  -0.014  0.00  0.00    -0.009 C 
ATOM      2  C   UNL     1       4.013   0.481  -0.146  0.00  0.00    +0.001 A 
ATOM      3  C   UNL     1       3.664   1.847  -0.209  0.00  0.00    +0.010 A 
ATOM      4  C   UNL     1       4.643   2.784  -0.337  0.00  0.00    +0.001 A 
ATOM      5  C   UNL     1       5.986   2.423  -0.407  0.00  0.00    +0.002 A 
ATOM      6  C   UNL     1       6.385   1.122  -0.351  0.00  0.00    +0.024 A 
ATOM      7  C   UNL     1       5.428   0.100  -0.220  0.00  0.00    +0.041 A 
ATOM      8  N   UNL     1       5.821  -1.178  -0.166  0.00  0.00    -0.284 N 
ATOM      9  C   UNL     1       4.987  -2.192  -0.043  0.00  0.00    +0.235 C 
ATOM     10  O   UNL     1       5.416  -3.330  -0.001  0.00  0.00    -0.274 OA
ATOM     11  C   UNL     1       3.499  -1.942   0.052  0.00  0.00    +0.171 C 
ATOM     12  H   UNL     1       6.770  -1.368  -0.219  0.00  0.00    +0.155 HD
ENDROOT
BRANCH   1  16
ATOM     13  C   UNL     1      -1.037   0.485   0.208  0.00  0.00    +0.000 A 
ATOM     14  C   UNL     1      -0.564  -0.245  -0.871  0.00  0.00    +0.001 A 
ATOM     15  C   UNL     1       0.770  -0.574  -0.954  0.00  0.00    +0.008 A 
ATOM     16  C   UNL     1       1.653  -0.168   0.061  0.00  0.00    -0.020 A 
ATOM     17  C   UNL     1       1.163   0.572   1.150  0.00  0.00    +0.008 A 
ATOM     18  C   UNL     1      -0.175   0.891   1.213  0.00  0.00    +0.001 A 
ENDBRANCH   1  16
BRANCH  11  19
ATOM     19  S   UNL     1       2.907  -2.651   1.613  0.00  0.00    -0.070 S 
BRANCH  19  20
ATOM     20  C   UNL     1       3.752  -1.721   2.850  0.00  0.00    +0.170 A 
ATOM     21  N   UNL     1       4.660  -0.836   2.488  0.00  0.00    -0.227 NA
ATOM     22  C   UNL     1       5.320  -0.113   3.389  0.00  0.00    +0.059 A 
ATOM     23  C   UNL     1       5.065  -0.279   4.720  0.00  0.00    +0.094 A 
ATOM     24  C   UNL     1       4.098  -1.220   5.115  0.00  0.00    +0.252 A 
ATOM     25  N   UNL     1       3.452  -1.925   4.162  0.00  0.00    -0.302 N 
ATOM     26  O   UNL     1       3.845  -1.394   6.296  0.00  0.00    -0.268 OA
ATOM     27  H   UNL     1       2.779  -2.578   4.412  0.00  0.00    +0.171 HD
BRANCH  22  28
ATOM     28  C   UNL     1       6.352   0.889   2.940  0.00  0.00    +0.130 C 
BRANCH  28  29
ATOM     29  S   UNL     1       7.855   0.018   2.418  0.00  0.00    -0.119 S 
BRANCH  29  30
ATOM     30  C   UNL     1       8.949   1.309   1.929  0.00  0.00    +0.008 A 
ATOM     31  C   UNL     1       8.542   2.635   2.015  0.00  0.00    +0.016 A 
ATOM     32  C   UNL     1       9.402   3.646   1.631  0.00  0.00    +0.021 A 
ATOM     33  C   UNL     1      10.667   3.339   1.161  0.00  0.00    +0.041 A 
ATOM     34  C   UNL     1      11.075   2.019   1.075  0.00  0.00    +0.021 A 
ATOM     35  C   UNL     1      10.222   1.004   1.462  0.00  0.00    +0.016 A 
ATOM     36 CL   UNL     1      11.745   4.611   0.679  0.00  0.00    -0.084 Cl
ENDBRANCH  29  30
ENDBRANCH  28  29
ENDBRANCH  22  28
ENDBRANCH  19  20
ENDBRANCH  11  19
TORSDOF 6
