REMARK  Name = ZINC31156466
REMARK  16 active torsions:
REMARK  status: ('A' for Active; 'I' for Inactive)
REMARK    1  A    between atoms: C_1  and  C_2
REMARK    2  A    between atoms: C_2  and  C_4
REMARK    3  A    between atoms: C_2  and  O_36
REMARK    4  A    between atoms: C_4  and  C_5
REMARK    5  A    between atoms: C_5  and  C_6
REMARK    6  A    between atoms: C_8  and  C_18
REMARK    7  A    between atoms: C_11  and  O_17
REMARK    8  A    between atoms: C_14  and  C_15
REMARK    9  A    between atoms: C_14  and  C_16
REMARK   10  A    between atoms: C_18  and  O_19
REMARK   11  A    between atoms: O_19  and  C_20
REMARK   12  A    between atoms: C_22  and  O_35
REMARK   13  A    between atoms: C_24  and  O_34
REMARK   14  A    between atoms: C_26  and  O_33
REMARK   15  A    between atoms: C_28  and  C_31
REMARK   16  A    between atoms: C_31  and  O_32
REMARK                            x       y       z     vdW  Elec       q    Type
REMARK                         _______ _______ _______ _____ _____    ______ ____
ROOT
ATOM      1  C   UNL     1       4.873   5.213  -1.662  0.00  0.00    +0.167 C 
ENDROOT
BRANCH   1   3
ATOM      2  C   UNL     1       5.656   7.563  -1.335  0.00  0.00    +0.000 C 
ATOM      3  C   UNL     1       6.099   6.102  -1.441  0.00  0.00    +0.021 C 
ATOM      4  C   UNL     1       7.062   5.945  -2.619  0.00  0.00    +0.037 C 
ATOM      5  C   UNL     1       8.287   6.834  -2.398  0.00  0.00    +0.115 C 
ATOM      6  C   UNL     1       7.845   8.295  -2.292  0.00  0.00    +0.038 C 
ATOM      7  C   UNL     1       6.881   8.452  -1.114  0.00  0.00    -0.029 C 
ATOM      8  C   UNL     1       6.439   9.913  -1.008  0.00  0.00    +0.011 C 
ATOM      9  C   UNL     1       7.586   8.038   0.179  0.00  0.00    +0.011 C 
BRANCH   5  10
ATOM     10  O   UNL     1       9.187   6.688  -3.499  0.00  0.00    -0.392 OA
ATOM     11  H   UNL     1      10.130   7.253  -3.517  0.00  0.00    +0.210 HD
ENDBRANCH   5  10
BRANCH   2  12
ATOM     12  C   UNL     1       4.952   7.977  -2.628  0.00  0.00    +0.007 C 
BRANCH  12  13
ATOM     13  C   UNL     1       3.474   7.588  -2.551  0.00  0.00    +0.031 C 
BRANCH  13  15
ATOM     14  C   UNL     1       1.355   7.378  -3.858  0.00  0.00    +0.037 C 
ATOM     15  C   UNL     1       2.799   7.880  -3.893  0.00  0.00    +0.111 C 
BRANCH  15  16
ATOM     16  O   UNL     1       2.807   9.289  -4.134  0.00  0.00    -0.392 OA
ATOM     17  H   UNL     1       3.763   9.831  -4.193  0.00  0.00    +0.210 HD
ENDBRANCH  15  16
ENDBRANCH  13  15
ENDBRANCH  12  13
ENDBRANCH   2  12
ENDBRANCH   1   3
BRANCH   1  18
ATOM     18  O   UNL     1       5.264   3.840  -1.600  0.00  0.00    -0.348 OA
BRANCH  18  19
ATOM     19  C   UNL     1       4.188   2.920  -1.795  0.00  0.00    +0.282 C 
ATOM     20  C   UNL     1       4.738   1.491  -1.833  0.00  0.00    +0.201 C 
ATOM     21  C   UNL     1       3.573   0.508  -1.982  0.00  0.00    +0.179 C 
ATOM     22  C   UNL     1       2.589   0.721  -0.828  0.00  0.00    +0.177 C 
ATOM     23  C   UNL     1       2.122   2.179  -0.828  0.00  0.00    +0.178 C 
ATOM     24  O   UNL     1       3.256   3.041  -0.718  0.00  0.00    -0.341 OA
BRANCH  22  25
ATOM     25  O   UNL     1       1.462  -0.141  -0.996  0.00  0.00    -0.386 OA
ATOM     26  H   UNL     1       0.645  -0.128  -0.259  0.00  0.00    +0.210 HD
ENDBRANCH  22  25
BRANCH  21  27
ATOM     27  O   UNL     1       4.069  -0.832  -1.946  0.00  0.00    -0.386 OA
ATOM     28  H   UNL     1       3.372  -1.679  -2.039  0.00  0.00    +0.210 HD
ENDBRANCH  21  27
BRANCH  20  29
ATOM     29  O   UNL     1       5.627   1.350  -2.943  0.00  0.00    -0.384 OA
ATOM     30  H   UNL     1       6.121   0.386  -3.133  0.00  0.00    +0.210 HD
ENDBRANCH  20  29
BRANCH  23  31
ATOM     31  C   UNL     1       1.185   2.416   0.358  0.00  0.00    +0.190 C 
BRANCH  31  32
ATOM     32  O   UNL     1       0.658   3.742   0.292  0.00  0.00    -0.392 OA
ATOM     33  H   UNL     1      -0.040   4.096   1.065  0.00  0.00    +0.210 HD
ENDBRANCH  31  32
ENDBRANCH  23  31
ENDBRANCH  18  19
ENDBRANCH   1  18
TORSDOF 13
