REMARK  Name = ZINC38936137
REMARK  6 active torsions:
REMARK  status: ('A' for Active; 'I' for Inactive)
REMARK    1  A    between atoms: C_1  and  C_2
REMARK    2  A    between atoms: C_6  and  S_9
REMARK    3  A    between atoms: S_9  and  C_10
REMARK    4  A    between atoms: C_10  and  C_11
REMARK    5  A    between atoms: N_13  and  N_14
REMARK    6  A    between atoms: C_15  and  C_16
REMARK                            x       y       z     vdW  Elec       q    Type
REMARK                         _______ _______ _______ _____ _____    ______ ____
ROOT
ATOM      1  C   UNL     1      -2.410  -1.028   5.050  0.00  0.00    +0.242 C 
ATOM      2  O   UNL     1      -2.298  -2.047   5.697  0.00  0.00    -0.273 OA
ATOM      3  N   UNL     1      -3.084   0.023   5.559  0.00  0.00    -0.206 N 
ATOM      4  H   UNL     1      -3.173   0.839   5.041  0.00  0.00    +0.177 HD
ENDROOT
BRANCH   3   5
ATOM      5  N   UNL     1      -3.655  -0.063   6.835  0.00  0.00    -0.188 NA
ATOM      6  C   UNL     1      -4.309   0.958   7.329  0.00  0.00    +0.136 C 
BRANCH   6   7
ATOM      7  C   UNL     1      -4.881   0.872   8.607  0.00  0.00    +0.000 C 
ATOM      8  C   UNL     1      -5.609   1.856   9.272  0.00  0.00    +0.004 A 
ATOM      9  C   UNL     1      -5.987   3.169   8.914  0.00  0.00    +0.010 A 
ATOM     10  C   UNL     1      -6.712   3.920   9.780  0.00  0.00    +0.001 A 
ATOM     11  C   UNL     1      -7.101   3.427  11.030  0.00  0.00    +0.002 A 
ATOM     12  C   UNL     1      -6.774   2.178  11.439  0.00  0.00    +0.026 A 
ATOM     13  C   UNL     1      -6.016   1.332  10.587  0.00  0.00    +0.043 A 
ATOM     14  N   UNL     1      -5.578   0.101  10.748  0.00  0.00    -0.380 N 
ATOM     15  C   UNL     1      -4.843  -0.312   9.548  0.00  0.00    +0.150 C 
ATOM     16  H   UNL     1      -5.723  -0.449  11.534  0.00  0.00    +0.160 HD
ENDBRANCH   6   7
ENDBRANCH   3   5
BRANCH   1  17
ATOM     17  C   UNL     1      -1.795  -0.935   3.677  0.00  0.00    +0.169 C 
BRANCH  17  18
ATOM     18  S   UNL     1      -0.964  -2.498   3.280  0.00  0.00    -0.121 S 
BRANCH  18  23
ATOM     19  C   UNL     1      -0.019   1.526   0.010  0.00  0.00    +0.037 C 
ATOM     20  C   UNL     1       0.002  -0.004   0.002  0.00  0.00    +0.126 C 
ATOM     21  N   UNL     1      -1.375  -0.573   0.125  0.00  0.00    -0.242 NA
ATOM     22  N   UNL     1      -1.367  -1.922   0.650  0.00  0.00    -0.233 NA
ATOM     23  C   UNL     1      -0.286  -2.225   1.620  0.00  0.00    +0.186 C 
ATOM     24  S   UNL     1       0.724  -0.682   1.563  0.00  0.00    -0.110 S 
ATOM     25  H   UNL     1      -1.966   0.027   0.680  0.00  0.00    +0.142 HD
ATOM     26  H   UNL     1      -1.383  -2.601  -0.096  0.00  0.00    +0.143 HD
ENDBRANCH  18  23
ENDBRANCH  17  18
ENDBRANCH   1  17
TORSDOF 5
