REMARK  Name = ZINC63823321
REMARK  7 active torsions:
REMARK  status: ('A' for Active; 'I' for Inactive)
REMARK    1  A    between atoms: C_1  and  C_2
REMARK    2  A    between atoms: C_2  and  O_3
REMARK    3  A    between atoms: O_3  and  C_4
REMARK    4  A    between atoms: C_6  and  C_11
REMARK    5  A    between atoms: C_9  and  O_10
REMARK    6  A    between atoms: C_20  and  C_30
REMARK    7  A    between atoms: N_22  and  C_23
REMARK                            x       y       z     vdW  Elec       q    Type
REMARK                         _______ _______ _______ _____ _____    ______ ____
ROOT
ATOM      1  C   UNL     1      -0.229  -4.969   0.477  0.00  0.00    +0.059 C 
ATOM      2  C   UNL     1       0.870  -5.879   1.045  0.00  0.00    +0.108 C 
ATOM      3  C   UNL     1       0.309  -7.139   1.619  0.00  0.00    +0.216 C 
ATOM      4  O   UNL     1       1.021  -7.737   2.398  0.00  0.00    -0.276 OA
ATOM      5  N   UNL     1      -0.883  -7.684   1.373  0.00  0.00    -0.292 N 
ATOM      6  C   UNL     1      -1.927  -6.983   0.638  0.00  0.00    +0.210 C 
ATOM      7  C   UNL     1      -1.246  -5.883  -0.162  0.00  0.00    -0.004 C 
ATOM      8  C   UNL     1      -1.691  -5.948  -1.383  0.00  0.00    +0.022 C 
ATOM      9  N   UNL     1      -2.546  -7.027  -1.555  0.00  0.00    -0.265 N 
ATOM     10  N   UNL     1      -2.596  -7.810  -0.366  0.00  0.00    -0.210 N 
ATOM     11  C   UNL     1      -1.324  -4.974  -2.473  0.00  0.00    +0.062 C 
ATOM     12  H   UNL     1      -1.062  -8.581   1.696  0.00  0.00    +0.151 HD
ATOM     13  H   UNL     1      -3.041  -7.220  -2.366  0.00  0.00    +0.170 HD
ENDROOT
BRANCH  10  14
ATOM     14  C   UNL     1      -3.153  -9.075  -0.188  0.00  0.00    +0.162 A 
ATOM     15  C   UNL     1      -3.758  -9.730  -1.260  0.00  0.00    +0.052 A 
ATOM     16  C   UNL     1      -4.297 -10.985  -1.033  0.00  0.00    +0.077 A 
ATOM     17  C   UNL     1      -4.200 -11.515   0.252  0.00  0.00    +0.289 A 
ATOM     18  O   UNL     1      -4.713 -12.743   0.522  0.00  0.00    -0.264 OA
ATOM     19  N   UNL     1      -3.607 -10.821   1.208  0.00  0.00    -0.105 NA
ATOM     20  N   UNL     1      -3.103  -9.660   0.998  0.00  0.00    -0.129 NA
ENDBRANCH  10  14
BRANCH   1  23
ATOM     21  C   UNL     1       0.777  -1.811  -1.336  0.00  0.00    +0.162 A 
ATOM     22  C   UNL     1       0.243  -2.669  -0.388  0.00  0.00    +0.053 A 
ATOM     23  C   UNL     1       0.352  -4.037  -0.555  0.00  0.00    -0.036 A 
ATOM     24  C   UNL     1       0.992  -4.552  -1.667  0.00  0.00    +0.008 A 
ATOM     25  C   UNL     1       1.526  -3.702  -2.616  0.00  0.00    +0.049 A 
ATOM     26  C   UNL     1       1.416  -2.330  -2.458  0.00  0.00    +0.158 A 
BRANCH  26  27
ATOM     27  O   UNL     1       1.936  -1.492  -3.394  0.00  0.00    -0.503 OA
ATOM     28  H   UNL     1       2.856  -1.241  -3.231  0.00  0.00    +0.292 HD
ENDBRANCH  26  27
BRANCH  21  29
ATOM     29  O   UNL     1       0.671  -0.465  -1.174  0.00  0.00    -0.489 OA
BRANCH  29  31
ATOM     30  C   UNL     1      -0.019   1.526   0.010  0.00  0.00    +0.048 C 
ATOM     31  C   UNL     1       0.002  -0.004   0.002  0.00  0.00    +0.226 C 
ENDBRANCH  29  31
ENDBRANCH  21  29
ENDBRANCH   1  23
TORSDOF 5
