REMARK  Name = ZINC40530400
REMARK  11 active torsions:
REMARK  status: ('A' for Active; 'I' for Inactive)
REMARK    1  A    between atoms: C_1  and  C_2
REMARK    2  A    between atoms: C_2  and  C_3
REMARK    3  A    between atoms: C_3  and  O_4
REMARK    4  A    between atoms: O_4  and  C_5
REMARK    5  A    between atoms: C_8  and  C_11
REMARK    6  A    between atoms: C_16  and  O_25
REMARK    7  A    between atoms: C_20  and  N_24
REMARK    8  A    between atoms: C_21  and  C_22
REMARK    9  A    between atoms: O_25  and  C_26
REMARK   10  A    between atoms: C_26  and  C_28
REMARK   11  A    between atoms: C_29  and  C_38
REMARK                            x       y       z     vdW  Elec       q    Type
REMARK                         _______ _______ _______ _____ _____    ______ ____
ROOT
ATOM      1  C   UNL     1       3.353  -4.532   5.497  0.00  0.00    +0.098 C 
ATOM      2  C   UNL     1       2.364  -5.396   6.235  0.00  0.00    +0.008 A 
ATOM      3  C   UNL     1       1.507  -4.816   7.153  0.00  0.00    +0.012 A 
ATOM      4  C   UNL     1       0.593  -5.593   7.839  0.00  0.00    +0.047 A 
ATOM      5  C   UNL     1       0.533  -6.960   7.607  0.00  0.00    +0.136 A 
ATOM      6  C   UNL     1       1.390  -7.543   6.688  0.00  0.00    +0.093 A 
ATOM      7  C   UNL     1       2.308  -6.760   5.999  0.00  0.00    +0.138 A 
ATOM      8  O   UNL     1       3.139  -7.346   5.102  0.00  0.00    -0.441 OA
ATOM      9  C   UNL     1       4.263  -6.717   4.720  0.00  0.00    +0.199 C 
ATOM     10  C   UNL     1       4.425  -5.385   4.880  0.00  0.00    +0.098 C 
ENDROOT
BRANCH   1  14
ATOM     11  C   UNL     1       1.324  -2.365   2.423  0.00  0.00    +0.121 A 
ATOM     12  C   UNL     1       1.985  -1.683   3.433  0.00  0.00    +0.046 A 
ATOM     13  C   UNL     1       2.640  -2.385   4.426  0.00  0.00    +0.008 A 
ATOM     14  C   UNL     1       2.637  -3.768   4.413  0.00  0.00    -0.034 A 
ATOM     15  C   UNL     1       1.979  -4.450   3.407  0.00  0.00    +0.008 A 
ATOM     16  C   UNL     1       1.318  -3.752   2.415  0.00  0.00    +0.046 A 
BRANCH  11  17
ATOM     17  O   UNL     1       0.678  -1.676   1.445  0.00  0.00    -0.492 OA
BRANCH  17  18
ATOM     18  C   UNL     1       0.727  -0.250   1.517  0.00  0.00    +0.229 C 
BRANCH  18  20
ATOM     19  C   UNL     1       0.002   1.873   0.418  0.00  0.00    +0.007 C 
ATOM     20  C   UNL     1      -0.050   0.346   0.341  0.00  0.00    +0.038 C 
ENDBRANCH  18  20
ENDBRANCH  17  18
ENDBRANCH  11  17
ENDBRANCH   1  14
BRANCH   9  21
ATOM     21  N   UNL     1       5.275  -7.449   4.150  0.00  0.00    -0.328 N 
ATOM     22  H   UNL     1       5.173  -8.405   4.029  0.00  0.00    +0.145 HD
ATOM     23  H   UNL     1       6.093  -7.009   3.869  0.00  0.00    +0.145 HD
ENDBRANCH   9  21
BRANCH  10  24
ATOM     24  C   UNL     1       5.647  -4.775   4.451  0.00  0.00    +0.101 C 
ATOM     25  N   UNL     1       6.617  -4.290   4.110  0.00  0.00    -0.191 NA
ENDBRANCH  10  24
BRANCH   5  26
ATOM     26  O   UNL     1      -0.364  -7.726   8.281  0.00  0.00    -0.420 OA
BRANCH  26  27
ATOM     27  C   UNL     1       0.107  -8.594   9.200  0.00  0.00    +0.380 C 
ATOM     28  O   UNL     1       1.290  -8.601   9.479  0.00  0.00    -0.241 OA
BRANCH  27  29
ATOM     29  C   UNL     1      -0.809  -9.530   9.862  0.00  0.00    +0.216 A 
ATOM     30  C   UNL     1      -0.449 -10.442  10.803  0.00  0.00    +0.010 A 
ATOM     31  C   UNL     1      -1.675 -11.147  11.175  0.00  0.00    +0.025 A 
ATOM     32  C   UNL     1      -1.973 -12.177  12.070  0.00  0.00    +0.032 A 
ATOM     33  C   UNL     1      -3.260 -12.623  12.185  0.00  0.00    +0.042 A 
ATOM     34  C   UNL     1      -4.272 -12.060  11.416  0.00  0.00    +0.023 A 
ATOM     35  C   UNL     1      -3.997 -11.044  10.528  0.00  0.00    +0.048 A 
ATOM     36  C   UNL     1      -2.696 -10.573  10.394  0.00  0.00    +0.136 A 
ATOM     37  O   UNL     1      -2.136  -9.612   9.633  0.00  0.00    -0.448 OA
ATOM     38 CL   UNL     1      -3.633 -13.903  13.297  0.00  0.00    -0.084 Cl
ATOM     39  C   UNL     1       0.934 -10.680  11.353  0.00  0.00    +0.048 C 
ENDBRANCH  27  29
ENDBRANCH  26  27
ENDBRANCH   5  26
TORSDOF 9
