REMARK  Name = ZINC37375457
REMARK  5 active torsions:
REMARK  status: ('A' for Active; 'I' for Inactive)
REMARK    1  A    between atoms: C_6  and  S_7
REMARK    2  A    between atoms: S_7  and  N_10
REMARK    3  A    between atoms: N_10  and  C_11
REMARK    4  A    between atoms: C_11  and  C_16
REMARK    5  A    between atoms: C_16  and  N_17
REMARK                            x       y       z     vdW  Elec       q    Type
REMARK                         _______ _______ _______ _____ _____    ______ ____
ROOT
ATOM      1  N   UNL     1      -1.927  -1.078  -1.402  0.00  0.00    -0.186 NA
ATOM      2  H   UNL     1      -1.581  -0.309  -0.922  0.00  0.00    +0.149 HD
ENDROOT
BRANCH   1   3
ATOM      3  C   UNL     1      -1.063  -1.808  -2.333  0.00  0.00    +0.025 C 
ATOM      4  C   UNL     1       0.346  -1.167  -2.383  0.00  0.00    +0.022 C 
ATOM      5  C   UNL     1       0.142   0.032  -3.343  0.00  0.00    +0.002 C 
ATOM      6  C   UNL     1      -0.825  -0.505  -4.419  0.00  0.00    +0.002 C 
ATOM      7  C   UNL     1      -1.591  -1.675  -3.777  0.00  0.00    +0.022 C 
BRANCH   3   8
ATOM      8  C   UNL     1      -0.970  -3.282  -1.931  0.00  0.00    -0.062 C 
BRANCH   8   9
ATOM      9  N   UNL     1      -0.484  -3.382  -0.548  0.00  0.00    +0.379 N 
ATOM     10  H   UNL     1       0.395  -2.895  -0.465  0.00  0.00    -0.090 HD
ATOM     11  H   UNL     1      -1.159  -2.967   0.076  0.00  0.00    -0.090 HD
ATOM     12  H   UNL     1      -0.355  -4.353  -0.307  0.00  0.00    -0.090 HD
ENDBRANCH   8   9
ENDBRANCH   3   8
ENDBRANCH   1   3
BRANCH   1  13
ATOM     13  S   UNL     1      -3.492  -1.564  -1.169  0.00  0.00    +0.059 S 
ATOM     14  O   UNL     1      -4.023  -1.854  -2.455  0.00  0.00    -0.153 OA
ATOM     15  O   UNL     1      -4.087  -0.615  -0.296  0.00  0.00    -0.153 OA
BRANCH  13  21
ATOM     16  C   UNL     1      -3.256  -3.093   1.079  0.00  0.00    +0.031 A 
ATOM     17  C   UNL     1      -3.213  -4.290   1.770  0.00  0.00    +0.043 A 
ATOM     18  C   UNL     1      -3.352  -5.487   1.090  0.00  0.00    +0.159 A 
ATOM     19  C   UNL     1      -3.535  -5.485  -0.285  0.00  0.00    +0.160 A 
ATOM     20  C   UNL     1      -3.578  -4.285  -0.974  0.00  0.00    +0.069 A 
ATOM     21  C   UNL     1      -3.438  -3.091  -0.291  0.00  0.00    +0.108 A 
ATOM     22  F   UNL     1      -3.671  -6.652  -0.951  0.00  0.00    -0.202 F 
ATOM     23  F   UNL     1      -3.310  -6.657   1.765  0.00  0.00    -0.202 F 
ENDBRANCH  13  21
ENDBRANCH   1  13
TORSDOF 5
