REMARK  Name = ZINC36264800
REMARK  5 active torsions:
REMARK  status: ('A' for Active; 'I' for Inactive)
REMARK    1  A    between atoms: C_1  and  N_2
REMARK    2  A    between atoms: C_5  and  S_7
REMARK    3  A    between atoms: S_7  and  N_10
REMARK    4  A    between atoms: N_10  and  C_11
REMARK    5  A    between atoms: C_14  and  N_16
REMARK                            x       y       z     vdW  Elec       q    Type
REMARK                         _______ _______ _______ _____ _____    ______ ____
ROOT
ATOM      1  S   UNL     1       0.057  -3.514   1.730  0.00  0.00    +0.060 S 
ATOM      2  O   UNL     1      -0.495  -3.119   2.978  0.00  0.00    -0.153 OA
ATOM      3  O   UNL     1      -0.482  -4.582   0.963  0.00  0.00    -0.153 OA
ENDROOT
BRANCH   1   8
ATOM      4  C   UNL     1      -0.018   1.461   0.010  0.00  0.00    +0.148 C 
ATOM      5  N   UNL     1       0.002  -0.004   0.002  0.00  0.00    -0.354 N 
ATOM      6  C   UNL     1       0.008  -0.792  -1.110  0.00  0.00    +0.087 A 
ATOM      7  C   UNL     1       0.027  -2.081  -0.714  0.00  0.00    +0.047 A 
ATOM      8  C   UNL     1       0.033  -2.089   0.695  0.00  0.00    +0.123 A 
ATOM      9  C   UNL     1       0.023  -0.804   1.106  0.00  0.00    +0.114 A 
ENDBRANCH   1   8
BRANCH   1  10
ATOM     10  N   UNL     1       1.645  -3.889   2.012  0.00  0.00    -0.188 NA
ATOM     11  H   UNL     1       2.014  -4.721   1.678  0.00  0.00    +0.148 HD
BRANCH  10  12
ATOM     12  C   UNL     1       2.494  -2.962   2.765  0.00  0.00    +0.061 C 
ATOM     13  C   UNL     1       3.580  -3.566   3.657  0.00  0.00    +0.004 C 
ATOM     14  C   UNL     1       3.964  -2.858   2.355  0.00  0.00    -0.055 C 
BRANCH  14  15
ATOM     15  N   UNL     1       4.606  -1.542   2.463  0.00  0.00    +0.381 N 
ATOM     16  H   UNL     1       4.574  -1.229   3.422  0.00  0.00    -0.090 HD
ATOM     17  H   UNL     1       5.568  -1.611   2.164  0.00  0.00    -0.090 HD
ATOM     18  H   UNL     1       4.119  -0.880   1.877  0.00  0.00    -0.090 HD
ENDBRANCH  14  15
ENDBRANCH  10  12
ENDBRANCH   1  10
TORSDOF 4
