REMARK  Name = ZINC12919697
REMARK  16 active torsions:
REMARK  status: ('A' for Active; 'I' for Inactive)
REMARK    1  A    between atoms: C_1  and  C_2
REMARK    2  A    between atoms: C_6  and  C_34
REMARK    3  A    between atoms: C_7  and  N_8
REMARK    4  A    between atoms: C_9  and  C_11
REMARK    5  A    between atoms: C_11  and  N_70
REMARK    6  A    between atoms: C_12  and  C_13
REMARK    7  A    between atoms: C_12  and  N_70
REMARK    8  A    between atoms: C_15  and  C_18
REMARK    9  A    between atoms: C_18  and  C_19
REMARK   10  A    between atoms: C_19  and  C_20
REMARK   11  A    between atoms: C_19  and  C_21
REMARK   12  A    between atoms: C_22  and  C_23
REMARK   13  A    between atoms: C_22  and  N_70
REMARK   14  A    between atoms: N_25  and  C_26
REMARK   15  A    between atoms: C_27  and  C_33
REMARK   16  A    between atoms: C_31  and  C_32
REMARK                            x       y       z     vdW  Elec       q    Type
REMARK                         _______ _______ _______ _____ _____    ______ ____
ROOT
ATOM      1  N   UNL     1      -0.390  -2.862   2.661  0.00  0.00    +0.397 N 
ATOM      2  H   UNL     1      -1.244  -2.416   2.306  0.00  0.00    -0.080 HD
ENDROOT
BRANCH   1   3
ATOM      3  C   UNL     1       0.658  -1.832   2.822  0.00  0.00    +0.020 C 
BRANCH   3   5
ATOM      4  N   UNL     1       0.865   0.383   3.904  0.00  0.00    -0.287 N 
ATOM      5  C   UNL     1       0.099  -0.693   3.635  0.00  0.00    +0.201 C 
ATOM      6  O   UNL     1      -1.040  -0.745   4.048  0.00  0.00    -0.278 OA
ATOM      7  H   UNL     1       1.754   0.453   3.521  0.00  0.00    +0.155 HD
BRANCH   4  14
ATOM      8  C   UNL     1      -1.443   1.818   3.061  0.00  0.00    +0.045 C 
ATOM      9  C   UNL     1      -0.746   2.123   4.362  0.00  0.00    -0.029 A 
ATOM     10  C   UNL     1      -1.227   3.121   5.187  0.00  0.00    +0.005 A 
ATOM     11  C   UNL     1      -0.584   3.406   6.377  0.00  0.00    +0.001 A 
ATOM     12  C   UNL     1       0.539   2.690   6.748  0.00  0.00    +0.005 A 
ATOM     13  C   UNL     1       1.022   1.687   5.931  0.00  0.00    -0.029 A 
ATOM     14  C   UNL     1       0.378   1.398   4.734  0.00  0.00    +0.039 A 
ATOM     15  C   UNL     1       2.246   0.907   6.337  0.00  0.00    +0.045 C 
ENDBRANCH   4  14
ENDBRANCH   3   5
ENDBRANCH   1   3
BRANCH   1  16
ATOM     16  C   UNL     1       0.055  -3.887   1.693  0.00  0.00    +0.023 C 
BRANCH  16  17
ATOM     17  C   UNL     1      -1.152  -4.648   1.208  0.00  0.00    +0.211 A 
ATOM     18  N   UNL     1      -1.867  -4.380   0.142  0.00  0.00    -0.198 NA
ATOM     19  C   UNL     1      -2.831  -5.317   0.107  0.00  0.00    +0.172 A 
ATOM     20  N   UNL     1      -2.660  -6.089   1.139  0.00  0.00    -0.061 NA
ATOM     21  O   UNL     1      -1.701  -5.721   1.784  0.00  0.00    -0.340 OA
BRANCH  19  22
ATOM     22  C   UNL     1      -3.913  -5.446  -0.933  0.00  0.00    +0.082 C 
BRANCH  22  23
ATOM     23  C   UNL     1      -5.104  -4.569  -0.542  0.00  0.00    -0.010 C 
ATOM     24  C   UNL     1      -4.651  -3.112  -0.433  0.00  0.00    +0.007 C 
ATOM     25  C   UNL     1      -6.195  -4.685  -1.609  0.00  0.00    +0.007 C 
ENDBRANCH  22  23
ENDBRANCH  19  22
ENDBRANCH  16  17
ENDBRANCH   1  16
BRANCH   1  26
ATOM     26  C   UNL     1      -0.683  -3.492   3.965  0.00  0.00    +0.020 C 
BRANCH  26  27
ATOM     27  C   UNL     1       0.539  -4.190   4.502  0.00  0.00    +0.201 C 
ATOM     28  O   UNL     1       1.607  -4.063   3.940  0.00  0.00    -0.278 OA
ATOM     29  N   UNL     1       0.447  -4.957   5.607  0.00  0.00    -0.287 N 
ATOM     30  H   UNL     1      -0.414  -5.092   6.033  0.00  0.00    +0.155 HD
BRANCH  29  31
ATOM     31  C   UNL     1       1.593  -5.558   6.139  0.00  0.00    +0.039 A 
ATOM     32  C   UNL     1       2.430  -4.837   6.980  0.00  0.00    -0.029 A 
ATOM     33  C   UNL     1       3.557  -5.436   7.509  0.00  0.00    +0.005 A 
ATOM     34  C   UNL     1       3.858  -6.748   7.192  0.00  0.00    +0.001 A 
ATOM     35  C   UNL     1       3.030  -7.466   6.350  0.00  0.00    +0.005 A 
ATOM     36  C   UNL     1       1.898  -6.876   5.823  0.00  0.00    -0.029 A 
ATOM     37  C   UNL     1       0.995  -7.660   4.906  0.00  0.00    +0.045 C 
ATOM     38  C   UNL     1       2.106  -3.405   7.320  0.00  0.00    +0.045 C 
ENDBRANCH  29  31
ENDBRANCH  26  27
ENDBRANCH   1  26
TORSDOF 10
