REMARK  Name = ZINC08034268
REMARK  9 active torsions:
REMARK  status: ('A' for Active; 'I' for Inactive)
REMARK    1  A    between atoms: C_1  and  N_54
REMARK    2  A    between atoms: C_2  and  N_54
REMARK    3  A    between atoms: C_3  and  N_54
REMARK    4  A    between atoms: C_7  and  O_36
REMARK    5  A    between atoms: C_17  and  O_34
REMARK    6  A    between atoms: C_22  and  O_33
REMARK    7  A    between atoms: C_23  and  O_32
REMARK    8  A    between atoms: C_26  and  C_29
REMARK    9  A    between atoms: C_27  and  O_28
REMARK                            x       y       z     vdW  Elec       q    Type
REMARK                         _______ _______ _______ _____ _____    ______ ____
ROOT
ATOM      1  C   UNL     1       0.651  -4.522   0.623  0.00  0.00    +0.008 C 
ATOM      2  C   UNL     1       0.940  -3.043   0.391  0.00  0.00    +0.059 C 
ATOM      3  C   UNL     1       2.259  -2.622   1.041  0.00  0.00    +0.132 C 
ATOM      4  C   UNL     1       2.565  -1.196   0.589  0.00  0.00    +0.085 C 
ATOM      5  C   UNL     1       3.776  -0.658   1.311  0.00  0.00    -0.035 C 
ATOM      6  C   UNL     1       4.559  -1.448   2.037  0.00  0.00    +0.013 C 
ATOM      7  C   UNL     1       4.054   0.789   1.173  0.00  0.00    +0.011 A 
ATOM      8  C   UNL     1       5.346   1.291   1.258  0.00  0.00    +0.049 A 
ATOM      9  C   UNL     1       5.565   2.650   1.104  0.00  0.00    +0.024 A 
ATOM     10  C   UNL     1       4.509   3.509   0.865  0.00  0.00    +0.047 A 
ATOM     11  C   UNL     1       3.210   3.029   0.785  0.00  0.00    +0.128 A 
ATOM     12  C   UNL     1       2.968   1.661   0.947  0.00  0.00    +0.072 A 
ATOM     13  C   UNL     1       1.600   1.119   0.890  0.00  0.00    +0.197 C 
ATOM     14  O   UNL     1       0.646   1.877   0.883  0.00  0.00    -0.287 OA
ATOM     15  C   UNL     1       1.390  -0.289   0.838  0.00  0.00    +0.050 C 
ATOM     16  C   UNL     1       0.144  -0.761   0.988  0.00  0.00    +0.141 C 
ATOM     17  C   UNL     1      -0.191  -2.215   1.010  0.00  0.00    +0.189 C 
ATOM     18  C   UNL     1      -1.434  -2.520   0.205  0.00  0.00    +0.210 C 
ATOM     19  O   UNL     1      -2.185  -1.643  -0.168  0.00  0.00    -0.288 OA
ATOM     20  C   UNL     1      -1.704  -3.932  -0.083  0.00  0.00    +0.118 C 
ATOM     21  C   UNL     1      -0.718  -4.870   0.106  0.00  0.00    +0.097 C 
ATOM     22 CL   UNL     1       6.680   0.220   1.554  0.00  0.00    -0.083 Cl
ENDROOT
BRANCH  20  23
ATOM     23  C   UNL     1      -3.021  -4.344  -0.594  0.00  0.00    +0.248 C 
ATOM     24  O   UNL     1      -3.277  -4.228  -1.778  0.00  0.00    -0.270 OA
ATOM     25  N   UNL     1      -3.943  -4.849   0.249  0.00  0.00    -0.325 N 
ATOM     26  H   UNL     1      -3.766  -4.874   1.202  0.00  0.00    +0.145 HD
ATOM     27  H   UNL     1      -4.783  -5.187  -0.098  0.00  0.00    +0.145 HD
ENDBRANCH  20  23
BRANCH   1  30
ATOM     28  C   UNL     1       1.618  -6.728   0.374  0.00  0.00    -0.096 C 
ATOM     29  C   UNL     1       1.480  -5.244  -1.534  0.00  0.00    -0.096 C 
ATOM     30  N   UNL     1       1.683  -5.320  -0.072  0.00  0.00    +0.383 N 
ATOM     31  H   UNL     1       2.608  -4.940   0.157  0.00  0.00    -0.082 HD
ENDBRANCH   1  30
BRANCH  21  32
ATOM     32  O   UNL     1      -0.989  -6.152  -0.184  0.00  0.00    -0.512 OA
ATOM     33  H   UNL     1      -1.929  -6.228  -0.514  0.00  0.00    +0.292 HD
ENDBRANCH  21  32
BRANCH  17  34
ATOM     34  O   UNL     1      -0.393  -2.630   2.362  0.00  0.00    -0.373 OA
ATOM     35  H   UNL     1      -1.109  -2.163   2.815  0.00  0.00    +0.211 HD
ENDBRANCH  17  34
BRANCH  16  36
ATOM     36  O   UNL     1      -0.861   0.127   1.127  0.00  0.00    -0.507 OA
ATOM     37  H   UNL     1      -1.727  -0.363   1.229  0.00  0.00    +0.292 HD
ENDBRANCH  16  36
BRANCH  11  38
ATOM     38  O   UNL     1       2.180   3.881   0.551  0.00  0.00    -0.506 OA
ATOM     39  H   UNL     1       1.980   4.007  -0.386  0.00  0.00    +0.292 HD
ENDBRANCH  11  38
BRANCH   3  40
ATOM     40  O   UNL     1       3.307  -3.499   0.622  0.00  0.00    -0.391 OA
ATOM     41  H   UNL     1       3.507  -3.450  -0.323  0.00  0.00    +0.210 HD
ENDBRANCH   3  40
TORSDOF 7
