REMARK  Name = ZINC58202445
REMARK  7 active torsions:
REMARK  status: ('A' for Active; 'I' for Inactive)
REMARK    1  A    between atoms: C_1  and  C_2
REMARK    2  A    between atoms: C_4  and  C_7
REMARK    3  A    between atoms: C_7  and  N_13
REMARK    4  A    between atoms: N_13  and  C_14
REMARK    5  A    between atoms: C_14  and  C_15
REMARK    6  A    between atoms: N_17  and  C_18
REMARK    7  A    between atoms: C_23  and  C_24
REMARK                            x       y       z     vdW  Elec       q    Type
REMARK                         _______ _______ _______ _____ _____    ______ ____
ROOT
ATOM      1  C   UNL     1      -3.306  -1.930   1.016  0.00  0.00    +0.017 C 
ENDROOT
BRANCH   1   2
ATOM      2  C   UNL     1      -4.243  -1.826   2.192  0.00  0.00    +0.200 C 
ATOM      3  O   UNL     1      -4.249  -2.691   3.041  0.00  0.00    -0.278 OA
ATOM      4  N   UNL     1      -5.075  -0.770   2.299  0.00  0.00    -0.286 N 
ATOM      5  H   UNL     1      -5.015  -0.039   1.665  0.00  0.00    +0.155 HD
BRANCH   4   6
ATOM      6  C   UNL     1      -6.020  -0.730   3.322  0.00  0.00    +0.045 A 
ATOM      7  C   UNL     1      -6.483  -1.909   3.890  0.00  0.00    +0.024 A 
ATOM      8  C   UNL     1      -7.420  -1.867   4.903  0.00  0.00    +0.002 A 
ATOM      9  C   UNL     1      -7.905  -0.652   5.360  0.00  0.00    +0.001 A 
ATOM     10  C   UNL     1      -7.457   0.528   4.807  0.00  0.00    +0.015 A 
ATOM     11  C   UNL     1      -6.505   0.502   3.786  0.00  0.00    +0.058 A 
BRANCH  11  12
ATOM     12  C   UNL     1      -6.015   1.762   3.194  0.00  0.00    +0.243 C 
ATOM     13  O   UNL     1      -5.259   1.733   2.243  0.00  0.00    -0.270 OA
ATOM     14  N   UNL     1      -6.407   2.944   3.709  0.00  0.00    -0.325 N 
ATOM     15  H   UNL     1      -7.010   2.967   4.468  0.00  0.00    +0.145 HD
ATOM     16  H   UNL     1      -6.085   3.772   3.320  0.00  0.00    +0.145 HD
ENDBRANCH  11  12
ENDBRANCH   4   6
ENDBRANCH   1   2
BRANCH   1  17
ATOM     17  N   UNL     1      -2.512  -3.160   1.130  0.00  0.00    +0.393 N 
ATOM     18  H   UNL     1      -3.129  -3.959   1.140  0.00  0.00    -0.084 HD
ATOM     19  H   UNL     1      -1.977  -3.137   1.985  0.00  0.00    -0.084 HD
BRANCH  17  20
ATOM     20  C   UNL     1      -1.599  -3.262  -0.017  0.00  0.00    -0.003 C 
ATOM     21  C   UNL     1      -2.410  -3.296  -1.313  0.00  0.00    -0.005 C 
ATOM     22  C   UNL     1      -3.345  -4.507  -1.298  0.00  0.00    -0.001 C 
ATOM     23  C   UNL     1      -2.518  -5.789  -1.179  0.00  0.00    -0.000 C 
ATOM     24  C   UNL     1      -1.707  -5.754   0.118  0.00  0.00    -0.001 C 
ATOM     25  C   UNL     1      -0.772  -4.543   0.102  0.00  0.00    -0.005 C 
BRANCH  20  29
ATOM     26  C   UNL     1      -0.046   1.501  -0.050  0.00  0.00    +0.112 C 
ATOM     27  C   UNL     1      -0.020  -0.006  -0.046  0.00  0.00    +0.224 A 
ATOM     28  N   UNL     1      -1.064  -0.788  -0.031  0.00  0.00    -0.198 NA
ATOM     29  C   UNL     1      -0.678  -2.069  -0.032  0.00  0.00    +0.161 A 
ATOM     30  N   UNL     1       0.623  -2.117  -0.048  0.00  0.00    -0.063 NA
ATOM     31  O   UNL     1       1.077  -0.772  -0.064  0.00  0.00    -0.338 OA
ENDBRANCH  20  29
ENDBRANCH  17  20
ENDBRANCH   1  17
TORSDOF 6
