REMARK  Name = ZINC66451413
REMARK  4 active torsions:
REMARK  status: ('A' for Active; 'I' for Inactive)
REMARK    1  A    between atoms: C_2  and  C_10
REMARK    2  A    between atoms: N_12  and  C_13
REMARK    3  A    between atoms: N_18  and  C_20
REMARK    4  A    between atoms: C_20  and  C_21
REMARK                            x       y       z     vdW  Elec       q    Type
REMARK                         _______ _______ _______ _____ _____    ______ ____
ROOT
ATOM      1  C   UNL     1       1.172   3.565   0.009  0.00  0.00    +0.246 C 
ATOM      2  O   UNL     1       2.220   4.182   0.003  0.00  0.00    -0.270 OA
ATOM      3  N   UNL     1      -0.001   4.229   0.024  0.00  0.00    -0.310 N 
ATOM      4  H   UNL     1      -0.837   3.736   0.029  0.00  0.00    +0.149 HD
ENDROOT
BRANCH   1   6
ATOM      5  C   UNL     1      -0.017   1.376   0.010  0.00  0.00    +0.054 A 
ATOM      6  C   UNL     1       1.185   2.088   0.002  0.00  0.00    +0.058 A 
ATOM      7  C   UNL     1       2.399   1.397  -0.013  0.00  0.00    +0.055 A 
ATOM      8  C   UNL     1       2.405   0.016  -0.021  0.00  0.00    +0.043 A 
ATOM      9  C   UNL     1       1.212  -0.684  -0.013  0.00  0.00    +0.077 A 
ATOM     10  C   UNL     1       0.002  -0.004   0.002  0.00  0.00    +0.142 A 
ATOM     11  F   UNL     1      -1.159  -0.694   0.010  0.00  0.00    -0.204 F 
ATOM     12 CL   UNL     1       1.228  -2.420  -0.023  0.00  0.00    -0.081 Cl
ATOM     13 CL   UNL     1       3.898   2.273  -0.024  0.00  0.00    -0.083 Cl
ENDBRANCH   1   6
BRANCH   3  14
ATOM     14  C   UNL     1      -0.013   5.694   0.031  0.00  0.00    +0.057 C 
ATOM     15  C   UNL     1       0.092   6.213  -1.405  0.00  0.00    +0.018 C 
ATOM     16  C   UNL     1      -0.001   7.742  -1.393  0.00  0.00    -0.017 C 
ATOM     17  C   UNL     1      -1.309   8.162  -0.719  0.00  0.00    -0.078 C 
ATOM     18  N   UNL     1      -1.337   7.658   0.659  0.00  0.00    +0.387 N 
ATOM     19  C   UNL     1      -1.320   6.190   0.654  0.00  0.00    -0.056 C 
ATOM     20  H   UNL     1      -0.530   8.000   1.159  0.00  0.00    -0.081 HD
BRANCH  18  21
ATOM     21  C   UNL     1      -2.558   8.129   1.327  0.00  0.00    +0.018 C 
BRANCH  21  22
ATOM     22  C   UNL     1      -2.514   9.630   1.452  0.00  0.00    +0.194 C 
ATOM     23  O   UNL     1      -1.560  10.247   1.027  0.00  0.00    -0.278 OA
ATOM     24  N   UNL     1      -3.535  10.288   2.036  0.00  0.00    -0.331 N 
ATOM     25  H   UNL     1      -4.299   9.795   2.375  0.00  0.00    +0.145 HD
ATOM     26  H   UNL     1      -3.507  11.254   2.116  0.00  0.00    +0.145 HD
ENDBRANCH  21  22
ENDBRANCH  18  21
ENDBRANCH   3  14
TORSDOF 4
