REMARK  Name = ZINC23738516
REMARK  10 active torsions:
REMARK  status: ('A' for Active; 'I' for Inactive)
REMARK    1  A    between atoms: C_1  and  C_2
REMARK    2  A    between atoms: C_2  and  C_3
REMARK    3  A    between atoms: C_2  and  C_4
REMARK    4  A    between atoms: C_4  and  C_6
REMARK    5  A    between atoms: C_4  and  N_23
REMARK    6  A    between atoms: N_8  and  C_9
REMARK    7  A    between atoms: C_9  and  C_10
REMARK    8  A    between atoms: C_10  and  C_12
REMARK    9  A    between atoms: C_10  and  N_18
REMARK   10  A    between atoms: C_24  and  C_26
REMARK                            x       y       z     vdW  Elec       q    Type
REMARK                         _______ _______ _______ _____ _____    ______ ____
ROOT
ATOM      1  C   UNL     1      -5.041   0.393  -2.500  0.00  0.00    +0.234 C 
ATOM      2  O   UNL     1      -4.551   1.098  -3.357  0.00  0.00    -0.274 OA
ATOM      3  N   UNL     1      -6.259  -0.151  -2.691  0.00  0.00    -0.315 N 
ATOM      4  H   UNL     1      -6.704  -0.789  -1.913  0.00  0.00    +0.149 HD
ENDROOT
BRANCH   1   5
ATOM      5  C   UNL     1      -4.288   0.126  -1.222  0.00  0.00    +0.162 C 
BRANCH   5   6
ATOM      6  N   UNL     1      -3.001   0.825  -1.259  0.00  0.00    -0.300 N 
ATOM      7  C   UNL     1      -2.386   1.165  -0.109  0.00  0.00    +0.250 C 
ATOM      8  O   UNL     1      -2.900   0.893   0.959  0.00  0.00    -0.270 OA
ATOM      9  H   UNL     1      -2.536   1.071  -2.225  0.00  0.00    +0.150 HD
BRANCH   7  10
ATOM     10  C   UNL     1      -1.090   1.869  -0.146  0.00  0.00    +0.107 A 
ATOM     11  C   UNL     1      -1.048   3.267  -0.164  0.00  0.00    +0.138 A 
ATOM     12  C   UNL     1       0.171   3.918  -0.205  0.00  0.00    +0.039 A 
ATOM     13  C   UNL     1       1.347   3.191  -0.221  0.00  0.00    +0.006 A 
ATOM     14  C   UNL     1       1.315   1.808  -0.198  0.00  0.00    +0.039 A 
ATOM     15  C   UNL     1       0.105   1.141  -0.157  0.00  0.00    +0.138 A 
ATOM     16  F   UNL     1       0.077  -0.209  -0.134  0.00  0.00    -0.205 F 
ATOM     17  F   UNL     1      -2.196   3.979  -0.147  0.00  0.00    -0.205 F 
ENDBRANCH   7  10
ENDBRANCH   5   6
BRANCH   5  19
ATOM     18  C   UNL     1      -3.125  -1.858  -2.198  0.00  0.00    +0.009 C 
ATOM     19  C   UNL     1      -4.048  -1.378  -1.076  0.00  0.00    +0.012 C 
ATOM     20  C   UNL     1      -3.395  -1.661   0.278  0.00  0.00    +0.009 C 
ENDBRANCH   5  19
ENDBRANCH   1   5
BRANCH   3  21
ATOM     21  C   UNL     1      -6.991   0.109  -3.933  0.00  0.00    +0.093 C 
BRANCH  21  22
ATOM     22  C   UNL     1      -8.336  -0.621  -3.894  0.00  0.00    -0.020 C 
BRANCH  22  23
ATOM     23  C   UNL     1      -9.140  -0.256  -5.116  0.00  0.00    -0.059 A 
ATOM     24  C   UNL     1      -9.916  -1.213  -5.743  0.00  0.00    +0.002 A 
ATOM     25  C   UNL     1     -10.657  -0.877  -6.861  0.00  0.00    +0.000 A 
ATOM     26  C   UNL     1     -10.615   0.413  -7.356  0.00  0.00    +0.000 A 
ATOM     27  C   UNL     1      -9.835   1.368  -6.732  0.00  0.00    +0.000 A 
ATOM     28  C   UNL     1      -9.098   1.034  -5.612  0.00  0.00    +0.002 A 
ENDBRANCH  22  23
BRANCH  22  29
ATOM     29  N   UNL     1      -9.073  -0.226  -2.687  0.00  0.00    +0.385 N 
ATOM     30  C   UNL     1      -9.482   1.200  -2.756  0.00  0.00    -0.078 C 
ATOM     31  C   UNL     1     -10.640   1.287  -1.729  0.00  0.00    -0.020 C 
ATOM     32  C   UNL     1     -11.370  -0.063  -1.917  0.00  0.00    -0.020 C 
ATOM     33  C   UNL     1     -10.327  -0.999  -2.554  0.00  0.00    -0.078 C 
ATOM     34  H   UNL     1      -8.391  -0.416  -1.845  0.00  0.00    -0.081 HD
ENDBRANCH  22  29
ENDBRANCH  21  22
ENDBRANCH   3  21
TORSDOF 8
