REMARK  Name = ZINC67101128
REMARK  11 active torsions:
REMARK  status: ('A' for Active; 'I' for Inactive)
REMARK    1  A    between atoms: C_1  and  C_2
REMARK    2  A    between atoms: C_4  and  C_25
REMARK    3  A    between atoms: C_6  and  O_23
REMARK    4  A    between atoms: C_7  and  C_8
REMARK    5  A    between atoms: C_8  and  N_9
REMARK    6  A    between atoms: N_12  and  C_13
REMARK    7  A    between atoms: C_15  and  C_21
REMARK    8  A    between atoms: C_15  and  C_22
REMARK    9  A    between atoms: C_17  and  C_19
REMARK   10  A    between atoms: C_17  and  C_20
REMARK   11  A    between atoms: O_23  and  C_24
REMARK                            x       y       z     vdW  Elec       q    Type
REMARK                         _______ _______ _______ _____ _____    ______ ____
ROOT
ATOM      1  N   UNL     1      -1.189   0.463   3.565  0.00  0.00    -0.295 N 
ATOM      2  C   UNL     1      -1.534   1.136   4.681  0.00  0.00    +0.300 C 
ATOM      3  O   UNL     1      -0.672   1.600   5.402  0.00  0.00    -0.253 OA
ATOM      4  N   UNL     1      -2.834   1.294   4.998  0.00  0.00    -0.297 N 
ATOM      5  H   UNL     1      -1.877   0.093   2.990  0.00  0.00    +0.151 HD
ATOM      6  H   UNL     1      -3.522   0.923   4.423  0.00  0.00    +0.151 HD
ENDROOT
BRANCH   4   7
ATOM      7  C   UNL     1      -3.210   2.027   6.214  0.00  0.00    +0.072 C 
ATOM      8  C   UNL     1      -3.293   3.521   5.895  0.00  0.00    +0.009 C 
ATOM      9  C   UNL     1      -3.695   4.296   7.149  0.00  0.00    -0.072 C 
ATOM     10  N   UNL     1      -4.922   3.784   7.741  0.00  0.00    +0.386 N 
ATOM     11  C   UNL     1      -5.042   2.344   7.905  0.00  0.00    -0.072 C 
ATOM     12  C   UNL     1      -4.588   1.558   6.679  0.00  0.00    +0.009 C 
ATOM     13  C   UNL     1      -4.293   1.851   9.147  0.00  0.00    -0.010 C 
ATOM     14  C   UNL     1      -6.540   2.025   8.126  0.00  0.00    -0.010 C 
ATOM     15  C   UNL     1      -3.960   5.758   6.718  0.00  0.00    -0.010 C 
ATOM     16  C   UNL     1      -2.539   4.321   8.148  0.00  0.00    -0.010 C 
ATOM     17  H   UNL     1      -5.045   4.224   8.656  0.00  0.00    -0.084 HD
ATOM     18  H   UNL     1      -5.711   4.110   7.177  0.00  0.00    -0.084 HD
ENDBRANCH   4   7
BRANCH   1  19
ATOM     19  C   UNL     1       0.225   0.292   3.221  0.00  0.00    +0.146 C 
BRANCH  19  26
ATOM     20  C   UNL     1       0.277   1.667   0.648  0.00  0.00    +0.044 C 
ATOM     21  C   UNL     1       0.362   0.164   0.718  0.00  0.00    -0.039 A 
ATOM     22  C   UNL     1       0.473  -0.595  -0.439  0.00  0.00    +0.027 A 
ATOM     23  C   UNL     1       0.549  -1.970  -0.339  0.00  0.00    +0.042 A 
ATOM     24  N   UNL     1       0.518  -2.566   0.838  0.00  0.00    -0.218 NA
ATOM     25  C   UNL     1       0.413  -1.877   1.962  0.00  0.00    +0.220 A 
ATOM     26  C   UNL     1       0.337  -0.490   1.937  0.00  0.00    +0.034 A 
ATOM     27  C   UNL     1       0.670  -2.801  -1.591  0.00  0.00    +0.066 C 
BRANCH  25  28
ATOM     28  O   UNL     1       0.384  -2.530   3.151  0.00  0.00    -0.479 OA
ATOM     29  C   UNL     1       0.471  -3.956   3.109  0.00  0.00    +0.279 C 
ENDBRANCH  25  28
ENDBRANCH  19  26
ENDBRANCH   1  19
TORSDOF 4
