REMARK  Name = ZINC24779620
REMARK  11 active torsions:
REMARK  status: ('A' for Active; 'I' for Inactive)
REMARK    1  A    between atoms: C_1  and  C_2
REMARK    2  A    between atoms: C_3  and  C_14
REMARK    3  A    between atoms: C_4  and  C_13
REMARK    4  A    between atoms: N_5  and  C_7
REMARK    5  A    between atoms: N_21  and  C_22
REMARK    6  A    between atoms: C_22  and  C_23
REMARK    7  A    between atoms: N_25  and  C_26
REMARK    8  A    between atoms: C_29  and  O_34
REMARK    9  A    between atoms: C_31  and  O_32
REMARK   10  A    between atoms: O_32  and  C_33
REMARK   11  A    between atoms: O_34  and  C_35
REMARK                            x       y       z     vdW  Elec       q    Type
REMARK                         _______ _______ _______ _____ _____    ______ ____
ROOT
ATOM      1  C   UNL     1      -2.882   4.004   7.188  0.00  0.00    +0.054 C 
ATOM      2  C   UNL     1      -3.570   4.811   8.252  0.00  0.00    +0.204 C 
ATOM      3  O   UNL     1      -2.893   5.348   9.103  0.00  0.00    -0.277 OA
ATOM      4  N   UNL     1      -4.898   4.961   8.301  0.00  0.00    -0.318 N 
ATOM      5  C   UNL     1      -5.804   4.327   7.347  0.00  0.00    +0.085 C 
ATOM      6  C   UNL     1      -5.032   3.891   6.101  0.00  0.00    -0.058 C 
ATOM      7  N   UNL     1      -3.849   3.122   6.522  0.00  0.00    +0.397 N 
ATOM      8  H   UNL     1      -5.301   5.595   9.105  0.00  0.00    +0.149 HD
ATOM      9  H   UNL     1      -4.170   2.353   7.240  0.00  0.00    -0.079 HD
ENDROOT
BRANCH   1  12
ATOM     10  C   UNL     1      -3.308   1.367   8.892  0.00  0.00    +0.068 C 
ATOM     11  C   UNL     1      -1.982   2.006   8.568  0.00  0.00    +0.063 A 
ATOM     12  C   UNL     1      -1.795   3.171   7.816  0.00  0.00    -0.009 A 
ATOM     13  C   UNL     1      -0.466   3.413   7.748  0.00  0.00    +0.044 A 
ATOM     14  N   UNL     1       0.167   2.439   8.440  0.00  0.00    -0.237 N 
ATOM     15  N   UNL     1      -0.807   1.567   8.943  0.00  0.00    -0.171 NA
ATOM     16  C   UNL     1       0.192   4.564   7.031  0.00  0.00    +0.066 C 
BRANCH  14  17
ATOM     17  C   UNL     1       1.552   2.320   8.619  0.00  0.00    +0.066 A 
ATOM     18  C   UNL     1       2.158   1.073   8.551  0.00  0.00    +0.028 A 
ATOM     19  C   UNL     1       3.523   0.959   8.723  0.00  0.00    +0.002 A 
ATOM     20  C   UNL     1       4.286   2.085   8.973  0.00  0.00    +0.000 A 
ATOM     21  C   UNL     1       3.685   3.329   9.047  0.00  0.00    +0.002 A 
ATOM     22  C   UNL     1       2.321   3.449   8.871  0.00  0.00    +0.028 A 
ENDBRANCH  14  17
ENDBRANCH   1  12
BRANCH   7  23
ATOM     23  C   UNL     1      -3.235   2.434   5.379  0.00  0.00    +0.020 C 
BRANCH  23  24
ATOM     24  C   UNL     1      -4.176   1.376   4.864  0.00  0.00    +0.201 C 
ATOM     25  O   UNL     1      -5.267   1.234   5.375  0.00  0.00    -0.278 OA
ATOM     26  N   UNL     1      -3.806   0.587   3.836  0.00  0.00    -0.284 N 
ATOM     27  H   UNL     1      -2.787   0.658   3.427  0.00  0.00    +0.155 HD
BRANCH  26  28
ATOM     28  C   UNL     1      -4.721  -0.324   3.286  0.00  0.00    +0.077 A 
ATOM     29  C   UNL     1      -5.669  -0.931   4.097  0.00  0.00    +0.050 A 
ATOM     30  C   UNL     1      -6.566  -1.833   3.557  0.00  0.00    +0.084 A 
ATOM     31  C   UNL     1      -6.524  -2.129   2.201  0.00  0.00    +0.142 A 
ATOM     32  C   UNL     1      -5.582  -1.521   1.386  0.00  0.00    +0.094 A 
ATOM     33  C   UNL     1      -4.681  -0.617   1.925  0.00  0.00    +0.145 A 
ATOM     34 CL   UNL     1      -7.747  -2.596   4.575  0.00  0.00    -0.080 Cl
BRANCH  33  35
ATOM     35  O   UNL     1      -3.756  -0.019   1.127  0.00  0.00    -0.493 OA
ATOM     36  C   UNL     1      -3.770  -0.371  -0.258  0.00  0.00    +0.277 C 
ENDBRANCH  33  35
BRANCH  31  37
ATOM     37  O   UNL     1      -7.408  -3.017   1.672  0.00  0.00    -0.494 OA
ATOM     38  C   UNL     1      -7.308  -3.275   0.270  0.00  0.00    +0.277 C 
ENDBRANCH  31  37
ENDBRANCH  26  28
ENDBRANCH  23  24
ENDBRANCH   7  23
TORSDOF 7
