REMARK  Name = ZINC07844724
REMARK  6 active torsions:
REMARK  status: ('A' for Active; 'I' for Inactive)
REMARK    1  A    between atoms: C_1  and  O_2
REMARK    2  A    between atoms: O_2  and  C_3
REMARK    3  A    between atoms: C_3  and  C_5
REMARK    4  A    between atoms: C_9  and  N_10
REMARK    5  A    between atoms: C_11  and  C_13
REMARK    6  A    between atoms: C_13  and  N_45
REMARK                            x       y       z     vdW  Elec       q    Type
REMARK                         _______ _______ _______ _____ _____    ______ ____
ROOT
ATOM      1  N   UNL     1      -0.239   1.228   4.862  0.00  0.00    -0.281 N 
ATOM      2  C   UNL     1      -0.661   1.622   3.643  0.00  0.00    +0.201 C 
ATOM      3  O   UNL     1      -1.399   2.578   3.536  0.00  0.00    -0.278 OA
ATOM      4  H   UNL     1       0.351   0.463   4.947  0.00  0.00    +0.155 HD
ENDROOT
BRANCH   1   9
ATOM      5  C   UNL     1      -0.331   1.664   7.320  0.00  0.00    +0.091 A 
ATOM      6  C   UNL     1      -0.895   2.548   8.326  0.00  0.00    -0.021 A 
ATOM      7  C   UNL     1      -1.690   3.530   7.849  0.00  0.00    -0.004 A 
ATOM      8  S   UNL     1      -1.691   3.298   6.093  0.00  0.00    -0.077 S 
ATOM      9  C   UNL     1      -0.650   1.917   5.992  0.00  0.00    +0.086 A 
ATOM     10  C   UNL     1      -2.409   4.577   8.643  0.00  0.00    +0.043 C 
ATOM     11  C   UNL     1      -2.412   4.148  10.117  0.00  0.00    +0.005 C 
ATOM     12  C   UNL     1      -0.994   3.723  10.511  0.00  0.00    +0.005 C 
ATOM     13  C   UNL     1      -0.636   2.405   9.821  0.00  0.00    +0.037 C 
BRANCH   5  14
ATOM     14  C   UNL     1       0.543   0.550   7.692  0.00  0.00    +0.342 C 
ATOM     15  O   UNL     1       1.746   0.719   7.766  0.00  0.00    -0.245 OA
BRANCH  14  17
ATOM     16  C   UNL     1       0.942  -1.722   8.315  0.00  0.00    +0.280 C 
ATOM     17  O   UNL     1       0.016  -0.664   7.953  0.00  0.00    -0.464 OA
ENDBRANCH  14  17
ENDBRANCH   5  14
ENDBRANCH   1   9
BRANCH   2  18
ATOM     18  C   UNL     1      -0.215   0.873   2.414  0.00  0.00    +0.020 C 
BRANCH  18  26
ATOM     19  C   UNL     1      -2.361   1.108   1.314  0.00  0.00    -0.059 C 
ATOM     20  C   UNL     1      -3.088   1.926   0.245  0.00  0.00    +0.085 C 
ATOM     21  N   UNL     1      -2.438   1.748  -1.050  0.00  0.00    -0.319 N 
ATOM     22  C   UNL     1      -1.193   1.277  -1.179  0.00  0.00    +0.196 C 
ATOM     23  O   UNL     1      -0.717   1.190  -2.291  0.00  0.00    -0.278 OA
ATOM     24  C   UNL     1      -0.358   0.852  -0.004  0.00  0.00    +0.019 C 
ATOM     25  H   UNL     1      -2.930   1.982  -1.852  0.00  0.00    +0.149 HD
ATOM     26  N   UNL     1      -0.921   1.423   1.234  0.00  0.00    +0.392 N 
ATOM     27  H   UNL     1      -0.801   2.442   1.218  0.00  0.00    -0.080 HD
ENDBRANCH  18  26
ENDBRANCH   2  18
TORSDOF 5
