REMARK  Name = ZINC02059246
REMARK  3 active torsions:
REMARK  status: ('A' for Active; 'I' for Inactive)
REMARK    1  A    between atoms: C_3  and  C_14
REMARK    2  A    between atoms: C_5  and  C_6
REMARK    3  A    between atoms: C_17  and  N_21
REMARK                            x       y       z     vdW  Elec       q    Type
REMARK                         _______ _______ _______ _____ _____    ______ ____
ROOT
ATOM      1  C   UNL     1       2.144   0.755  -0.014  0.00  0.00    +0.050 A 
ATOM      2  C   UNL     1       1.312   1.829  -0.001  0.00  0.00    +0.050 A 
ATOM      3  C   UNL     1      -0.016   1.340   0.009  0.00  0.00    +0.138 A 
ATOM      4  O   UNL     1       0.002  -0.004   0.002  0.00  0.00    -0.455 OA
ATOM      5  C   UNL     1       1.283  -0.434  -0.013  0.00  0.00    +0.131 A 
ENDROOT
BRANCH   5   6
ATOM      6  C   UNL     1       1.706  -1.756  -0.024  0.00  0.00    +0.074 C 
ATOM      7  C   UNL     1       0.764  -2.794  -0.021  0.00  0.00    +0.099 C 
ATOM      8  C   UNL     1       1.037  -4.260  -0.032  0.00  0.00    +0.264 C 
ATOM      9  O   UNL     1       2.122  -4.804  -0.046  0.00  0.00    -0.268 OA
ATOM     10  N   UNL     1      -0.176  -4.854  -0.022  0.00  0.00    -0.263 N 
ATOM     11  C   UNL     1      -1.125  -3.905  -0.007  0.00  0.00    +0.141 C 
ATOM     12  S   UNL     1      -2.808  -4.220   0.008  0.00  0.00    -0.018 S 
ATOM     13  N   UNL     1      -0.584  -2.676  -0.001  0.00  0.00    -0.292 N 
ATOM     14  H   UNL     1      -0.335  -5.811  -0.026  0.00  0.00    +0.157 HD
ATOM     15  H   UNL     1      -1.077  -1.841   0.014  0.00  0.00    +0.154 HD
ENDBRANCH   5   6
BRANCH   3  16
ATOM     16  C   UNL     1      -1.183   2.142   0.019  0.00  0.00    +0.045 A 
ATOM     17  C   UNL     1      -1.475   2.958   1.131  0.00  0.00    +0.032 A 
ATOM     18  C   UNL     1      -2.610   3.738   1.127  0.00  0.00    +0.048 A 
ATOM     19  C   UNL     1      -3.470   3.713   0.039  0.00  0.00    +0.128 A 
ATOM     20  C   UNL     1      -3.197   2.910  -1.058  0.00  0.00    +0.048 A 
ATOM     21  C   UNL     1      -2.066   2.126  -1.079  0.00  0.00    +0.032 A 
ATOM     22 BR   UNL     1      -1.698   1.031  -2.577  0.00  0.00    -0.049 Br
ATOM     23 BR   UNL     1      -0.308   2.988   2.619  0.00  0.00    -0.049 Br
BRANCH  19  24
ATOM     24  N   UNL     1      -4.691   4.551   0.050  0.00  0.00    +0.056 N 
ATOM     25  O   UNL     1      -5.512   4.532  -0.979  0.00  0.00    -0.126 OA
ATOM     26  O   UNL     1      -4.955   5.316   1.089  0.00  0.00    -0.126 OA
ENDBRANCH  19  24
ENDBRANCH   3  16
TORSDOF 3
