REMARK  Name = ZINC09639873
REMARK  10 active torsions:
REMARK  status: ('A' for Active; 'I' for Inactive)
REMARK    1  A    between atoms: C_1  and  C_2
REMARK    2  A    between atoms: C_2  and  O_3
REMARK    3  A    between atoms: O_3  and  C_4
REMARK    4  A    between atoms: C_4  and  C_6
REMARK    5  A    between atoms: C_10  and  N_11
REMARK    6  A    between atoms: C_12  and  C_14
REMARK    7  A    between atoms: C_24  and  C_29
REMARK    8  A    between atoms: C_24  and  C_30
REMARK    9  A    between atoms: C_25  and  C_27
REMARK   10  A    between atoms: C_25  and  C_28
REMARK                            x       y       z     vdW  Elec       q    Type
REMARK                         _______ _______ _______ _____ _____    ______ ____
ROOT
ATOM      1  C   UNL     1      -4.887   8.222  -0.111  0.00  0.00    +0.091 A 
ATOM      2  C   UNL     1      -4.652   9.650  -0.077  0.00  0.00    -0.024 A 
ATOM      3  C   UNL     1      -3.356  10.026   0.021  0.00  0.00    -0.016 A 
ATOM      4  S   UNL     1      -2.452   8.506   0.078  0.00  0.00    -0.079 S 
ATOM      5  C   UNL     1      -3.774   7.390  -0.030  0.00  0.00    +0.086 A 
ATOM      6  C   UNL     1      -2.836  11.426   0.060  0.00  0.00    -0.041 C 
ATOM      7  C   UNL     1      -5.204  11.932   0.670  0.00  0.00    -0.069 C 
ATOM      8  C   UNL     1      -5.721  10.733  -0.133  0.00  0.00    +0.024 C 
ATOM      9  C   UNL     1      -5.126  11.552   2.152  0.00  0.00    -0.010 C 
ATOM     10  C   UNL     1      -6.228  13.073   0.528  0.00  0.00    -0.010 C 
ATOM     11  C   UNL     1      -1.851  11.572   1.229  0.00  0.00    -0.005 C 
ATOM     12  C   UNL     1      -2.066  11.695  -1.247  0.00  0.00    -0.005 C 
ATOM     13  N   UNL     1      -3.908  12.457   0.167  0.00  0.00    +0.389 N 
ATOM     14  H   UNL     1      -4.063  12.861  -0.764  0.00  0.00    -0.084 HD
ATOM     15  H   UNL     1      -3.587  13.192   0.809  0.00  0.00    -0.084 HD
ENDROOT
BRANCH   5  16
ATOM     16  N   UNL     1      -3.734   6.006  -0.036  0.00  0.00    -0.275 N 
ATOM     17  C   UNL     1      -2.552   5.365   0.051  0.00  0.00    +0.249 C 
ATOM     18  O   UNL     1      -1.520   6.003   0.137  0.00  0.00    -0.270 OA
ATOM     19  H   UNL     1      -4.557   5.498  -0.104  0.00  0.00    +0.156 HD
BRANCH  17  20
ATOM     20  C   UNL     1      -2.510   3.892   0.045  0.00  0.00    +0.045 A 
ATOM     21  C   UNL     1      -3.683   3.149   0.069  0.00  0.00    +0.014 A 
ATOM     22  C   UNL     1      -3.640   1.762   0.062  0.00  0.00    +0.001 A 
ATOM     23  C   UNL     1      -2.463   1.079   0.032  0.00  0.00    +0.008 A 
ATOM     24  C   UNL     1      -1.237   1.766   0.000  0.00  0.00    -0.017 A 
ATOM     25  C   UNL     1      -1.233   3.183   0.012  0.00  0.00    -0.006 A 
ATOM     26  C   UNL     1      -0.013   3.871  -0.014  0.00  0.00    +0.009 A 
ATOM     27  C   UNL     1       1.155   3.170  -0.044  0.00  0.00    +0.001 A 
ATOM     28  C   UNL     1       1.154   1.776  -0.050  0.00  0.00    +0.001 A 
ATOM     29  C   UNL     1      -0.013   1.076  -0.026  0.00  0.00    +0.008 A 
ENDBRANCH  17  20
ENDBRANCH   5  16
BRANCH   1  30
ATOM     30  C   UNL     1      -6.235   7.663  -0.230  0.00  0.00    +0.342 C 
ATOM     31  O   UNL     1      -6.882   7.417   0.771  0.00  0.00    -0.245 OA
BRANCH  30  32
ATOM     32  O   UNL     1      -6.760   7.420  -1.449  0.00  0.00    -0.461 OA
BRANCH  32  34
ATOM     33  C   UNL     1      -8.522   6.660  -2.947  0.00  0.00    +0.048 C 
ATOM     34  C   UNL     1      -8.101   6.865  -1.491  0.00  0.00    +0.229 C 
ENDBRANCH  32  34
ENDBRANCH  30  32
ENDBRANCH   1  30
TORSDOF 5
