REMARK  Name = ZINC63746623
REMARK  8 active torsions:
REMARK  status: ('A' for Active; 'I' for Inactive)
REMARK    1  A    between atoms: C_1  and  C_2
REMARK    2  A    between atoms: C_2  and  O_3
REMARK    3  A    between atoms: O_3  and  C_4
REMARK    4  A    between atoms: C_7  and  N_10
REMARK    5  A    between atoms: N_13  and  C_14
REMARK    6  A    between atoms: C_16  and  C_38
REMARK    7  A    between atoms: C_19  and  C_32
REMARK    8  A    between atoms: C_20  and  C_24
REMARK                            x       y       z     vdW  Elec       q    Type
REMARK                         _______ _______ _______ _____ _____    ______ ____
ROOT
ATOM      1  C   UNL     1       1.727  -8.364  -3.717  0.00  0.00    +0.059 A 
ATOM      2  C   UNL     1       2.132  -7.318  -4.486  0.00  0.00    +0.028 A 
ATOM      3  C   UNL     1       2.898  -7.505  -5.640  0.00  0.00    -0.048 A 
ATOM      4  C   UNL     1       3.283  -8.731  -6.064  0.00  0.00    +0.013 A 
ATOM      5  C   UNL     1       2.914  -9.889  -5.337  0.00  0.00    +0.006 A 
ATOM      6  C   UNL     1       3.160 -11.236  -5.532  0.00  0.00    -0.000 C 
ATOM      7  C   UNL     1       2.478 -11.947  -4.384  0.00  0.00    +0.198 C 
ATOM      8  N   UNL     1       1.857 -10.898  -3.570  0.00  0.00    -0.368 N 
ATOM      9  C   UNL     1       2.111  -9.729  -4.109  0.00  0.00    +0.065 A 
ATOM     10  C   UNL     1       3.310  -6.298  -6.442  0.00  0.00    +0.044 C 
ATOM     11  H   UNL     1       1.344 -11.044  -2.760  0.00  0.00    +0.161 HD
ENDROOT
BRANCH   7  12
ATOM     12  C   UNL     1       3.492 -12.707  -3.568  0.00  0.00    +0.243 C 
ATOM     13  O   UNL     1       4.030 -12.174  -2.620  0.00  0.00    -0.273 OA
ATOM     14  N   UNL     1       3.802 -13.978  -3.892  0.00  0.00    -0.295 N 
ATOM     15  C   UNL     1       3.260 -14.604  -5.108  0.00  0.00    +0.136 C 
ATOM     16  C   UNL     1       4.423 -15.225  -5.891  0.00  0.00    +0.179 C 
ATOM     17  O   UNL     1       5.175 -16.075  -5.021  0.00  0.00    -0.377 OA
ATOM     18  C   UNL     1       5.785 -15.394  -3.922  0.00  0.00    +0.179 C 
ATOM     19  C   UNL     1       4.697 -14.780  -3.042  0.00  0.00    +0.136 C 
ENDBRANCH   7  12
BRANCH   1  23
ATOM     20  N   UNL     1       0.494  -6.874  -0.666  0.00  0.00    -0.269 N 
ATOM     21  C   UNL     1       1.163  -7.039  -1.825  0.00  0.00    +0.308 C 
ATOM     22  O   UNL     1       1.947  -6.189  -2.200  0.00  0.00    -0.252 OA
ATOM     23  N   UNL     1       0.962  -8.145  -2.567  0.00  0.00    -0.267 N 
ATOM     24  H   UNL     1      -0.083  -7.580  -0.334  0.00  0.00    +0.156 HD
ATOM     25  H   UNL     1       0.286  -8.790  -2.305  0.00  0.00    +0.156 HD
BRANCH  20  29
ATOM     26  C   UNL     1       0.904  -3.330   1.493  0.00  0.00    +0.121 A 
ATOM     27  C   UNL     1       1.047  -3.322   0.114  0.00  0.00    +0.047 A 
ATOM     28  C   UNL     1       0.911  -4.495  -0.602  0.00  0.00    +0.027 A 
ATOM     29  C   UNL     1       0.632  -5.683   0.060  0.00  0.00    +0.035 A 
ATOM     30  C   UNL     1       0.489  -5.691   1.441  0.00  0.00    +0.027 A 
ATOM     31  C   UNL     1       0.630  -4.518   2.156  0.00  0.00    +0.047 A 
BRANCH  26  32
ATOM     32  O   UNL     1       1.038  -2.175   2.197  0.00  0.00    -0.492 OA
BRANCH  32  34
ATOM     33  C   UNL     1       1.435   0.200   2.407  0.00  0.00    +0.048 C 
ATOM     34  C   UNL     1       1.320  -0.989   1.451  0.00  0.00    +0.225 C 
ENDBRANCH  32  34
ENDBRANCH  26  32
ENDBRANCH  20  29
ENDBRANCH   1  23
BRANCH   6  35
ATOM     35  C   UNL     1       3.922 -11.848  -6.624  0.00  0.00    -0.019 A 
ATOM     36  C   UNL     1       3.270 -12.631  -7.587  0.00  0.00    +0.008 A 
ATOM     37  C   UNL     1       3.995 -13.202  -8.610  0.00  0.00    +0.001 A 
ATOM     38  C   UNL     1       5.363 -13.004  -8.689  0.00  0.00    +0.000 A 
ATOM     39  C   UNL     1       6.016 -12.232  -7.742  0.00  0.00    +0.001 A 
ATOM     40  C   UNL     1       5.307 -11.648  -6.715  0.00  0.00    +0.008 A 
ENDBRANCH   6  35
TORSDOF 6
