REMARK  Name = ZINC04029336
REMARK  5 active torsions:
REMARK  status: ('A' for Active; 'I' for Inactive)
REMARK    1  A    between atoms: C_1  and  N_53
REMARK    2  A    between atoms: C_8  and  O_22
REMARK    3  A    between atoms: C_10  and  N_12
REMARK    4  A    between atoms: N_15  and  C_16
REMARK    5  A    between atoms: O_22  and  C_23
REMARK                            x       y       z     vdW  Elec       q    Type
REMARK                         _______ _______ _______ _____ _____    ______ ____
ROOT
ATOM      1  C   UNL     1       4.819   4.574  -1.298  0.00  0.00    -0.093 C 
ATOM      2  C   UNL     1       4.100   2.439  -0.407  0.00  0.00    -0.071 C 
ATOM      3  C   UNL     1       3.055   1.344  -0.627  0.00  0.00    +0.017 C 
ATOM      4  C   UNL     1       1.673   1.897  -0.390  0.00  0.00    -0.039 A 
ATOM      5  C   UNL     1       0.631   1.003  -0.190  0.00  0.00    +0.053 A 
ATOM      6  C   UNL     1      -0.658   1.462   0.020  0.00  0.00    +0.170 A 
ATOM      7  C   UNL     1      -0.907   2.830   0.041  0.00  0.00    +0.208 A 
ATOM      8  C   UNL     1       0.137   3.722  -0.159  0.00  0.00    +0.169 A 
ATOM      9  C   UNL     1       1.430   3.253  -0.372  0.00  0.00    +0.004 A 
ATOM     10  C   UNL     1       2.531   4.261  -0.577  0.00  0.00    +0.055 C 
ATOM     11  O   UNL     1      -2.240   3.028   0.267  0.00  0.00    -0.449 OA
ATOM     12  C   UNL     1      -2.728   1.781   0.796  0.00  0.00    +0.467 C 
ATOM     13  O   UNL     1      -1.831   0.801   0.242  0.00  0.00    -0.452 OA
ATOM     14  N   UNL     1       3.696   3.615  -1.204  0.00  0.00    +0.393 N 
ATOM     15  H   UNL     1       3.440   3.308  -2.150  0.00  0.00    -0.079 HD
ENDROOT
BRANCH  10  16
ATOM     16  N   UNL     1       2.052   5.329  -1.456  0.00  0.00    -0.309 N 
ATOM     17  C   UNL     1       2.304   6.618  -1.152  0.00  0.00    +0.299 C 
ATOM     18  O   UNL     1       2.930   6.893  -0.146  0.00  0.00    -0.253 OA
ATOM     19  N   UNL     1       1.863   7.601  -1.961  0.00  0.00    -0.297 N 
ATOM     20  H   UNL     1       1.552   5.110  -2.258  0.00  0.00    +0.149 HD
ATOM     21  H   UNL     1       1.364   7.381  -2.763  0.00  0.00    +0.151 HD
BRANCH  19  22
ATOM     22  C   UNL     1       2.138   9.001  -1.630  0.00  0.00    +0.074 C 
ATOM     23  C   UNL     1       1.069   9.516  -0.665  0.00  0.00    +0.022 C 
ATOM     24  C   UNL     1       1.355  10.979  -0.319  0.00  0.00    +0.002 C 
ATOM     25  C   UNL     1       1.336  11.819  -1.597  0.00  0.00    +0.000 C 
ATOM     26  C   UNL     1       2.405  11.303  -2.563  0.00  0.00    +0.002 C 
ATOM     27  C   UNL     1       2.118   9.841  -2.909  0.00  0.00    +0.022 C 
ENDBRANCH  19  22
ENDBRANCH  10  16
BRANCH   8  28
ATOM     28  O   UNL     1      -0.104   5.060  -0.145  0.00  0.00    -0.491 OA
ATOM     29  C   UNL     1      -0.117   5.704   1.131  0.00  0.00    +0.277 C 
ENDBRANCH   8  28
TORSDOF 3
