REMARK  Name = ZINC09234382
REMARK  10 active torsions:
REMARK  status: ('A' for Active; 'I' for Inactive)
REMARK    1  A    between atoms: C_1  and  C_2
REMARK    2  A    between atoms: C_9  and  O_20
REMARK    3  A    between atoms: C_12  and  C_14
REMARK    4  A    between atoms: C_23  and  O_37
REMARK    5  A    between atoms: C_24  and  C_31
REMARK    6  A    between atoms: C_27  and  O_30
REMARK    7  A    between atoms: N_32  and  N_33
REMARK    8  A    between atoms: N_33  and  C_34
REMARK    9  A    between atoms: C_34  and  C_35
REMARK   10  A    between atoms: C_35  and  O_36
REMARK                            x       y       z     vdW  Elec       q    Type
REMARK                         _______ _______ _______ _____ _____    ______ ____
ROOT
ATOM      1  C   UNL     1      -2.516   2.045  -2.893  0.00  0.00    +0.014 C 
ATOM      2  C   UNL     1      -2.847   2.553  -1.482  0.00  0.00    +0.004 C 
ATOM      3  C   UNL     1      -2.716   4.066  -1.383  0.00  0.00    +0.010 C 
ATOM      4  C   UNL     1      -3.837   4.783  -2.122  0.00  0.00    +0.005 C 
ATOM      5  C   UNL     1      -5.218   4.381  -1.630  0.00  0.00    +0.009 C 
ATOM      6  C   UNL     1      -5.389   2.893  -1.513  0.00  0.00    +0.025 C 
ATOM      7  C   UNL     1      -4.230   2.071  -1.023  0.00  0.00    +0.075 C 
ATOM      8  C   UNL     1      -4.173   1.894   0.496  0.00  0.00    +0.036 C 
ATOM      9  C   UNL     1      -2.685   2.028   0.892  0.00  0.00    +0.011 C 
ATOM     10  C   UNL     1      -1.901   1.915  -0.429  0.00  0.00    +0.027 C 
ATOM     11  C   UNL     1      -6.703   2.453  -0.877  0.00  0.00    +0.009 C 
ATOM     12  C   UNL     1      -7.097   3.309   0.319  0.00  0.00    +0.036 C 
ATOM     13  C   UNL     1      -7.128   4.780  -0.093  0.00  0.00    +0.079 C 
ATOM     14  C   UNL     1      -5.716   5.233  -0.475  0.00  0.00    +0.039 C 
ATOM     15  C   UNL     1      -5.797   6.697  -0.939  0.00  0.00    +0.018 C 
ATOM     16  C   UNL     1      -6.366   7.583   0.165  0.00  0.00    +0.032 C 
ATOM     17  C   UNL     1      -7.752   7.099   0.589  0.00  0.00    +0.117 C 
ATOM     18  C   UNL     1      -7.684   5.639   1.038  0.00  0.00    +0.067 C 
ENDROOT
BRANCH  10  19
ATOM     19  C   UNL     1      -0.589   2.636  -0.338  0.00  0.00    -0.022 C 
ATOM     20  C   UNL     1      -0.237   3.526   0.586  0.00  0.00    +0.094 C 
ATOM     21  C   UNL     1       1.128   3.991   0.324  0.00  0.00    +0.332 C 
ATOM     22  O   UNL     1       1.730   4.803   0.998  0.00  0.00    -0.246 OA
ATOM     23  O   UNL     1       1.616   3.385  -0.774  0.00  0.00    -0.457 OA
ATOM     24  C   UNL     1       0.584   2.492  -1.279  0.00  0.00    +0.264 C 
ENDBRANCH  10  19
BRANCH   7  25
ATOM     25  O   UNL     1      -4.406   0.745  -1.587  0.00  0.00    -0.388 OA
ATOM     26  H   UNL     1      -5.223   0.306  -1.313  0.00  0.00    +0.210 HD
ENDBRANCH   7  25
BRANCH  17  27
ATOM     27  O   UNL     1      -8.226   7.905   1.671  0.00  0.00    -0.392 OA
ATOM     28  H   UNL     1      -8.304   8.845   1.457  0.00  0.00    +0.210 HD
ENDBRANCH  17  27
BRANCH  14  29
ATOM     29  C   UNL     1      -4.802   5.166   0.714  0.00  0.00    +0.112 C 
ATOM     30  N   UNL     1      -4.138   6.200   1.070  0.00  0.00    -0.199 NA
BRANCH  30  31
ATOM     31  N   UNL     1      -3.285   6.138   2.179  0.00  0.00    -0.267 N 
ATOM     32  H   UNL     1      -3.198   5.310   2.678  0.00  0.00    +0.168 HD
BRANCH  31  33
ATOM     33  C   UNL     1      -2.525   7.322   2.587  0.00  0.00    +0.150 C 
BRANCH  33  34
ATOM     34  C   UNL     1      -1.678   6.987   3.816  0.00  0.00    +0.176 C 
BRANCH  34  35
ATOM     35  O   UNL     1      -0.697   6.009   3.467  0.00  0.00    -0.393 OA
ATOM     36  H   UNL     1      -0.122   5.748   4.200  0.00  0.00    +0.209 HD
ENDBRANCH  34  35
ENDBRANCH  33  34
ENDBRANCH  31  33
ENDBRANCH  30  31
ENDBRANCH  14  29
BRANCH  13  37
ATOM     37  O   UNL     1      -7.983   4.918  -1.237  0.00  0.00    -0.388 OA
ATOM     38  H   UNL     1      -8.895   4.638  -1.083  0.00  0.00    +0.210 HD
ENDBRANCH  13  37
TORSDOF 9
