REMARK  Name = ZINC08781575
REMARK  8 active torsions:
REMARK  status: ('A' for Active; 'I' for Inactive)
REMARK    1  A    between atoms: C_1  and  C_2
REMARK    2  A    between atoms: C_2  and  O_3
REMARK    3  A    between atoms: O_3  and  C_4
REMARK    4  A    between atoms: C_4  and  C_6
REMARK    5  A    between atoms: C_7  and  N_18
REMARK    6  A    between atoms: N_14  and  C_17
REMARK    7  A    between atoms: N_21  and  C_24
REMARK    8  A    between atoms: C_27  and  C_29
REMARK                            x       y       z     vdW  Elec       q    Type
REMARK                         _______ _______ _______ _____ _____    ______ ____
ROOT
ATOM      1  N   UNL     1       0.481  -4.636  -1.209  0.00  0.00    -0.326 N 
ATOM      2  C   UNL     1      -0.080  -4.098  -2.457  0.00  0.00    +0.124 C 
ATOM      3  C   UNL     1       0.042  -2.572  -2.451  0.00  0.00    +0.125 C 
ATOM      4  N   UNL     1      -0.665  -2.031  -1.282  0.00  0.00    -0.313 N 
ATOM      5  C   UNL     1      -0.104  -2.569  -0.035  0.00  0.00    +0.125 C 
ATOM      6  C   UNL     1      -0.226  -4.094  -0.040  0.00  0.00    +0.124 C 
ENDROOT
BRANCH   1   8
ATOM      7  C   UNL     1       1.640  -6.748  -1.143  0.00  0.00    +0.145 A 
ATOM      8  C   UNL     1       0.454  -6.004  -1.209  0.00  0.00    +0.058 A 
ATOM      9  C   UNL     1      -0.819  -6.733  -1.284  0.00  0.00    +0.021 A 
ATOM     10  C   UNL     1      -2.032  -6.040  -1.359  0.00  0.00    +0.012 A 
ATOM     11  C   UNL     1      -3.208  -6.733  -1.429  0.00  0.00    +0.001 A 
ATOM     12  C   UNL     1      -3.208  -8.121  -1.427  0.00  0.00    +0.002 A 
ATOM     13  C   UNL     1      -2.024  -8.823  -1.354  0.00  0.00    +0.026 A 
ATOM     14  C   UNL     1      -0.814  -8.138  -1.282  0.00  0.00    +0.054 A 
ATOM     15  N   UNL     1       0.375  -8.835  -1.210  0.00  0.00    -0.310 N 
ATOM     16  C   UNL     1       1.561  -8.208  -1.140  0.00  0.00    +0.267 A 
ATOM     17  O   UNL     1       2.586  -8.865  -1.078  0.00  0.00    -0.267 OA
ATOM     18  C   UNL     1       0.343 -10.300  -1.211  0.00  0.00    +0.152 C 
BRANCH   7  19
ATOM     19  C   UNL     1       2.938  -6.074  -1.072  0.00  0.00    +0.346 C 
ATOM     20  O   UNL     1       2.989  -4.862  -0.973  0.00  0.00    -0.245 OA
BRANCH  19  21
ATOM     21  O   UNL     1       4.077  -6.795  -1.118  0.00  0.00    -0.461 OA
BRANCH  21  23
ATOM     22  C   UNL     1       6.499  -7.040  -1.110  0.00  0.00    +0.048 C 
ATOM     23  C   UNL     1       5.326  -6.060  -1.044  0.00  0.00    +0.229 C 
ENDBRANCH  21  23
ENDBRANCH  19  21
ENDBRANCH   7  19
ENDBRANCH   1   8
BRANCH   4  24
ATOM     24  C   UNL     1      -0.637  -0.641  -1.283  0.00  0.00    +0.118 A 
ATOM     25  C   UNL     1      -1.824   0.074  -1.418  0.00  0.00    +0.079 A 
ATOM     26  C   UNL     1      -1.781   1.457  -1.416  0.00  0.00    +0.037 A 
ATOM     27  C   UNL     1      -0.548   2.081  -1.279  0.00  0.00    +0.072 A 
ATOM     28  C   UNL     1       0.589   1.310  -1.149  0.00  0.00    +0.096 A 
ATOM     29 CL   UNL     1      -3.338  -0.759  -1.587  0.00  0.00    -0.080 Cl
ATOM     30  N   UNL     1       0.585  -0.050  -1.147  0.00  0.00    -0.348 N 
ATOM     31  H   UNL     1       1.448  -0.598  -1.049  0.00  0.00    +0.167 HD
BRANCH  27  32
ATOM     32  C   UNL     1      -0.453   3.585  -1.271  0.00  0.00    +0.419 C 
ATOM     33  F   UNL     1       0.885   3.967  -1.121  0.00  0.00    -0.166 F 
ATOM     34  F   UNL     1      -0.950   4.090  -2.478  0.00  0.00    -0.166 F 
ATOM     35  F   UNL     1      -1.205   4.094  -0.207  0.00  0.00    -0.166 F 
ENDBRANCH  27  32
ENDBRANCH   4  24
TORSDOF 6
