REMARK  Name = ZINC61918961
REMARK  3 active torsions:
REMARK  status: ('A' for Active; 'I' for Inactive)
REMARK    1  A    between atoms: C_1  and  C_2
REMARK    2  A    between atoms: C_3  and  C_18
REMARK    3  A    between atoms: C_7  and  C_8
REMARK                            x       y       z     vdW  Elec       q    Type
REMARK                         _______ _______ _______ _____ _____    ______ ____
ROOT
ATOM      1  C   UNL     1      -0.126   1.083  -0.159  0.00  0.00    +0.046 C 
ATOM      2  C   UNL     1       0.051  -0.404   0.015  0.00  0.00    -0.014 A 
ATOM      3  C   UNL     1      -0.030  -1.264  -1.069  0.00  0.00    +0.064 A 
ATOM      4  N   UNL     1       0.128  -2.562  -0.897  0.00  0.00    -0.152 NA
ATOM      5  N   UNL     1       0.358  -3.086   0.251  0.00  0.00    -0.133 NA
ATOM      6  C   UNL     1       0.455  -2.355   1.354  0.00  0.00    +0.155 A 
ATOM      7  C   UNL     1       0.307  -0.959   1.274  0.00  0.00    +0.058 A 
ATOM      8  N   UNL     1       0.704  -2.962   2.572  0.00  0.00    -0.311 N 
ATOM      9  C   UNL     1      -0.436  -3.479   3.353  0.00  0.00    +0.109 C 
ATOM     10  C   UNL     1      -0.104  -4.844   3.974  0.00  0.00    +0.047 C 
ATOM     11  C   UNL     1       0.678  -5.678   2.979  0.00  0.00    +0.161 C 
ATOM     12  O   UNL     1       2.066  -5.453   3.187  0.00  0.00    -0.378 OA
ATOM     13  C   UNL     1       2.687  -4.401   2.545  0.00  0.00    +0.178 C 
ATOM     14  C   UNL     1       2.076  -3.070   3.031  0.00  0.00    +0.134 C 
ATOM     15  C   UNL     1      -0.298  -0.715  -2.446  0.00  0.00    +0.068 C 
ENDROOT
BRANCH   7  16
ATOM     16  C   UNL     1       0.413  -0.107   2.478  0.00  0.00    +0.098 C 
ATOM     17  N   UNL     1       1.411   0.768   2.588  0.00  0.00    -0.387 N 
ATOM     18  N   UNL     1      -0.488  -0.216   3.452  0.00  0.00    -0.344 N 
ATOM     19  H   UNL     1       2.067   0.848   1.879  0.00  0.00    +0.157 HD
ATOM     20  H   UNL     1      -1.260  -0.792   3.337  0.00  0.00    +0.144 HD
ATOM     21  H   UNL     1      -0.373   0.281   4.277  0.00  0.00    +0.144 HD
ATOM     22  H   UNL     1       1.481   1.327   3.378  0.00  0.00    +0.157 HD
ENDBRANCH   7  16
TORSDOF 1
