REMARK  Name = ZINC08720990
REMARK  13 active torsions:
REMARK  status: ('A' for Active; 'I' for Inactive)
REMARK    1  A    between atoms: C_1  and  O_2
REMARK    2  A    between atoms: O_2  and  C_3
REMARK    3  A    between atoms: C_9  and  O_29
REMARK    4  A    between atoms: C_11  and  O_12
REMARK    5  A    between atoms: O_12  and  C_13
REMARK    6  A    between atoms: C_15  and  O_28
REMARK    7  A    between atoms: C_17  and  O_27
REMARK    8  A    between atoms: C_19  and  O_26
REMARK    9  A    between atoms: C_21  and  C_24
REMARK   10  A    between atoms: C_24  and  O_25
REMARK   11  A    between atoms: C_31  and  C_32
REMARK   12  A    between atoms: C_35  and  O_39
REMARK   13  A    between atoms: C_36  and  O_38
REMARK                            x       y       z     vdW  Elec       q    Type
REMARK                         _______ _______ _______ _____ _____    ______ ____
ROOT
ATOM      1  C   UNL     1       2.589  -2.732  -0.211  0.00  0.00    +0.211 A 
ATOM      2  C   UNL     1       1.301  -2.137  -0.204  0.00  0.00    +0.238 A 
ATOM      3  O   UNL     1       0.292  -2.808  -0.355  0.00  0.00    -0.283 OA
ATOM      4  C   UNL     1       1.229  -0.681  -0.006  0.00  0.00    +0.110 A 
ATOM      5  C   UNL     1       2.427   0.035   0.163  0.00  0.00    +0.147 A 
ATOM      6  C   UNL     1       2.380   1.408   0.350  0.00  0.00    +0.092 A 
ATOM      7  C   UNL     1       1.159   2.064   0.369  0.00  0.00    +0.124 A 
ATOM      8  C   UNL     1      -0.028   1.359   0.203  0.00  0.00    +0.092 A 
ATOM      9  C   UNL     1      -0.001  -0.011   0.015  0.00  0.00    +0.142 A 
ATOM     10  O   UNL     1       3.608  -0.618   0.140  0.00  0.00    -0.451 OA
ATOM     11  C   UNL     1       3.690  -1.948  -0.039  0.00  0.00    +0.181 A 
ENDROOT
BRANCH  11  12
ATOM     12  C   UNL     1       5.022  -2.582  -0.049  0.00  0.00    +0.025 A 
ATOM     13  C   UNL     1       6.049  -2.042  -0.829  0.00  0.00    +0.015 A 
ATOM     14  C   UNL     1       7.293  -2.636  -0.837  0.00  0.00    +0.050 A 
ATOM     15  C   UNL     1       7.529  -3.769  -0.072  0.00  0.00    +0.158 A 
ATOM     16  C   UNL     1       6.510  -4.313   0.708  0.00  0.00    +0.159 A 
ATOM     17  C   UNL     1       5.262  -3.720   0.725  0.00  0.00    +0.060 A 
BRANCH  16  18
ATOM     18  O   UNL     1       6.745  -5.424   1.457  0.00  0.00    -0.503 OA
ATOM     19  H   UNL     1       7.061  -5.236   2.351  0.00  0.00    +0.292 HD
ENDBRANCH  16  18
BRANCH  15  20
ATOM     20  O   UNL     1       8.757  -4.351  -0.083  0.00  0.00    -0.503 OA
ATOM     21  H   UNL     1       9.360  -4.010   0.592  0.00  0.00    +0.292 HD
ENDBRANCH  15  20
ENDBRANCH  11  12
BRANCH   1  23
ATOM     22  C   UNL     1       2.746  -4.551  -1.736  0.00  0.00    +0.277 C 
ATOM     23  O   UNL     1       2.724  -4.074  -0.389  0.00  0.00    -0.488 OA
ENDBRANCH   1  23
BRANCH   7  24
ATOM     24  O   UNL     1       1.122   3.409   0.553  0.00  0.00    -0.507 OA
ATOM     25  H   UNL     1       1.061   3.678   1.480  0.00  0.00    +0.292 HD
ENDBRANCH   7  24
BRANCH   9  26
ATOM     26  O   UNL     1      -1.159  -0.701  -0.147  0.00  0.00    -0.460 OA
BRANCH  26  27
ATOM     27  C   UNL     1      -2.373   0.052  -0.113  0.00  0.00    +0.339 C 
ATOM     28  C   UNL     1      -3.553  -0.868  -0.435  0.00  0.00    +0.214 C 
ATOM     29  C   UNL     1      -3.650  -1.956   0.639  0.00  0.00    +0.180 C 
ATOM     30  C   UNL     1      -3.789  -1.292   2.012  0.00  0.00    +0.177 C 
ATOM     31  C   UNL     1      -2.600  -0.355   2.240  0.00  0.00    +0.179 C 
ATOM     32  O   UNL     1      -2.550   0.613   1.190  0.00  0.00    -0.331 OA
BRANCH  30  33
ATOM     33  O   UNL     1      -5.004  -0.541   2.058  0.00  0.00    -0.386 OA
ATOM     34  H   UNL     1      -5.800  -1.072   1.916  0.00  0.00    +0.210 HD
ENDBRANCH  30  33
BRANCH  29  35
ATOM     35  O   UNL     1      -4.793  -2.776   0.386  0.00  0.00    -0.386 OA
ATOM     36  H   UNL     1      -4.775  -3.223  -0.471  0.00  0.00    +0.210 HD
ENDBRANCH  29  35
BRANCH  28  37
ATOM     37  O   UNL     1      -3.350  -1.475  -1.713  0.00  0.00    -0.383 OA
ATOM     38  H   UNL     1      -3.275  -0.843  -2.441  0.00  0.00    +0.210 HD
ENDBRANCH  28  37
BRANCH  31  39
ATOM     39  C   UNL     1      -2.762   0.358   3.584  0.00  0.00    +0.190 C 
BRANCH  39  40
ATOM     40  O   UNL     1      -1.598   1.142   3.850  0.00  0.00    -0.392 OA
ATOM     41  H   UNL     1      -1.632   1.623   4.688  0.00  0.00    +0.210 HD
ENDBRANCH  39  40
ENDBRANCH  31  39
ENDBRANCH  26  27
ENDBRANCH   9  26
TORSDOF 12
