REMARK  Name = ZINC54381117
REMARK  3 active torsions:
REMARK  status: ('A' for Active; 'I' for Inactive)
REMARK    1  A    between atoms: C_4  and  S_7
REMARK    2  A    between atoms: S_7  and  C_8
REMARK    3  A    between atoms: C_9  and  C_14
REMARK                            x       y       z     vdW  Elec       q    Type
REMARK                         _______ _______ _______ _____ _____    ______ ____
ROOT
ATOM      1  C   UNL     1       3.509  -2.253   0.509  0.00  0.00    +0.133 A 
ATOM      2  C   UNL     1       4.315  -3.367   0.227  0.00  0.00    +0.133 A 
ATOM      3  N   UNL     1       3.778  -4.583   0.216  0.00  0.00    -0.248 NA
ATOM      4  C   UNL     1       2.494  -4.738   0.470  0.00  0.00    +0.131 A 
ATOM      5  C   UNL     1       1.697  -3.638   0.749  0.00  0.00    +0.132 A 
ATOM      6  N   UNL     1       2.218  -2.425   0.769  0.00  0.00    -0.245 NA
ENDROOT
BRANCH   2   7
ATOM      7  C   UNL     1       5.755  -3.189  -0.059  0.00  0.00    +0.116 C 
ATOM      8  N   UNL     1       6.633  -4.107   0.343  0.00  0.00    -0.385 N 
ATOM      9  N   UNL     1       6.175  -2.110  -0.717  0.00  0.00    -0.343 N 
ATOM     10  H   UNL     1       6.321  -4.926   0.759  0.00  0.00    +0.157 HD
ATOM     11  H   UNL     1       5.532  -1.514  -1.133  0.00  0.00    +0.144 HD
ATOM     12  H   UNL     1       7.124  -1.919  -0.781  0.00  0.00    +0.144 HD
ATOM     13  H   UNL     1       7.583  -3.957   0.220  0.00  0.00    +0.157 HD
ENDBRANCH   2   7
BRANCH   1  14
ATOM     14  S   UNL     1       4.208  -0.636   0.527  0.00  0.00    -0.028 S 
BRANCH  14  18
ATOM     15  C   UNL     1       0.784   2.003   1.537  0.00  0.00    +0.039 A 
ATOM     16  C   UNL     1       2.046   2.533   1.320  0.00  0.00    +0.115 A 
ATOM     17  N   UNL     1       3.045   1.719   1.021  0.00  0.00    -0.230 NA
ATOM     18  C   UNL     1       2.849   0.412   0.928  0.00  0.00    +0.194 A 
ATOM     19  N   UNL     1       1.655  -0.127   1.128  0.00  0.00    -0.230 NA
ATOM     20  C   UNL     1       0.614   0.631   1.431  0.00  0.00    +0.115 A 
ENDBRANCH  14  18
ENDBRANCH   1  14
TORSDOF 3
