REMARK  Name = ZINC38793478
REMARK  8 active torsions:
REMARK  status: ('A' for Active; 'I' for Inactive)
REMARK    1  A    between atoms: C_1  and  C_2
REMARK    2  A    between atoms: C_2  and  C_4
REMARK    3  A    between atoms: C_2  and  S_15
REMARK    4  A    between atoms: N_6  and  C_7
REMARK    5  A    between atoms: C_10  and  C_13
REMARK    6  A    between atoms: S_15  and  C_16
REMARK    7  A    between atoms: C_20  and  C_29
REMARK    8  A    between atoms: N_21  and  C_22
REMARK                            x       y       z     vdW  Elec       q    Type
REMARK                         _______ _______ _______ _____ _____    ______ ____
ROOT
ATOM      1  C   UNL     1      -1.432   0.409  -3.341  0.00  0.00    +0.242 C 
ATOM      2  N   UNL     1      -2.496   0.040  -2.393  0.00  0.00    -0.237 N 
ATOM      3  N   UNL     1      -3.215   1.211  -2.126  0.00  0.00    -0.169 NA
ATOM      4  C   UNL     1      -2.727   2.229  -2.785  0.00  0.00    +0.151 C 
ATOM      5  N   UNL     1      -1.627   1.851  -3.566  0.00  0.00    -0.254 N 
ATOM      6  H   UNL     1      -2.666  -0.842  -2.026  0.00  0.00    +0.171 HD
ENDROOT
BRANCH   4   7
ATOM      7  C   UNL     1      -3.239   3.534  -2.719  0.00  0.00    +0.022 C 
ATOM      8  C   UNL     1      -4.265   3.996  -1.895  0.00  0.00    +0.006 A 
ATOM      9  C   UNL     1      -5.070   3.360  -0.926  0.00  0.00    +0.010 A 
ATOM     10  C   UNL     1      -6.014   4.074  -0.260  0.00  0.00    +0.001 A 
ATOM     11  C   UNL     1      -6.213   5.433  -0.508  0.00  0.00    +0.002 A 
ATOM     12  C   UNL     1      -5.476   6.109  -1.424  0.00  0.00    +0.026 A 
ATOM     13  C   UNL     1      -4.470   5.430  -2.159  0.00  0.00    +0.043 A 
ATOM     14  N   UNL     1      -3.633   5.851  -3.087  0.00  0.00    -0.380 N 
ATOM     15  C   UNL     1      -2.789   4.734  -3.522  0.00  0.00    +0.152 C 
ATOM     16  H   UNL     1      -3.582   6.759  -3.427  0.00  0.00    +0.160 HD
ENDBRANCH   4   7
BRANCH   5  17
ATOM     17  C   UNL     1      -0.865   2.678  -4.396  0.00  0.00    +0.038 A 
ATOM     18  C   UNL     1      -0.921   2.522  -5.775  0.00  0.00    +0.025 A 
ATOM     19  C   UNL     1      -0.167   3.341  -6.592  0.00  0.00    +0.022 A 
ATOM     20  C   UNL     1       0.646   4.315  -6.038  0.00  0.00    +0.041 A 
ATOM     21  C   UNL     1       0.704   4.471  -4.665  0.00  0.00    +0.022 A 
ATOM     22  C   UNL     1      -0.053   3.660  -3.843  0.00  0.00    +0.025 A 
ATOM     23 CL   UNL     1       1.593   5.341  -7.069  0.00  0.00    -0.084 Cl
ENDBRANCH   5  17
BRANCH   1  24
ATOM     24  S   UNL     1       0.201   0.096  -2.615  0.00  0.00    -0.105 S 
BRANCH  24  26
ATOM     25  C   UNL     1       0.074   2.357  -1.081  0.00  0.00    +0.029 C 
ATOM     26  C   UNL     1       0.094   0.832  -0.961  0.00  0.00    +0.133 C 
BRANCH  26  27
ATOM     27  C   UNL     1       1.288   0.409  -0.145  0.00  0.00    +0.230 C 
ATOM     28  O   UNL     1       2.319   0.089  -0.699  0.00  0.00    -0.274 OA
ATOM     29  N   UNL     1       1.211   0.385   1.200  0.00  0.00    -0.285 N 
ATOM     30  H   UNL     1       0.368   0.575   1.641  0.00  0.00    +0.155 HD
BRANCH  29  31
ATOM     31  C   UNL     1       2.344   0.087   1.959  0.00  0.00    +0.033 A 
ATOM     32  C   UNL     1       3.597   0.513   1.532  0.00  0.00    +0.024 A 
ATOM     33  C   UNL     1       4.717   0.220   2.278  0.00  0.00    +0.020 A 
ATOM     34  C   UNL     1       4.593  -0.506   3.466  0.00  0.00    +0.052 A 
ATOM     35  C   UNL     1       3.332  -0.932   3.892  0.00  0.00    +0.020 A 
ATOM     36  C   UNL     1       2.216  -0.631   3.144  0.00  0.00    +0.024 A 
BRANCH  34  37
ATOM     37  C   UNL     1       5.755  -0.813   4.244  0.00  0.00    +0.099 C 
ATOM     38  N   UNL     1       6.678  -1.056   4.861  0.00  0.00    -0.191 NA
ENDBRANCH  34  37
ENDBRANCH  29  31
ENDBRANCH  26  27
ENDBRANCH  24  26
ENDBRANCH   1  24
TORSDOF 7
