REMARK  Name = ZINC49529660
REMARK  7 active torsions:
REMARK  status: ('A' for Active; 'I' for Inactive)
REMARK    1  A    between atoms: C_1  and  C_2
REMARK    2  A    between atoms: C_2  and  C_3
REMARK    3  A    between atoms: C_3  and  C_5
REMARK    4  A    between atoms: C_3  and  N_10
REMARK    5  A    between atoms: N_10  and  C_11
REMARK    6  A    between atoms: C_15  and  C_23
REMARK    7  A    between atoms: C_17  and  C_22
REMARK                            x       y       z     vdW  Elec       q    Type
REMARK                         _______ _______ _______ _____ _____    ______ ____
ROOT
ATOM      1  C   UNL     1      -2.441   1.154   1.507  0.00  0.00    +0.050 C 
ATOM      2  C   UNL     1      -3.225   1.434   2.768  0.00  0.00    -0.031 A 
ATOM      3  C   UNL     1      -4.448   0.997   3.227  0.00  0.00    +0.007 A 
ATOM      4  C   UNL     1      -4.922   1.434   4.451  0.00  0.00    -0.050 A 
ATOM      5  C   UNL     1      -4.165   2.309   5.209  0.00  0.00    +0.008 A 
ATOM      6  C   UNL     1      -2.941   2.748   4.752  0.00  0.00    -0.029 A 
ATOM      7  C   UNL     1      -2.456   2.312   3.520  0.00  0.00    +0.038 A 
ATOM      8  N   UNL     1      -1.268   2.608   2.851  0.00  0.00    -0.286 N 
ATOM      9  C   UNL     1      -1.179   1.974   1.665  0.00  0.00    +0.208 C 
ATOM     10  O   UNL     1      -0.261   2.045   0.875  0.00  0.00    -0.277 OA
ATOM     11  C   UNL     1      -2.125   3.702   5.586  0.00  0.00    +0.045 C 
ATOM     12  C   UNL     1      -6.260   0.958   4.957  0.00  0.00    +0.044 C 
ATOM     13  H   UNL     1      -0.585   3.202   3.198  0.00  0.00    +0.155 HD
ENDROOT
BRANCH   1  14
ATOM     14  N   UNL     1      -2.117  -0.276   1.409  0.00  0.00    +0.394 N 
ATOM     15  H   UNL     1      -2.969  -0.815   1.417  0.00  0.00    -0.083 HD
ATOM     16  H   UNL     1      -1.541  -0.544   2.193  0.00  0.00    -0.083 HD
BRANCH  14  17
ATOM     17  C   UNL     1      -1.389  -0.528   0.158  0.00  0.00    -0.033 C 
BRANCH  17  18
ATOM     18  C   UNL     1      -2.287  -0.228  -1.014  0.00  0.00    -0.024 A 
ATOM     19  C   UNL     1      -1.983   0.374  -2.190  0.00  0.00    +0.009 A 
ATOM     20  C   UNL     1      -2.979   0.546  -3.133  0.00  0.00    +0.008 A 
ATOM     21  C   UNL     1      -4.231   0.107  -2.854  0.00  0.00    +0.045 A 
ATOM     22  S   UNL     1      -4.025  -0.580  -1.219  0.00  0.00    -0.103 S 
ENDBRANCH  17  18
BRANCH  17  24
ATOM     23  C   UNL     1       0.068  -2.263   1.211  0.00  0.00    +0.002 C 
ATOM     24  C   UNL     1      -0.957  -1.995   0.107  0.00  0.00    -0.014 C 
ENDBRANCH  17  24
ENDBRANCH  14  17
ENDBRANCH   1  14
TORSDOF 4
