REMARK  Name = ZINC02109005
REMARK  10 active torsions:
REMARK  status: ('A' for Active; 'I' for Inactive)
REMARK    1  A    between atoms: C_1  and  C_2
REMARK    2  A    between atoms: C_2  and  O_3
REMARK    3  A    between atoms: O_3  and  C_4
REMARK    4  A    between atoms: C_9  and  C_10
REMARK    5  A    between atoms: N_29  and  C_32
REMARK    6  A    between atoms: C_32  and  C_33
REMARK    7  A    between atoms: C_36  and  O_41
REMARK    8  A    between atoms: C_37  and  O_39
REMARK    9  A    between atoms: O_39  and  C_40
REMARK   10  A    between atoms: O_41  and  C_42
REMARK                            x       y       z     vdW  Elec       q    Type
REMARK                         _______ _______ _______ _____ _____    ______ ____
ROOT
ATOM      1  C   UNL     1       0.085  -6.470   5.290  0.00  0.00    +0.157 C 
ATOM      2  C   UNL     1      -0.735  -5.251   5.648  0.00  0.00    +0.046 A 
ATOM      3  C   UNL     1      -1.427  -4.524   4.744  0.00  0.00    -0.015 A 
ATOM      4  C   UNL     1      -2.077  -3.453   5.470  0.00  0.00    +0.003 A 
ATOM      5  C   UNL     1      -2.913  -2.406   5.067  0.00  0.00    +0.010 A 
ATOM      6  C   UNL     1      -3.359  -1.556   6.048  0.00  0.00    +0.001 A 
ATOM      7  C   UNL     1      -3.004  -1.716   7.378  0.00  0.00    +0.002 A 
ATOM      8  C   UNL     1      -2.178  -2.741   7.804  0.00  0.00    +0.026 A 
ATOM      9  C   UNL     1      -1.710  -3.621   6.830  0.00  0.00    +0.047 A 
ATOM     10  N   UNL     1      -0.897  -4.715   6.898  0.00  0.00    -0.356 N 
ATOM     11  H   UNL     1      -0.495  -5.062   7.710  0.00  0.00    +0.166 HD
ATOM     12  C   UNL     1      -1.475  -4.816   3.266  0.00  0.00    +0.069 C 
ATOM     13  C   UNL     1      -1.013  -6.262   3.033  0.00  0.00    +0.167 C 
ATOM     14  N   UNL     1       0.196  -6.511   3.816  0.00  0.00    -0.276 N 
ATOM     15  C   UNL     1       1.382  -6.778   3.263  0.00  0.00    +0.234 C 
ATOM     16  O   UNL     1       2.336  -6.900   4.002  0.00  0.00    -0.274 OA
ATOM     17  C   UNL     1       1.611  -6.941   1.796  0.00  0.00    +0.204 C 
ATOM     18  N   UNL     1       0.385  -6.789   1.030  0.00  0.00    -0.287 N 
ATOM     19  C   UNL     1      -0.794  -6.490   1.572  0.00  0.00    +0.237 C 
ATOM     20  O   UNL     1      -1.750  -6.396   0.833  0.00  0.00    -0.274 OA
ENDROOT
BRANCH   1  26
ATOM     21  C   UNL     1       2.120  -7.510   6.321  0.00  0.00    +0.126 A 
ATOM     22  C   UNL     1       3.383  -7.411   6.886  0.00  0.00    +0.046 A 
ATOM     23  C   UNL     1       3.977  -6.172   7.032  0.00  0.00    +0.004 A 
ATOM     24  C   UNL     1       3.314  -5.032   6.616  0.00  0.00    +0.001 A 
ATOM     25  C   UNL     1       2.058  -5.129   6.048  0.00  0.00    +0.009 A 
ATOM     26  C   UNL     1       1.457  -6.365   5.904  0.00  0.00    +0.020 A 
BRANCH  21  27
ATOM     27  O   UNL     1       1.533  -8.727   6.176  0.00  0.00    -0.492 OA
BRANCH  27  29
ATOM     28  C   UNL     1       1.458 -11.134   6.383  0.00  0.00    +0.048 C 
ATOM     29  C   UNL     1       2.274  -9.863   6.628  0.00  0.00    +0.225 C 
ENDBRANCH  27  29
ENDBRANCH  21  27
ENDBRANCH   1  26
BRANCH  18  30
ATOM     30  C   UNL     1       0.450  -6.983  -0.420  0.00  0.00    +0.143 C 
BRANCH  30  31
ATOM     31  C   UNL     1       0.743  -5.666  -1.091  0.00  0.00    -0.026 A 
ATOM     32  C   UNL     1       2.053  -5.284  -1.316  0.00  0.00    +0.009 A 
ATOM     33  C   UNL     1       2.328  -4.076  -1.930  0.00  0.00    +0.050 A 
ATOM     34  C   UNL     1       1.290  -3.245  -2.321  0.00  0.00    +0.162 A 
ATOM     35  C   UNL     1      -0.028  -3.627  -2.089  0.00  0.00    +0.162 A 
ATOM     36  C   UNL     1      -0.297  -4.842  -1.478  0.00  0.00    +0.054 A 
BRANCH  35  37
ATOM     37  O   UNL     1      -1.050  -2.813  -2.466  0.00  0.00    -0.491 OA
ATOM     38  C   UNL     1      -2.377  -3.270  -2.196  0.00  0.00    +0.277 C 
ENDBRANCH  35  37
BRANCH  34  39
ATOM     39  O   UNL     1       1.558  -2.057  -2.925  0.00  0.00    -0.491 OA
ATOM     40  C   UNL     1       2.934  -1.728  -3.126  0.00  0.00    +0.277 C 
ENDBRANCH  34  39
ENDBRANCH  30  31
ENDBRANCH  18  30
TORSDOF 7
