REMARK  Name = ZINC38965322
REMARK  12 active torsions:
REMARK  status: ('A' for Active; 'I' for Inactive)
REMARK    1  A    between atoms: C_1  and  C_2
REMARK    2  A    between atoms: C_5  and  S_9
REMARK    3  A    between atoms: C_6  and  C_8
REMARK    4  A    between atoms: S_9  and  N_12
REMARK    5  A    between atoms: C_14  and  N_24
REMARK    6  A    between atoms: N_24  and  C_25
REMARK    7  A    between atoms: C_25  and  C_26
REMARK    8  A    between atoms: C_26  and  C_27
REMARK    9  A    between atoms: C_30  and  O_35
REMARK   10  A    between atoms: C_31  and  O_33
REMARK   11  A    between atoms: O_33  and  C_34
REMARK   12  A    between atoms: O_35  and  C_36
REMARK                            x       y       z     vdW  Elec       q    Type
REMARK                         _______ _______ _______ _____ _____    ______ ____
ROOT
ATOM      1  N   UNL     1       1.506  -5.005   0.635  0.00  0.00    -0.112 NA
ATOM      2  C   UNL     1       1.784  -6.270   0.749  0.00  0.00    +0.167 C 
ATOM      3  C   UNL     1       3.097  -6.716   1.353  0.00  0.00    +0.217 C 
ATOM      4  N   UNL     1       3.351  -8.162   1.454  0.00  0.00    -0.362 N 
ATOM      5  C   UNL     1       2.438  -8.986   1.019  0.00  0.00    +0.060 A 
ATOM      6  C   UNL     1       2.643 -10.439   1.097  0.00  0.00    +0.027 A 
ATOM      7  C   UNL     1       1.675 -11.261   0.637  0.00  0.00    +0.002 A 
ATOM      8  C   UNL     1       0.482 -10.762   0.088  0.00  0.00    +0.002 A 
ATOM      9  C   UNL     1       0.222  -9.441  -0.016  0.00  0.00    +0.028 A 
ATOM     10  C   UNL     1       1.169  -8.487   0.435  0.00  0.00    +0.064 A 
ATOM     11  N   UNL     1       0.908  -7.200   0.335  0.00  0.00    -0.338 N 
ATOM     12  H   UNL     1       4.178  -8.495   1.835  0.00  0.00    +0.162 HD
ATOM     13  H   UNL     1       0.064  -6.917  -0.049  0.00  0.00    +0.167 HD
ENDROOT
BRANCH   1  14
ATOM     14  S   UNL     1       0.063  -4.530  -0.023  0.00  0.00    +0.101 S 
ATOM     15  O   UNL     1      -0.953  -4.955   0.876  0.00  0.00    -0.146 OA
ATOM     16  O   UNL     1       0.087  -4.929  -1.387  0.00  0.00    -0.146 OA
BRANCH  14  21
ATOM     17  C   UNL     1      -0.018   1.503   0.010  0.00  0.00    +0.044 C 
ATOM     18  C   UNL     1       0.002  -0.004   0.002  0.00  0.00    -0.050 A 
ATOM     19  C   UNL     1       0.006  -0.689  -1.199  0.00  0.00    +0.005 A 
ATOM     20  C   UNL     1       0.025  -2.071  -1.207  0.00  0.00    +0.029 A 
ATOM     21  C   UNL     1       0.040  -2.768  -0.013  0.00  0.00    +0.115 A 
ATOM     22  C   UNL     1       0.037  -2.084   1.188  0.00  0.00    -0.023 A 
ATOM     23  C   UNL     1       0.023  -0.702   1.195  0.00  0.00    +0.008 A 
ATOM     24  C   UNL     1       0.054  -2.845   2.489  0.00  0.00    +0.046 C 
ENDBRANCH  14  21
ENDBRANCH   1  14
BRANCH   3  25
ATOM     25  N   UNL     1       4.181  -6.125   0.557  0.00  0.00    -0.290 NA
ATOM     26  H   UNL     1       4.571  -6.802  -0.081  0.00  0.00    +0.124 HD
BRANCH  25  27
ATOM     27  C   UNL     1       5.223  -5.559   1.425  0.00  0.00    +0.088 C 
BRANCH  27  28
ATOM     28  C   UNL     1       6.332  -4.955   0.562  0.00  0.00    +0.050 C 
BRANCH  28  29
ATOM     29  C   UNL     1       7.401  -4.374   1.452  0.00  0.00    -0.042 A 
ATOM     30  C   UNL     1       7.314  -3.058   1.865  0.00  0.00    +0.007 A 
ATOM     31  C   UNL     1       8.292  -2.521   2.681  0.00  0.00    +0.049 A 
ATOM     32  C   UNL     1       9.361  -3.302   3.088  0.00  0.00    +0.161 A 
ATOM     33  C   UNL     1       9.448  -4.628   2.673  0.00  0.00    +0.162 A 
ATOM     34  C   UNL     1       8.462  -5.161   1.858  0.00  0.00    +0.053 A 
BRANCH  33  35
ATOM     35  O   UNL     1      10.496  -5.399   3.069  0.00  0.00    -0.491 OA
ATOM     36  C   UNL     1      10.520  -6.750   2.604  0.00  0.00    +0.277 C 
ENDBRANCH  33  35
BRANCH  32  37
ATOM     37  O   UNL     1      10.324  -2.775   3.891  0.00  0.00    -0.491 OA
ATOM     38  C   UNL     1      10.170  -1.408   4.277  0.00  0.00    +0.277 C 
ENDBRANCH  32  37
ENDBRANCH  28  29
ENDBRANCH  27  28
ENDBRANCH  25  27
ENDBRANCH   3  25
TORSDOF 8
