REMARK  Name = ZINC08914850
REMARK  8 active torsions:
REMARK  status: ('A' for Active; 'I' for Inactive)
REMARK    1  A    between atoms: C_1  and  S_2
REMARK    2  A    between atoms: S_2  and  C_3
REMARK    3  A    between atoms: C_3  and  C_4
REMARK    4  A    between atoms: C_4  and  C_5
REMARK    5  A    between atoms: C_5  and  C_7
REMARK    6  A    between atoms: C_5  and  N_16
REMARK    7  A    between atoms: N_9  and  C_10
REMARK    8  A    between atoms: C_17  and  C_19
REMARK                            x       y       z     vdW  Elec       q    Type
REMARK                         _______ _______ _______ _____ _____    ______ ____
ROOT
ATOM      1  N   UNL     1      -0.508   4.255   5.988  0.00  0.00    -0.305 N 
ATOM      2  C   UNL     1      -0.950   4.163   7.258  0.00  0.00    +0.200 C 
ATOM      3  O   UNL     1      -2.135   4.034   7.480  0.00  0.00    -0.278 OA
ATOM      4  H   UNL     1       0.440   4.359   5.811  0.00  0.00    +0.149 HD
ENDROOT
BRANCH   2   5
ATOM      5  C   UNL     1       0.029   4.221   8.403  0.00  0.00    +0.021 C 
ATOM      6  C   UNL     1       0.406   5.676   8.683  0.00  0.00    +0.028 C 
ATOM      7  C   UNL     1       1.187   5.766   9.969  0.00  0.00    -0.047 A 
ATOM      8  C   UNL     1       1.917   6.918  10.220  0.00  0.00    +0.004 A 
ATOM      9  C   UNL     1       2.642   7.044  11.388  0.00  0.00    +0.000 A 
ATOM     10  C   UNL     1       2.639   6.017  12.313  0.00  0.00    +0.000 A 
ATOM     11  C   UNL     1       1.913   4.869  12.064  0.00  0.00    +0.002 A 
ATOM     12  C   UNL     1       1.186   4.740  10.889  0.00  0.00    -0.061 A 
ATOM     13  C   UNL     1       0.417   3.466  10.659  0.00  0.00    -0.045 C 
ATOM     14  N   UNL     1      -0.597   3.657   9.613  0.00  0.00    +0.389 N 
ATOM     15  H   UNL     1      -1.025   2.752   9.385  0.00  0.00    -0.084 HD
ATOM     16  H   UNL     1      -1.321   4.301   9.954  0.00  0.00    -0.084 HD
ENDBRANCH   2   5
BRANCH   1  17
ATOM     17  C   UNL     1      -1.459   4.199   4.876  0.00  0.00    +0.159 C 
BRANCH  17  18
ATOM     18  C   UNL     1      -0.754   3.713   3.636  0.00  0.00    +0.234 C 
ATOM     19  O   UNL     1       0.427   3.441   3.678  0.00  0.00    -0.274 OA
ATOM     20  N   UNL     1      -1.435   3.582   2.481  0.00  0.00    -0.311 N 
ATOM     21  H   UNL     1      -2.380   3.800   2.447  0.00  0.00    +0.149 HD
BRANCH  20  22
ATOM     22  C   UNL     1      -0.750   3.109   1.275  0.00  0.00    +0.073 C 
ATOM     23  C   UNL     1      -0.729   1.579   1.267  0.00  0.00    +0.022 C 
ATOM     24  C   UNL     1      -0.013   1.086   0.008  0.00  0.00    +0.002 C 
ATOM     25  C   UNL     1      -0.753   1.593  -1.232  0.00  0.00    +0.000 C 
ATOM     26  C   UNL     1      -0.773   3.123  -1.223  0.00  0.00    +0.002 C 
ATOM     27  C   UNL     1      -1.490   3.616   0.036  0.00  0.00    +0.022 C 
ENDBRANCH  20  22
ENDBRANCH  17  18
BRANCH  17  28
ATOM     28  C   UNL     1      -2.031   5.596   4.623  0.00  0.00    +0.042 C 
BRANCH  28  29
ATOM     29  C   UNL     1      -2.852   6.037   5.836  0.00  0.00    +0.071 C 
BRANCH  29  31
ATOM     30  C   UNL     1      -4.464   8.065   7.046  0.00  0.00    +0.084 C 
ATOM     31  S   UNL     1      -3.530   7.693   5.536  0.00  0.00    -0.164 S 
ENDBRANCH  29  31
ENDBRANCH  28  29
ENDBRANCH  17  28
ENDBRANCH   1  17
TORSDOF 7
