REMARK  Name = ZINC12484075
REMARK  5 active torsions:
REMARK  status: ('A' for Active; 'I' for Inactive)
REMARK    1  A    between atoms: C_6  and  C_7
REMARK    2  A    between atoms: C_7  and  N_8
REMARK    3  A    between atoms: N_8  and  C_9
REMARK    4  A    between atoms: C_18  and  N_23
REMARK    5  A    between atoms: C_20  and  O_22
REMARK                            x       y       z     vdW  Elec       q    Type
REMARK                         _______ _______ _______ _____ _____    ______ ____
ROOT
ATOM      1  C   UNL     1      -4.277   4.830  -1.355  0.00  0.00    -0.009 C 
ATOM      2  C   UNL     1      -5.433   3.821  -1.260  0.00  0.00    +0.136 C 
ATOM      3  C   UNL     1      -6.731   4.553  -1.673  0.00  0.00    +0.193 C 
ATOM      4  O   UNL     1      -6.831   4.359  -3.095  0.00  0.00    -0.347 OA
ATOM      5  C   UNL     1      -5.668   3.612  -3.499  0.00  0.00    +0.270 C 
ATOM      6  O   UNL     1      -5.255   2.864  -2.334  0.00  0.00    -0.346 OA
ATOM      7  C   UNL     1      -4.548   4.610  -3.830  0.00  0.00    +0.140 C 
ATOM      8  C   UNL     1      -4.411   5.603  -2.671  0.00  0.00    +0.125 C 
ENDROOT
BRANCH   7   9
ATOM      9  N   UNL     1      -3.282   3.886  -4.010  0.00  0.00    -0.288 NA
ATOM     10  C   UNL     1      -2.167   4.820  -4.229  0.00  0.00    +0.113 C 
ATOM     11  C   UNL     1      -0.863   4.029  -4.351  0.00  0.00    +0.175 C 
ATOM     12  O   UNL     1      -0.986   3.076  -5.411  0.00  0.00    -0.377 OA
ATOM     13  C   UNL     1      -2.061   2.151  -5.230  0.00  0.00    +0.175 C 
ATOM     14  C   UNL     1      -3.378   2.923  -5.117  0.00  0.00    +0.113 C 
ENDBRANCH   7   9
BRANCH   1  15
ATOM     15  N   UNL     1      -2.994   4.114  -1.332  0.00  0.00    +0.387 N 
ATOM     16  H   UNL     1      -2.241   4.721  -1.855  0.00  0.00    -0.085 HD
ATOM     17  H   UNL     1      -3.117   3.153  -1.854  0.00  0.00    -0.085 HD
BRANCH  15  18
ATOM     18  C   UNL     1      -2.553   3.868   0.048  0.00  0.00    -0.046 C 
BRANCH  18  24
ATOM     19  C   UNL     1      -1.218   1.751   0.017  0.00  0.00    +0.004 A 
ATOM     20  C   UNL     1      -0.013   1.076   0.008  0.00  0.00    +0.038 A 
ATOM     21  C   UNL     1       1.177   1.785   0.000  0.00  0.00    +0.123 A 
ATOM     22  C   UNL     1       1.157   3.169   0.008  0.00  0.00    +0.038 A 
ATOM     23  C   UNL     1      -0.051   3.842   0.023  0.00  0.00    +0.004 A 
ATOM     24  C   UNL     1      -1.238   3.133   0.031  0.00  0.00    -0.064 A 
ATOM     25  F   UNL     1       2.356   1.126  -0.015  0.00  0.00    -0.205 F 
ENDBRANCH  18  24
ENDBRANCH  15  18
ENDBRANCH   1  15
BRANCH   8  26
ATOM     26  O   UNL     1      -5.570   6.437  -2.619  0.00  0.00    -0.392 OA
ATOM     27  H   UNL     1      -5.831   7.071  -3.479  0.00  0.00    +0.210 HD
ENDBRANCH   8  26
TORSDOF 5
