REMARK  Name = ZINC36603102
REMARK  12 active torsions:
REMARK  status: ('A' for Active; 'I' for Inactive)
REMARK    1  A    between atoms: C_1  and  C_2
REMARK    2  A    between atoms: C_5  and  C_7
REMARK    3  A    between atoms: C_7  and  N_8
REMARK    4  A    between atoms: N_8  and  C_9
REMARK    5  A    between atoms: C_9  and  C_11
REMARK    6  A    between atoms: C_9  and  C_19
REMARK    7  A    between atoms: N_21  and  C_22
REMARK    8  A    between atoms: C_22  and  C_23
REMARK    9  A    between atoms: C_22  and  C_24
REMARK   10  A    between atoms: C_22  and  C_25
REMARK   11  A    between atoms: C_26  and  C_28
REMARK   12  A    between atoms: C_31  and  N_34
REMARK                            x       y       z     vdW  Elec       q    Type
REMARK                         _______ _______ _______ _____ _____    ______ ____
ROOT
ATOM      1  N   UNL     1       1.812  -3.796  -1.527  0.00  0.00    -0.275 N 
ATOM      2  C   UNL     1       0.693  -3.707  -2.273  0.00  0.00    +0.248 C 
ATOM      3  O   UNL     1      -0.128  -4.602  -2.246  0.00  0.00    -0.270 OA
ENDROOT
BRANCH   2   4
ATOM      4  C   UNL     1       0.465  -2.520  -3.124  0.00  0.00    +0.037 A 
ATOM      5  C   UNL     1       1.542  -1.724  -3.520  0.00  0.00    +0.015 A 
ATOM      6  C   UNL     1       1.322  -0.618  -4.315  0.00  0.00    +0.033 A 
ATOM      7  C   UNL     1       0.039  -0.297  -4.719  0.00  0.00    +0.126 A 
ATOM      8  C   UNL     1      -1.033  -1.081  -4.330  0.00  0.00    +0.033 A 
ATOM      9  C   UNL     1      -0.826  -2.193  -3.541  0.00  0.00    +0.015 A 
BRANCH   7  10
ATOM     10  N   UNL     1      -0.190   0.892  -5.571  0.00  0.00    +0.056 N 
ATOM     11  O   UNL     1       0.745   1.579  -5.912  0.00  0.00    -0.126 OA
ATOM     12  O   UNL     1      -1.310   1.175  -5.926  0.00  0.00    -0.126 OA
ENDBRANCH   7  10
ENDBRANCH   2   4
BRANCH   1  13
ATOM     13  C   UNL     1       1.938  -4.852  -0.519  0.00  0.00    +0.183 C 
BRANCH  13  18
ATOM     14  C   UNL     1       3.139  -9.202  -2.774  0.00  0.00    +0.086 C 
ATOM     15  C   UNL     1       3.274  -7.880  -2.062  0.00  0.00    +0.102 A 
ATOM     16  C   UNL     1       4.430  -7.302  -1.690  0.00  0.00    +0.045 A 
ATOM     17  C   UNL     1       4.094  -6.082  -1.059  0.00  0.00    +0.046 A 
ATOM     18  C   UNL     1       2.752  -5.989  -1.082  0.00  0.00    +0.122 A 
ATOM     19  O   UNL     1       2.261  -7.078  -1.696  0.00  0.00    -0.463 OA
ENDBRANCH  13  18
ENDBRANCH   1  13
BRANCH   1  20
ATOM     20  C   UNL     1       2.902  -2.838  -1.723  0.00  0.00    +0.196 C 
BRANCH  20  21
ATOM     21  C   UNL     1       3.995  -3.108  -0.722  0.00  0.00    +0.018 A 
ATOM     22  C   UNL     1       3.715  -3.084   0.632  0.00  0.00    +0.048 A 
ATOM     23  C   UNL     1       4.719  -3.333   1.551  0.00  0.00    +0.020 A 
ATOM     24  C   UNL     1       6.003  -3.604   1.116  0.00  0.00    +0.003 A 
ATOM     25  C   UNL     1       6.284  -3.627  -0.237  0.00  0.00    +0.020 A 
ATOM     26  C   UNL     1       5.279  -3.385  -1.157  0.00  0.00    +0.048 A 
ATOM     27 CL   UNL     1       5.631  -3.423  -2.857  0.00  0.00    -0.083 Cl
ATOM     28 CL   UNL     1       2.103  -2.743   1.179  0.00  0.00    -0.083 Cl
ENDBRANCH  20  21
BRANCH  20  29
ATOM     29  C   UNL     1       2.380  -1.437  -1.531  0.00  0.00    +0.239 C 
ATOM     30  O   UNL     1       1.231  -1.260  -1.187  0.00  0.00    -0.273 OA
ATOM     31  N   UNL     1       3.191  -0.381  -1.742  0.00  0.00    -0.309 N 
ATOM     32  H   UNL     1       4.110  -0.522  -2.017  0.00  0.00    +0.149 HD
BRANCH  31  33
ATOM     33  C   UNL     1       2.683   0.981  -1.555  0.00  0.00    +0.026 C 
ATOM     34  C   UNL     1       2.215   1.156  -0.109  0.00  0.00    +0.031 C 
ATOM     35  C   UNL     1       3.796   1.986  -1.856  0.00  0.00    +0.031 C 
ATOM     36  C   UNL     1       1.508   1.222  -2.504  0.00  0.00    +0.031 C 
ENDBRANCH  31  33
ENDBRANCH  20  29
ENDBRANCH   1  20
TORSDOF 8
