REMARK  Name = ZINC04686003
REMARK  8 active torsions:
REMARK  status: ('A' for Active; 'I' for Inactive)
REMARK    1  A    between atoms: C_1  and  C_2
REMARK    2  A    between atoms: C_2  and  C_29
REMARK    3  A    between atoms: C_6  and  C_17
REMARK    4  A    between atoms: C_11  and  O_16
REMARK    5  A    between atoms: C_12  and  O_15
REMARK    6  A    between atoms: C_23  and  S_25
REMARK    7  A    between atoms: S_25  and  C_26
REMARK    8  A    between atoms: C_26  and  C_27
REMARK                            x       y       z     vdW  Elec       q    Type
REMARK                         _______ _______ _______ _____ _____    ______ ____
ROOT
ATOM      1  C   UNL     1      -0.019   1.526   0.010  0.00  0.00    +0.034 C 
ATOM      2  C   UNL     1       0.002  -0.004   0.002  0.00  0.00    +0.040 C 
ATOM      3  C   UNL     1       0.581  -0.493  -1.328  0.00  0.00    +0.096 C 
ATOM      4  C   UNL     1       2.084  -0.197  -1.342  0.00  0.00    +0.181 C 
ATOM      5  C   UNL     1       2.315   1.310  -1.213  0.00  0.00    +0.082 C 
ATOM      6  C   UNL     1       1.570   2.013  -2.351  0.00  0.00    +0.065 C 
ATOM      7  C   UNL     1       1.873   1.325  -3.659  0.00  0.00    +0.006 A 
ATOM      8  C   UNL     1       1.625   2.005  -4.840  0.00  0.00    +0.011 A 
ATOM      9  C   UNL     1       1.883   1.410  -6.059  0.00  0.00    +0.050 A 
ATOM     10  C   UNL     1       2.395   0.122  -6.106  0.00  0.00    +0.162 A 
ATOM     11  C   UNL     1       2.647  -0.563  -4.925  0.00  0.00    +0.201 A 
ATOM     12  C   UNL     1       2.388   0.042  -3.697  0.00  0.00    +0.172 A 
ATOM     13  O   UNL     1       2.662  -0.655  -2.561  0.00  0.00    -0.464 OA
ATOM     14  N   UNL     1       2.694  -0.890  -0.201  0.00  0.00    -0.288 N 
ATOM     15  C   UNL     1       2.037  -0.870   1.009  0.00  0.00    +0.131 C 
ATOM     16  N   UNL     1       0.809  -0.480   1.120  0.00  0.00    -0.363 N 
ATOM     17  C   UNL     1      -1.427  -0.529   0.153  0.00  0.00    +0.034 C 
ATOM     18  H   UNL     1       3.541  -1.352  -0.297  0.00  0.00    +0.152 HD
ATOM     19  H   UNL     1       0.400  -0.505   1.999  0.00  0.00    +0.162 HD
ENDROOT
BRANCH   6  20
ATOM     20  C   UNL     1       2.013   3.451  -2.428  0.00  0.00    -0.003 A 
ATOM     21  C   UNL     1       1.275   4.580  -2.292  0.00  0.00    +0.012 A 
ATOM     22  C   UNL     1       1.901   5.807  -2.402  0.00  0.00    +0.008 A 
ATOM     23  C   UNL     1       3.234   5.846  -2.643  0.00  0.00    +0.045 A 
ATOM     24  S   UNL     1       3.647   4.110  -2.715  0.00  0.00    -0.101 S 
ENDBRANCH   6  20
BRANCH  11  25
ATOM     25  O   UNL     1       3.148  -1.828  -4.967  0.00  0.00    -0.501 OA
ATOM     26  H   UNL     1       4.114  -1.869  -4.966  0.00  0.00    +0.292 HD
ENDBRANCH  11  25
BRANCH  10  27
ATOM     27  O   UNL     1       2.647  -0.469  -7.304  0.00  0.00    -0.503 OA
ATOM     28  H   UNL     1       3.542  -0.314  -7.638  0.00  0.00    +0.292 HD
ENDBRANCH  10  27
BRANCH  15  29
ATOM     29  S   UNL     1       2.898  -1.394   2.454  0.00  0.00    -0.089 S 
BRANCH  29  30
ATOM     30  C   UNL     1       1.679  -1.206   3.784  0.00  0.00    +0.103 C 
BRANCH  30  31
ATOM     31  C   UNL     1       2.295  -1.626   5.093  0.00  0.00    -0.023 C 
ATOM     32  C   UNL     1       2.472  -0.745   6.046  0.00  0.00    +0.005 C 
ENDBRANCH  30  31
ENDBRANCH  29  30
ENDBRANCH  15  29
TORSDOF 6
