REMARK  Name = ZINC20585408
REMARK  3 active torsions:
REMARK  status: ('A' for Active; 'I' for Inactive)
REMARK    1  A    between atoms: C_6  and  N_7
REMARK    2  A    between atoms: N_7  and  C_8
REMARK    3  A    between atoms: C_13  and  N_14
REMARK                            x       y       z     vdW  Elec       q    Type
REMARK                         _______ _______ _______ _____ _____    ______ ____
ROOT
ATOM      1  C   UNL     1       2.359   4.194   0.107  0.00  0.00    +0.055 A 
ATOM      2  C   UNL     1       3.585   3.534   0.100  0.00  0.00    +0.042 A 
ATOM      3  C   UNL     1       4.747   4.272   0.193  0.00  0.00    +0.084 A 
ATOM      4  N   UNL     1       4.710   5.587   0.299  0.00  0.00    -0.365 N 
ATOM      5  C   UNL     1       3.571   6.254   0.316  0.00  0.00    +0.107 A 
ATOM      6  C   UNL     1       2.359   5.589   0.221  0.00  0.00    +0.062 A 
ATOM      7  H   UNL     1       5.646   6.160   0.376  0.00  0.00    +0.165 HD
ENDROOT
BRANCH   6   8
ATOM      8  N   UNL     1       1.154   6.301   0.240  0.00  0.00    -0.355 N 
ATOM      9  H   UNL     1       1.164   7.398   0.330  0.00  0.00    +0.142 HD
ATOM     10  H   UNL     1       0.197   5.765   0.165  0.00  0.00    +0.142 HD
ENDBRANCH   6   8
BRANCH   1  11
ATOM     11  N   UNL     1       1.162   3.483   0.010  0.00  0.00    -0.313 N 
ATOM     12  H   UNL     1       0.202   4.003   0.140  0.00  0.00    +0.152 HD
BRANCH  11  18
ATOM     13  C   UNL     1       0.320   1.259   0.423  0.00  0.00    +0.024 A 
ATOM     14  C   UNL     1       0.344  -0.097   0.160  0.00  0.00    +0.016 A 
ATOM     15  C   UNL     1       1.227  -0.606  -0.775  0.00  0.00    +0.013 A 
ATOM     16  C   UNL     1       2.088   0.240  -1.450  0.00  0.00    +0.016 A 
ATOM     17  C   UNL     1       2.069   1.596  -1.192  0.00  0.00    +0.024 A 
ATOM     18  C   UNL     1       1.184   2.111  -0.254  0.00  0.00    +0.031 A 
ATOM     19  I   UNL     1       1.259  -2.663  -1.169  0.00  0.00    -0.044 I 
ENDBRANCH  11  18
ENDBRANCH   1  11
TORSDOF 3
