REMARK  Name = ZINC19790746
REMARK  10 active torsions:
REMARK  status: ('A' for Active; 'I' for Inactive)
REMARK    1  A    between atoms: N_13  and  C_16
REMARK    2  A    between atoms: C_16  and  C_17
REMARK    3  A    between atoms: C_17  and  N_18
REMARK    4  A    between atoms: N_21  and  C_24
REMARK    5  A    between atoms: C_24  and  C_25
REMARK    6  A    between atoms: C_25  and  C_27
REMARK    7  A    between atoms: C_25  and  O_39
REMARK    8  A    between atoms: C_27  and  O_28
REMARK    9  A    between atoms: O_28  and  C_29
REMARK   10  A    between atoms: C_29  and  C_30
REMARK                            x       y       z     vdW  Elec       q    Type
REMARK                         _______ _______ _______ _____ _____    ______ ____
ROOT
ATOM      1  N   UNL     1      -1.431   2.609   6.150  0.00  0.00    +0.382 N 
ATOM      2  C   UNL     1      -1.434   1.146   6.008  0.00  0.00    -0.063 C 
ATOM      3  C   UNL     1      -0.483   0.744   4.878  0.00  0.00    +0.066 C 
ATOM      4  N   UNL     1      -0.908   1.392   3.629  0.00  0.00    -0.303 NA
ATOM      5  C   UNL     1      -0.906   2.855   3.771  0.00  0.00    +0.066 C 
ATOM      6  C   UNL     1      -1.857   3.257   4.901  0.00  0.00    -0.063 C 
ATOM      7  H   UNL     1      -0.401   2.928   6.364  0.00  0.00    -0.082 HD
ENDROOT
BRANCH   1   8
ATOM      8  C   UNL     1      -2.276   3.030   7.276  0.00  0.00    -0.059 C 
BRANCH   8   9
ATOM      9  C   UNL     1      -2.450   4.549   7.242  0.00  0.00    +0.098 C 
BRANCH   9  22
ATOM     10  C   UNL     1      -3.762   6.432  12.966  0.00  0.00    +0.001 A 
ATOM     11  C   UNL     1      -5.119   6.510  12.838  0.00  0.00    +0.008 A 
ATOM     12  C   UNL     1      -5.730   6.185  11.615  0.00  0.00    -0.016 A 
ATOM     13  C   UNL     1      -7.123   6.251  11.433  0.00  0.00    +0.008 A 
ATOM     14  C   UNL     1      -7.670   5.926  10.225  0.00  0.00    +0.001 A 
ATOM     15  C   UNL     1      -6.882   5.526   9.152  0.00  0.00    +0.014 A 
ATOM     16  C   UNL     1      -5.504   5.447   9.291  0.00  0.00    +0.046 A 
ATOM     17  C   UNL     1      -4.919   5.781  10.534  0.00  0.00    +0.006 A 
ATOM     18  C   UNL     1      -3.516   5.706  10.685  0.00  0.00    +0.046 A 
ATOM     19  C   UNL     1      -2.952   6.035  11.909  0.00  0.00    +0.014 A 
ATOM     20  C   UNL     1      -2.704   5.280   9.535  0.00  0.00    +0.254 C 
ATOM     21  O   UNL     1      -1.495   5.209   9.642  0.00  0.00    -0.270 OA
ATOM     22  N   UNL     1      -3.292   4.969   8.365  0.00  0.00    -0.236 N 
ATOM     23  C   UNL     1      -4.626   5.035   8.186  0.00  0.00    +0.254 C 
ATOM     24  O   UNL     1      -5.106   4.747   7.107  0.00  0.00    -0.270 OA
ENDBRANCH   9  22
ENDBRANCH   8   9
ENDBRANCH   1   8
BRANCH   4  25
ATOM     25  C   UNL     1      -0.064   0.971   2.503  0.00  0.00    +0.117 C 
BRANCH  25  26
ATOM     26  C   UNL     1      -0.454  -0.444   2.074  0.00  0.00    +0.154 C 
BRANCH  26  27
ATOM     27  O   UNL     1      -1.822  -0.457   1.661  0.00  0.00    -0.388 OA
ATOM     28  H   UNL     1      -2.284  -1.393   1.316  0.00  0.00    +0.210 HD
ENDBRANCH  26  27
BRANCH  26  29
ATOM     29  C   UNL     1       0.434  -0.888   0.910  0.00  0.00    +0.192 C 
BRANCH  29  30
ATOM     30  O   UNL     1       0.149  -2.250   0.586  0.00  0.00    -0.373 OA
BRANCH  30  31
ATOM     31  C   UNL     1       0.929  -2.765  -0.495  0.00  0.00    +0.195 C 
BRANCH  31  32
ATOM     32  C   UNL     1       0.548  -4.201  -0.750  0.00  0.00    -0.018 A 
ATOM     33  C   UNL     1       1.216  -5.219  -0.094  0.00  0.00    +0.010 A 
ATOM     34  C   UNL     1       0.866  -6.537  -0.320  0.00  0.00    +0.050 A 
ATOM     35  C   UNL     1      -0.147  -6.842  -1.214  0.00  0.00    +0.166 A 
ATOM     36  C   UNL     1      -0.816  -5.817  -1.879  0.00  0.00    +0.167 A 
ATOM     37  C   UNL     1      -0.465  -4.498  -1.643  0.00  0.00    +0.055 A 
ATOM     38  O   UNL     1      -1.760  -6.370  -2.695  0.00  0.00    -0.453 OA
ATOM     39  C   UNL     1      -1.388  -7.754  -2.831  0.00  0.00    +0.466 C 
ATOM     40  O   UNL     1      -0.672  -8.037  -1.614  0.00  0.00    -0.453 OA
ENDBRANCH  31  32
ENDBRANCH  30  31
ENDBRANCH  29  30
ENDBRANCH  26  29
ENDBRANCH  25  26
ENDBRANCH   4  25
TORSDOF 10
