REMARK  Name = ZINC46757151
REMARK  12 active torsions:
REMARK  status: ('A' for Active; 'I' for Inactive)
REMARK    1  A    between atoms: C_1  and  C_2
REMARK    2  A    between atoms: C_2  and  C_3
REMARK    3  A    between atoms: C_2  and  N_4
REMARK    4  A    between atoms: N_4  and  C_5
REMARK    5  A    between atoms: N_4  and  C_6
REMARK    6  A    between atoms: C_6  and  C_7
REMARK    7  A    between atoms: C_12  and  C_13
REMARK    8  A    between atoms: C_13  and  N_14
REMARK    9  A    between atoms: C_15  and  C_17
REMARK   10  A    between atoms: C_17  and  N_18
REMARK   11  A    between atoms: C_19  and  C_21
REMARK   12  A    between atoms: C_24  and  C_27
REMARK                            x       y       z     vdW  Elec       q    Type
REMARK                         _______ _______ _______ _____ _____    ______ ____
ROOT
ATOM      1  N   UNL     1      -1.188  -3.431   3.239  0.00  0.00    -0.310 N 
ATOM      2  C   UNL     1      -2.528  -3.308   3.296  0.00  0.00    +0.230 C 
ATOM      3  O   UNL     1      -3.026  -2.337   3.826  0.00  0.00    -0.274 OA
ATOM      4  H   UNL     1      -0.789  -4.208   2.815  0.00  0.00    +0.149 HD
ENDROOT
BRANCH   1   5
ATOM      5  C   UNL     1      -0.331  -2.392   3.815  0.00  0.00    +0.139 C 
BRANCH   5  11
ATOM      6  C   UNL     1       1.647  -2.368   2.282  0.00  0.00    -0.059 A 
ATOM      7  C   UNL     1       2.972  -2.650   2.006  0.00  0.00    +0.002 A 
ATOM      8  C   UNL     1       3.760  -3.272   2.956  0.00  0.00    +0.000 A 
ATOM      9  C   UNL     1       3.223  -3.612   4.184  0.00  0.00    +0.000 A 
ATOM     10  C   UNL     1       1.898  -3.330   4.460  0.00  0.00    +0.005 A 
ATOM     11  C   UNL     1       1.112  -2.704   3.511  0.00  0.00    -0.029 A 
BRANCH   6  12
ATOM     12  C   UNL     1       0.789  -1.690   1.246  0.00  0.00    -0.043 C 
BRANCH  12  13
ATOM     13  N   UNL     1      -0.017  -2.697   0.543  0.00  0.00    +0.382 N 
ATOM     14  C   UNL     1       0.868  -3.594  -0.211  0.00  0.00    -0.095 C 
ATOM     15  H   UNL     1      -0.546  -3.233   1.214  0.00  0.00    -0.081 HD
BRANCH  13  17
ATOM     16  C   UNL     1      -1.779  -3.075  -1.116  0.00  0.00    -0.014 C 
ATOM     17  C   UNL     1      -0.940  -2.027  -0.384  0.00  0.00    -0.075 C 
ATOM     18  C   UNL     1      -1.862  -1.092   0.402  0.00  0.00    -0.014 C 
ENDBRANCH  13  17
ENDBRANCH  12  13
ENDBRANCH   6  12
ENDBRANCH   5  11
ENDBRANCH   1   5
BRANCH   2  19
ATOM     19  C   UNL     1      -3.409  -4.377   2.703  0.00  0.00    +0.200 C 
BRANCH  19  20
ATOM     20  N   UNL     1      -4.815  -4.012   2.893  0.00  0.00    -0.303 N 
ATOM     21  C   UNL     1      -5.790  -4.825   2.440  0.00  0.00    +0.244 C 
ATOM     22  O   UNL     1      -5.502  -5.862   1.873  0.00  0.00    -0.270 OA
ATOM     23  H   UNL     1      -5.045  -3.185   3.345  0.00  0.00    +0.150 HD
BRANCH  21  24
ATOM     24  C   UNL     1      -7.208  -4.458   2.632  0.00  0.00    +0.037 A 
ATOM     25  C   UNL     1      -7.539  -3.264   3.277  0.00  0.00    +0.013 A 
ATOM     26  C   UNL     1      -8.861  -2.922   3.455  0.00  0.00    +0.009 A 
ATOM     27  C   UNL     1      -9.869  -3.767   2.990  0.00  0.00    -0.018 A 
ATOM     28  C   UNL     1      -9.539  -4.959   2.346  0.00  0.00    +0.009 A 
ATOM     29  C   UNL     1      -8.218  -5.300   2.162  0.00  0.00    +0.013 A 
BRANCH  27  30
ATOM     30  C   UNL     1     -11.292  -3.397   3.182  0.00  0.00    -0.018 A 
ATOM     31  C   UNL     1     -11.625  -2.204   3.821  0.00  0.00    +0.008 A 
ATOM     32  C   UNL     1     -12.951  -1.865   3.997  0.00  0.00    +0.001 A 
ATOM     33  C   UNL     1     -13.949  -2.706   3.540  0.00  0.00    +0.000 A 
ATOM     34  C   UNL     1     -13.625  -3.892   2.905  0.00  0.00    +0.001 A 
ATOM     35  C   UNL     1     -12.302  -4.239   2.719  0.00  0.00    +0.008 A 
ENDBRANCH  27  30
ENDBRANCH  21  24
ENDBRANCH  19  20
ENDBRANCH   2  19
TORSDOF 9
