REMARK  Name = ZINC63572140
REMARK  6 active torsions:
REMARK  status: ('A' for Active; 'I' for Inactive)
REMARK    1  A    between atoms: C_1  and  O_2
REMARK    2  A    between atoms: O_2  and  C_3
REMARK    3  A    between atoms: C_6  and  C_9
REMARK    4  A    between atoms: N_27  and  C_28
REMARK    5  A    between atoms: C_33  and  O_34
REMARK    6  A    between atoms: O_34  and  C_35
REMARK                            x       y       z     vdW  Elec       q    Type
REMARK                         _______ _______ _______ _____ _____    ______ ____
ROOT
ATOM      1  C   UNL     1      -4.226  -2.437  -0.526  0.00  0.00    +0.134 C 
ATOM      2  C   UNL     1      -4.607  -2.572   0.953  0.00  0.00    +0.131 C 
ATOM      3  C   UNL     1      -4.052  -3.909   1.425  0.00  0.00    -0.035 C 
ATOM      4  C   UNL     1      -3.274  -3.646   2.468  0.00  0.00    +0.001 A 
ATOM      5  C   UNL     1      -2.526  -4.527   3.379  0.00  0.00    +0.030 A 
ATOM      6  C   UNL     1      -1.807  -3.910   4.354  0.00  0.00    +0.042 A 
ATOM      7  C   UNL     1      -1.759  -2.520   4.512  0.00  0.00    +0.022 A 
ATOM      8  C   UNL     1      -2.419  -1.635   3.722  0.00  0.00    +0.027 A 
ATOM      9  C   UNL     1      -3.213  -2.165   2.664  0.00  0.00    +0.043 A 
ATOM     10  N   UNL     1      -3.968  -1.543   1.776  0.00  0.00    -0.375 N 
ATOM     11 CL   UNL     1      -0.903  -4.896   5.461  0.00  0.00    -0.084 Cl
ATOM     12  C   UNL     1      -4.342  -5.205   0.707  0.00  0.00    +0.052 C 
ATOM     13  C   UNL     1      -4.023  -4.968  -0.780  0.00  0.00    +0.114 C 
ATOM     14  N   UNL     1      -4.600  -3.687  -1.205  0.00  0.00    -0.276 N 
ATOM     15  C   UNL     1      -5.481  -3.656  -2.224  0.00  0.00    +0.307 C 
ATOM     16  O   UNL     1      -5.890  -2.589  -2.641  0.00  0.00    -0.252 OA
ATOM     17  N   UNL     1      -5.908  -4.806  -2.782  0.00  0.00    -0.266 N 
ATOM     18  H   UNL     1      -5.634  -5.658  -2.408  0.00  0.00    +0.156 HD
ATOM     19  H   UNL     1      -4.080  -0.585   1.674  0.00  0.00    +0.160 HD
ENDROOT
BRANCH  17  20
ATOM     20  C   UNL     1      -6.750  -4.772  -3.902  0.00  0.00    +0.078 A 
ATOM     21  C   UNL     1      -7.594  -3.690  -4.105  0.00  0.00    +0.047 A 
ATOM     22  C   UNL     1      -8.423  -3.658  -5.211  0.00  0.00    +0.043 A 
ATOM     23  C   UNL     1      -8.413  -4.704  -6.117  0.00  0.00    +0.024 A 
ATOM     24  C   UNL     1      -7.574  -5.785  -5.921  0.00  0.00    +0.049 A 
ATOM     25  C   UNL     1      -6.737  -5.821  -4.818  0.00  0.00    +0.141 A 
ATOM     26 CL   UNL     1      -9.479  -2.303  -5.463  0.00  0.00    -0.083 Cl
BRANCH  25  27
ATOM     27  O   UNL     1      -5.907  -6.882  -4.626  0.00  0.00    -0.493 OA
ATOM     28  C   UNL     1      -5.947  -7.922  -5.606  0.00  0.00    +0.277 C 
ENDBRANCH  25  27
ENDBRANCH  17  20
BRANCH   1  32
ATOM     29  C   UNL     1      -0.016  -1.800  -0.883  0.00  0.00    +0.120 A 
ATOM     30  C   UNL     1      -0.495  -2.952  -0.277  0.00  0.00    +0.046 A 
ATOM     31  C   UNL     1      -1.857  -3.156  -0.162  0.00  0.00    +0.009 A 
ATOM     32  C   UNL     1      -2.742  -2.212  -0.651  0.00  0.00    -0.024 A 
ATOM     33  C   UNL     1      -2.266  -1.063  -1.256  0.00  0.00    +0.009 A 
ATOM     34  C   UNL     1      -0.906  -0.852  -1.368  0.00  0.00    +0.046 A 
BRANCH  29  36
ATOM     35  C   UNL     1       2.180  -2.615  -0.475  0.00  0.00    +0.277 C 
ATOM     36  O   UNL     1       1.323  -1.597  -0.996  0.00  0.00    -0.495 OA
ENDBRANCH  29  36
ENDBRANCH   1  32
TORSDOF 4
