REMARK  Name = ZINC03363156
REMARK  7 active torsions:
REMARK  status: ('A' for Active; 'I' for Inactive)
REMARK    1  A    between atoms: C_4  and  N_23
REMARK    2  A    between atoms: C_5  and  C_7
REMARK    3  A    between atoms: C_7  and  O_9
REMARK    4  A    between atoms: O_9  and  C_10
REMARK    5  A    between atoms: C_10  and  C_11
REMARK    6  A    between atoms: N_23  and  S_24
REMARK    7  A    between atoms: S_24  and  C_27
REMARK                            x       y       z     vdW  Elec       q    Type
REMARK                         _______ _______ _______ _____ _____    ______ ____
ROOT
ATOM      1  C   UNL     1       0.576  -3.254  -4.126  0.00  0.00    +0.001 A 
ATOM      2  C   UNL     1       0.403  -3.670  -2.815  0.00  0.00    +0.002 A 
ATOM      3  C   UNL     1      -0.427  -2.971  -1.964  0.00  0.00    +0.025 A 
ATOM      4  C   UNL     1      -1.107  -1.848  -2.421  0.00  0.00    +0.062 A 
ATOM      5  C   UNL     1      -0.934  -1.424  -3.748  0.00  0.00    +0.081 A 
ATOM      6  C   UNL     1      -0.084  -2.140  -4.596  0.00  0.00    +0.017 A 
ENDROOT
BRANCH   5   7
ATOM      7  C   UNL     1      -1.643  -0.232  -4.243  0.00  0.00    +0.341 C 
ATOM      8  O   UNL     1      -2.381   0.388  -3.503  0.00  0.00    -0.245 OA
BRANCH   7   9
ATOM      9  O   UNL     1      -1.474   0.172  -5.518  0.00  0.00    -0.452 OA
BRANCH   9  10
ATOM     10  C   UNL     1      -2.204   1.354  -5.937  0.00  0.00    +0.328 C 
BRANCH  10  11
ATOM     11  C   UNL     1      -1.893   1.651  -7.382  0.00  0.00    +0.256 C 
ATOM     12  O   UNL     1      -1.131   0.936  -7.997  0.00  0.00    -0.272 OA
ATOM     13  N   UNL     1      -2.461   2.711  -7.990  0.00  0.00    -0.262 N 
ATOM     14  C   UNL     1      -2.175   2.984  -9.317  0.00  0.00    +0.166 A 
ATOM     15  N   UNL     1      -2.625   3.958 -10.073  0.00  0.00    -0.225 NA
ATOM     16  C   UNL     1      -2.257   4.105 -11.364  0.00  0.00    +0.080 A 
ATOM     17  C   UNL     1      -2.664   5.102 -12.281  0.00  0.00    +0.029 A 
ATOM     18  C   UNL     1      -2.191   5.106 -13.567  0.00  0.00    +0.002 A 
ATOM     19  C   UNL     1      -1.302   4.140 -14.015  0.00  0.00    +0.001 A 
ATOM     20  C   UNL     1      -0.882   3.150 -13.146  0.00  0.00    +0.017 A 
ATOM     21  C   UNL     1      -1.351   3.138 -11.856  0.00  0.00    +0.041 A 
ATOM     22  S   UNL     1      -1.093   2.104 -10.434  0.00  0.00    -0.052 S 
ATOM     23  H   UNL     1      -3.071   3.283  -7.498  0.00  0.00    +0.157 HD
ENDBRANCH  10  11
ENDBRANCH   9  10
ENDBRANCH   7   9
ENDBRANCH   5   7
BRANCH   4  24
ATOM     24  N   UNL     1      -1.948  -1.147  -1.568  0.00  0.00    -0.215 N 
ATOM     25  H   UNL     1      -2.763  -0.748  -1.910  0.00  0.00    +0.174 HD
BRANCH  24  26
ATOM     26  S   UNL     1      -1.560  -0.990   0.035  0.00  0.00    +0.072 S 
ATOM     27  O   UNL     1      -1.330  -2.304   0.527  0.00  0.00    -0.150 OA
ATOM     28  O   UNL     1      -2.529  -0.121   0.605  0.00  0.00    -0.150 OA
BRANCH  26  29
ATOM     29  C   UNL     1      -0.015  -0.145   0.116  0.00  0.00    +0.111 A 
ATOM     30  C   UNL     1       1.166  -0.863   0.110  0.00  0.00    +0.032 A 
ATOM     31  C   UNL     1       2.378  -0.203   0.174  0.00  0.00    +0.043 A 
ATOM     32  C   UNL     1       2.410   1.179   0.244  0.00  0.00    +0.159 A 
ATOM     33  C   UNL     1       1.226   1.899   0.249  0.00  0.00    +0.160 A 
ATOM     34  C   UNL     1       0.013   1.235   0.185  0.00  0.00    +0.070 A 
ATOM     35  F   UNL     1       1.255   3.248   0.317  0.00  0.00    -0.202 F 
ATOM     36  F   UNL     1       3.595   1.826   0.306  0.00  0.00    -0.202 F 
ENDBRANCH  26  29
ENDBRANCH  24  26
ENDBRANCH   4  24
TORSDOF 7
