REMARK  Name = ZINC04276379
REMARK  8 active torsions:
REMARK  status: ('A' for Active; 'I' for Inactive)
REMARK    1  A    between atoms: C_1  and  C_2
REMARK    2  A    between atoms: C_2  and  O_3
REMARK    3  A    between atoms: O_3  and  C_4
REMARK    4  A    between atoms: C_6  and  C_11
REMARK    5  A    between atoms: C_9  and  O_10
REMARK    6  A    between atoms: C_13  and  C_20
REMARK    7  A    between atoms: C_14  and  C_19
REMARK    8  A    between atoms: N_22  and  C_23
REMARK                            x       y       z     vdW  Elec       q    Type
REMARK                         _______ _______ _______ _____ _____    ______ ____
ROOT
ATOM      1  C   UNL     1      -1.271  -0.870   0.435  0.00  0.00    +0.139 C 
ATOM      2  C   UNL     1      -1.435  -0.811   1.940  0.00  0.00    +0.056 C 
ATOM      3  C   UNL     1      -2.501  -0.143   2.430  0.00  0.00    +0.017 C 
ATOM      4  N   UNL     1      -3.400   0.459   1.597  0.00  0.00    -0.300 N 
ATOM      5  C   UNL     1      -3.304   0.438   0.261  0.00  0.00    +0.135 C 
ATOM      6  S   UNL     1      -4.502   1.234  -0.668  0.00  0.00    -0.019 S 
ATOM      7  N   UNL     1      -2.295  -0.189  -0.375  0.00  0.00    -0.315 N 
ATOM      8  C   UNL     1      -2.703  -0.061   3.921  0.00  0.00    +0.061 C 
ATOM      9  H   UNL     1      -4.151   0.927   1.994  0.00  0.00    +0.154 HD
ATOM     10  H   UNL     1      -2.244  -0.191  -1.344  0.00  0.00    +0.149 HD
ENDROOT
BRANCH   1  13
ATOM     11  C   UNL     1       1.495   1.645  -0.111  0.00  0.00    +0.162 A 
ATOM     12  C   UNL     1       0.264   1.093   0.205  0.00  0.00    +0.055 A 
ATOM     13  C   UNL     1       0.069  -0.271   0.090  0.00  0.00    -0.019 A 
ATOM     14  C   UNL     1       1.099  -1.086  -0.340  0.00  0.00    +0.009 A 
ATOM     15  C   UNL     1       2.329  -0.542  -0.658  0.00  0.00    +0.049 A 
ATOM     16  C   UNL     1       2.532   0.824  -0.544  0.00  0.00    +0.158 A 
BRANCH  16  17
ATOM     17  O   UNL     1       3.742   1.362  -0.856  0.00  0.00    -0.503 OA
ATOM     18  H   UNL     1       4.355   1.409  -0.110  0.00  0.00    +0.292 HD
ENDBRANCH  16  17
BRANCH  11  19
ATOM     19  O   UNL     1       1.689   2.986   0.001  0.00  0.00    -0.489 OA
BRANCH  19  21
ATOM     20  C   UNL     1       1.021   5.228   0.608  0.00  0.00    +0.048 C 
ATOM     21  C   UNL     1       0.620   3.752   0.560  0.00  0.00    +0.226 C 
ENDBRANCH  19  21
ENDBRANCH  11  19
ENDBRANCH   1  13
BRANCH   2  22
ATOM     22  C   UNL     1      -0.503  -1.436   2.804  0.00  0.00    +0.248 C 
ATOM     23  O   UNL     1      -0.603  -1.299   4.009  0.00  0.00    -0.270 OA
ATOM     24  N   UNL     1       0.496  -2.182   2.291  0.00  0.00    -0.279 N 
ATOM     25  H   UNL     1       0.624  -2.226   1.330  0.00  0.00    +0.155 HD
BRANCH  24  26
ATOM     26  C   UNL     1       1.348  -2.893   3.144  0.00  0.00    +0.069 A 
ATOM     27  C   UNL     1       0.977  -3.125   4.461  0.00  0.00    +0.026 A 
ATOM     28  C   UNL     1       1.820  -3.827   5.301  0.00  0.00    +0.002 A 
ATOM     29  C   UNL     1       3.032  -4.299   4.831  0.00  0.00    +0.003 A 
ATOM     30  C   UNL     1       3.406  -4.070   3.520  0.00  0.00    +0.040 A 
ATOM     31  C   UNL     1       2.564  -3.373   2.672  0.00  0.00    +0.144 A 
ATOM     32  F   UNL     1       2.927  -3.155   1.389  0.00  0.00    -0.204 F 
ENDBRANCH  24  26
ENDBRANCH   2  22
TORSDOF 6
