REMARK  Name = ZINC54379816
REMARK  4 active torsions:
REMARK  status: ('A' for Active; 'I' for Inactive)
REMARK    1  A    between atoms: C_1  and  C_2
REMARK    2  A    between atoms: C_2  and  C_3
REMARK    3  A    between atoms: C_7  and  C_20
REMARK    4  A    between atoms: C_12  and  C_17
REMARK                            x       y       z     vdW  Elec       q    Type
REMARK                         _______ _______ _______ _____ _____    ______ ____
ROOT
ATOM      1  C   UNL     1      -2.405  -0.472   0.235  0.00  0.00    +0.100 C 
ATOM      2  C   UNL     1      -2.654  -1.984   0.266  0.00  0.00    +0.182 C 
ATOM      3  O   UNL     1      -3.957  -2.235   0.800  0.00  0.00    -0.373 OA
ATOM      4  C   UNL     1      -4.130  -1.799   2.150  0.00  0.00    +0.132 C 
ATOM      5  C   UNL     1      -3.956  -0.277   2.216  0.00  0.00    +0.138 C 
ATOM      6  N   UNL     1      -2.678   0.072   1.575  0.00  0.00    -0.306 N 
ATOM      7  C   UNL     1      -1.760   0.887   2.213  0.00  0.00    +0.151 A 
ATOM      8  C   UNL     1      -1.707   2.258   1.916  0.00  0.00    +0.141 A 
ATOM      9  N   UNL     1      -0.822   3.032   2.535  0.00  0.00    -0.247 NA
ATOM     10  C   UNL     1       0.001   2.512   3.424  0.00  0.00    +0.131 A 
ATOM     11  C   UNL     1      -0.051   1.158   3.718  0.00  0.00    +0.132 A 
ATOM     12  N   UNL     1      -0.929   0.378   3.115  0.00  0.00    -0.237 NA
ATOM     13  C   UNL     1      -5.533  -2.175   2.632  0.00  0.00    +0.039 C 
ENDROOT
BRANCH   8  14
ATOM     14  C   UNL     1      -2.631   2.838   0.918  0.00  0.00    +0.116 C 
ATOM     15  N   UNL     1      -3.884   2.394   0.833  0.00  0.00    -0.385 N 
ATOM     16  N   UNL     1      -2.211   3.804   0.103  0.00  0.00    -0.343 N 
ATOM     17  H   UNL     1      -4.226   1.776   1.498  0.00  0.00    +0.157 HD
ATOM     18  H   UNL     1      -1.298   4.128   0.165  0.00  0.00    +0.144 HD
ATOM     19  H   UNL     1      -2.817   4.185  -0.552  0.00  0.00    +0.144 HD
ATOM     20  H   UNL     1      -4.455   2.689   0.107  0.00  0.00    +0.157 HD
ENDBRANCH   8  14
BRANCH   1  22
ATOM     21  C   UNL     1      -0.689  -0.699  -1.567  0.00  0.00    +0.006 C 
ATOM     22  C   UNL     1      -0.948  -0.198  -0.145  0.00  0.00    +0.021 C 
ENDBRANCH   1  22
TORSDOF 2
