REMARK  Name = ZINC50461663
REMARK  4 active torsions:
REMARK  status: ('A' for Active; 'I' for Inactive)
REMARK    1  A    between atoms: C_5  and  C_7
REMARK    2  A    between atoms: C_7  and  N_8
REMARK    3  A    between atoms: C_9  and  C_11
REMARK    4  A    between atoms: C_14  and  N_16
REMARK                            x       y       z     vdW  Elec       q    Type
REMARK                         _______ _______ _______ _____ _____    ______ ____
ROOT
ATOM      1  N   UNL     1      -1.258  -2.029   0.545  0.00  0.00    -0.315 N 
ATOM      2  C   UNL     1      -2.273  -2.746   1.067  0.00  0.00    +0.214 C 
ATOM      3  O   UNL     1      -3.179  -2.184   1.643  0.00  0.00    -0.276 OA
ATOM      4  H   UNL     1      -0.533  -2.478   0.084  0.00  0.00    +0.149 HD
ENDROOT
BRANCH   2   5
ATOM      5  C   UNL     1      -2.281  -4.247   0.933  0.00  0.00    +0.059 C 
ATOM      6  C   UNL     1      -2.079  -5.071   2.207  0.00  0.00    -0.005 C 
ATOM      7  C   UNL     1      -3.459  -5.005   1.548  0.00  0.00    -0.063 C 
BRANCH   7   8
ATOM      8  N   UNL     1      -3.934  -6.205   0.847  0.00  0.00    +0.380 N 
ATOM      9  H   UNL     1      -3.185  -6.879   0.788  0.00  0.00    -0.090 HD
ATOM     10  H   UNL     1      -4.709  -6.606   1.354  0.00  0.00    -0.090 HD
ATOM     11  H   UNL     1      -4.234  -5.955  -0.083  0.00  0.00    -0.090 HD
ENDBRANCH   7   8
ENDBRANCH   2   5
BRANCH   1  12
ATOM     12  C   UNL     1      -1.250  -0.569   0.675  0.00  0.00    +0.110 C 
BRANCH  12  17
ATOM     13  C   UNL     1      -0.019   1.549   0.011  0.00  0.00    +0.035 C 
ATOM     14  C   UNL     1       1.498   1.864  -0.002  0.00  0.00    +0.160 C 
ATOM     15  O   UNL     1       2.100   0.843   0.810  0.00  0.00    -0.379 OA
ATOM     16  C   UNL     1       1.263  -0.319   0.835  0.00  0.00    +0.165 C 
ATOM     17  C   UNL     1       0.002  -0.004   0.002  0.00  0.00    +0.034 C 
ENDBRANCH  12  17
ENDBRANCH   1  12
TORSDOF 4
