REMARK  Name = ZINC31959947
REMARK  11 active torsions:
REMARK  status: ('A' for Active; 'I' for Inactive)
REMARK    1  A    between atoms: C_1  and  C_2
REMARK    2  A    between atoms: C_2  and  O_3
REMARK    3  A    between atoms: O_3  and  C_4
REMARK    4  A    between atoms: C_4  and  C_6
REMARK    5  A    between atoms: C_10  and  N_11
REMARK    6  A    between atoms: C_12  and  C_14
REMARK    7  A    between atoms: C_14  and  N_15
REMARK    8  A    between atoms: C_17  and  C_21
REMARK    9  A    between atoms: C_21  and  C_22
REMARK   10  A    between atoms: C_21  and  C_23
REMARK   11  A    between atoms: C_21  and  C_24
REMARK                            x       y       z     vdW  Elec       q    Type
REMARK                         _______ _______ _______ _____ _____    ______ ____
ROOT
ATOM      1  C   UNL     1       1.232   3.540   0.009  0.00  0.00    +0.091 A 
ATOM      2  C   UNL     1       1.250   4.300  -1.229  0.00  0.00    -0.021 A 
ATOM      3  C   UNL     1       1.303   5.641  -1.081  0.00  0.00    -0.004 A 
ATOM      4  S   UNL     1       1.329   5.902   0.670  0.00  0.00    -0.077 S 
ATOM      5  C   UNL     1       1.266   4.253   1.200  0.00  0.00    +0.086 A 
ATOM      6  C   UNL     1       1.331   6.670  -2.168  0.00  0.00    +0.046 C 
ATOM      7  C   UNL     1       0.914   5.995  -3.483  0.00  0.00    -0.000 C 
ATOM      8  C   UNL     1       1.700   4.690  -3.639  0.00  0.00    +0.009 C 
ATOM      9  C   UNL     1       1.213   3.665  -2.614  0.00  0.00    +0.037 C 
ENDROOT
BRANCH   5  10
ATOM     10  N   UNL     1       1.253   3.765   2.497  0.00  0.00    -0.281 N 
ATOM     11  C   UNL     1       1.292   4.620   3.539  0.00  0.00    +0.200 C 
ATOM     12  O   UNL     1       1.337   5.816   3.341  0.00  0.00    -0.278 OA
ATOM     13  H   UNL     1       1.212   2.681   2.677  0.00  0.00    +0.155 HD
BRANCH  11  14
ATOM     14  C   UNL     1       1.278   4.089   4.949  0.00  0.00    +0.011 C 
BRANCH  14  15
ATOM     15  N   UNL     1       1.326   5.212   5.896  0.00  0.00    +0.384 N 
ATOM     16  H   UNL     1       1.316   4.825   6.925  0.00  0.00    -0.089 HD
ATOM     17  H   UNL     1       0.451   5.861   5.739  0.00  0.00    -0.089 HD
ATOM     18  H   UNL     1       2.246   5.792   5.731  0.00  0.00    -0.089 HD
ENDBRANCH  14  15
ENDBRANCH  11  14
ENDBRANCH   5  10
BRANCH   7  19
ATOM     19  C   UNL     1       1.226   6.925  -4.658  0.00  0.00    -0.035 C 
ATOM     20  C   UNL     1       0.825   6.244  -5.968  0.00  0.00    +0.011 C 
ATOM     21  C   UNL     1       0.439   8.228  -4.500  0.00  0.00    +0.011 C 
ATOM     22  C   UNL     1       2.724   7.233  -4.681  0.00  0.00    +0.011 C 
ENDBRANCH   7  19
BRANCH   1  23
ATOM     23  C   UNL     1       1.176   2.076   0.002  0.00  0.00    +0.342 C 
ATOM     24  O   UNL     1       2.205   1.428  -0.011  0.00  0.00    -0.245 OA
BRANCH  23  25
ATOM     25  O   UNL     1      -0.018   1.448   0.010  0.00  0.00    -0.461 OA
BRANCH  25  27
ATOM     26  C   UNL     1      -1.433  -0.534   0.013  0.00  0.00    +0.048 C 
ATOM     27  C   UNL     1       0.002  -0.004   0.002  0.00  0.00    +0.229 C 
ENDBRANCH  25  27
ENDBRANCH  23  25
ENDBRANCH   1  23
TORSDOF 7
