REMARK  Name = ZINC61440959
REMARK  10 active torsions:
REMARK  status: ('A' for Active; 'I' for Inactive)
REMARK    1  A    between atoms: C_1  and  C_2
REMARK    2  A    between atoms: C_9  and  S_11
REMARK    3  A    between atoms: S_11  and  C_12
REMARK    4  A    between atoms: C_12  and  C_13
REMARK    5  A    between atoms: C_13  and  C_14
REMARK    6  A    between atoms: C_14  and  C_15
REMARK    7  A    between atoms: C_15  and  C_16
REMARK    8  A    between atoms: C_16  and  C_17
REMARK    9  A    between atoms: C_16  and  C_18
REMARK   10  A    between atoms: C_16  and  N_21
REMARK                            x       y       z     vdW  Elec       q    Type
REMARK                         _______ _______ _______ _____ _____    ______ ____
ROOT
ATOM      1  C   UNL     1       0.129  -8.447   1.634  0.00  0.00    +0.011 C 
ENDROOT
BRANCH   1   2
ATOM      2  C   UNL     1       0.105  -7.035   1.047  0.00  0.00    +0.077 C 
BRANCH   2   3
ATOM      3  S   UNL     1       0.096  -5.820   2.394  0.00  0.00    -0.088 S 
BRANCH   3  12
ATOM      4  C   UNL     1      -0.018   1.503   0.010  0.00  0.00    +0.044 C 
ATOM      5  C   UNL     1       0.002  -0.004   0.002  0.00  0.00    -0.048 A 
ATOM      6  C   UNL     1       0.006  -0.686  -1.206  0.00  0.00    +0.005 A 
ATOM      7  C   UNL     1       0.024  -2.063  -1.230  0.00  0.00    +0.030 A 
ATOM      8  C   UNL     1       0.040  -2.778  -0.030  0.00  0.00    +0.090 A 
ATOM      9  C   UNL     1       0.037  -2.082   1.190  0.00  0.00    +0.067 A 
ATOM     10  C   UNL     1       0.023  -0.696   1.196  0.00  0.00    +0.031 A 
ATOM     11  N   UNL     1       0.055  -3.047   2.184  0.00  0.00    -0.333 N 
ATOM     12  C   UNL     1       0.069  -4.265   1.566  0.00  0.00    +0.167 A 
ATOM     13  N   UNL     1       0.060  -4.104   0.266  0.00  0.00    -0.222 NA
ATOM     14  H   UNL     1       0.058  -2.887   3.141  0.00  0.00    +0.168 HD
ENDBRANCH   3  12
ENDBRANCH   2   3
ENDBRANCH   1   2
BRANCH   1  15
ATOM     15  C   UNL     1       0.137  -9.472   0.497  0.00  0.00    -0.000 C 
BRANCH  15  16
ATOM     16  C   UNL     1       0.160 -10.885   1.084  0.00  0.00    -0.004 C 
BRANCH  16  17
ATOM     17  C   UNL     1       0.168 -11.909  -0.052  0.00  0.00    +0.004 C 
ATOM     18  C   UNL     1       1.469 -11.779  -0.847  0.00  0.00    -0.001 C 
BRANCH  17  19
ATOM     19  C   UNL     1       0.067 -13.298   0.523  0.00  0.00    +0.199 C 
ATOM     20  O   UNL     1       0.442 -13.514   1.656  0.00  0.00    -0.278 OA
ATOM     21  N   UNL     1      -0.439 -14.301  -0.222  0.00  0.00    -0.330 N 
ATOM     22  H   UNL     1      -0.739 -14.128  -1.129  0.00  0.00    +0.145 HD
ATOM     23  H   UNL     1      -0.504 -15.195   0.148  0.00  0.00    +0.145 HD
ENDBRANCH  17  19
BRANCH  17  24
ATOM     24  N   UNL     1      -0.975 -11.663  -0.942  0.00  0.00    +0.387 N 
ATOM     25  H   UNL     1      -0.908 -10.733  -1.327  0.00  0.00    -0.089 HD
ATOM     26  H   UNL     1      -0.970 -12.338  -1.691  0.00  0.00    -0.089 HD
ATOM     27  H   UNL     1      -1.833 -11.748  -0.417  0.00  0.00    -0.089 HD
ENDBRANCH  17  24
ENDBRANCH  16  17
ENDBRANCH  15  16
ENDBRANCH   1  15
TORSDOF 8
