REMARK  Name = ZINC39665938
REMARK  8 active torsions:
REMARK  status: ('A' for Active; 'I' for Inactive)
REMARK    1  A    between atoms: C_1  and  C_2
REMARK    2  A    between atoms: C_5  and  O_8
REMARK    3  A    between atoms: O_8  and  C_9
REMARK    4  A    between atoms: C_9  and  C_11
REMARK    5  A    between atoms: C_9  and  C_12
REMARK    6  A    between atoms: C_12  and  N_13
REMARK    7  A    between atoms: C_14  and  C_16
REMARK    8  A    between atoms: C_27  and  C_29
REMARK                            x       y       z     vdW  Elec       q    Type
REMARK                         _______ _______ _______ _____ _____    ______ ____
ROOT
ATOM      1  C   UNL     1       4.756  -6.780  -0.060  0.00  0.00    +0.100 C 
ATOM      2  C   UNL     1       5.589  -6.113   1.058  0.00  0.00    +0.121 C 
ATOM      3  N   UNL     1       6.218  -7.243   1.781  0.00  0.00    -0.296 N 
ATOM      4  C   UNL     1       6.595  -8.201   0.714  0.00  0.00    +0.115 C 
ATOM      5  C   UNL     1       5.422  -8.149  -0.285  0.00  0.00    -0.004 C 
ATOM      6  C   UNL     1       5.941  -8.255  -1.715  0.00  0.00    -0.010 C 
ATOM      7  C   UNL     1       6.546  -9.645  -1.932  0.00  0.00    -0.082 C 
ATOM      8  N   UNL     1       5.524 -10.669  -1.684  0.00  0.00    +0.379 N 
ATOM      9  C   UNL     1       5.097 -10.621  -0.280  0.00  0.00    -0.082 C 
ATOM     10  C   UNL     1       4.431  -9.272   0.006  0.00  0.00    -0.010 C 
ATOM     11  C   UNL     1       6.405  -7.371   3.110  0.00  0.00    +0.249 C 
ATOM     12  O   UNL     1       6.942  -8.367   3.555  0.00  0.00    -0.270 OA
ATOM     13  H   UNL     1       4.729 -10.501  -2.282  0.00  0.00    -0.086 HD
ATOM     14  H   UNL     1       5.907 -11.581  -1.886  0.00  0.00    -0.086 HD
ENDROOT
BRANCH  11  15
ATOM     15  C   UNL     1       5.959  -6.301   4.025  0.00  0.00    +0.073 A 
ATOM     16  C   UNL     1       4.670  -6.332   4.565  0.00  0.00    +0.054 A 
ATOM     17  C   UNL     1       4.260  -5.328   5.421  0.00  0.00    +0.021 A 
ATOM     18  C   UNL     1       5.121  -4.295   5.743  0.00  0.00    +0.003 A 
ATOM     19  C   UNL     1       6.398  -4.257   5.212  0.00  0.00    +0.021 A 
ATOM     20  C   UNL     1       6.824  -5.257   4.360  0.00  0.00    +0.054 A 
ATOM     21 CL   UNL     1       8.430  -5.212   3.701  0.00  0.00    -0.083 Cl
ATOM     22 CL   UNL     1       3.588  -7.628   4.162  0.00  0.00    -0.083 Cl
ENDBRANCH  11  15
BRANCH   1  24
ATOM     23  N   UNL     1       2.341  -7.033  -0.529  0.00  0.00    -0.312 N 
ATOM     24  C   UNL     1       3.328  -6.959   0.386  0.00  0.00    +0.218 C 
ATOM     25  O   UNL     1       3.066  -7.035   1.568  0.00  0.00    -0.275 OA
ATOM     26  H   UNL     1       2.550  -6.972  -1.474  0.00  0.00    +0.149 HD
BRANCH  23  27
ATOM     27  C   UNL     1       0.952  -7.206  -0.096  0.00  0.00    +0.148 C 
BRANCH  27  28
ATOM     28  C   UNL     1       0.038  -7.260  -1.322  0.00  0.00    +0.187 C 
ATOM     29  C   UNL     1      -1.422  -7.316  -0.868  0.00  0.00    +0.053 C 
BRANCH  28  30
ATOM     30  O   UNL     1       0.342  -8.425  -2.091  0.00  0.00    -0.488 OA
BRANCH  30  35
ATOM     31  C   UNL     1      -0.906  -8.260  -7.581  0.00  0.00    +0.044 C 
ATOM     32  C   UNL     1      -0.572  -8.304  -6.112  0.00  0.00    -0.050 A 
ATOM     33  C   UNL     1      -0.939  -7.256  -5.289  0.00  0.00    +0.007 A 
ATOM     34  C   UNL     1      -0.634  -7.294  -3.943  0.00  0.00    +0.046 A 
ATOM     35  C   UNL     1       0.041  -8.386  -3.416  0.00  0.00    +0.121 A 
ATOM     36  C   UNL     1       0.407  -9.437  -4.244  0.00  0.00    +0.046 A 
ATOM     37  C   UNL     1       0.095  -9.396  -5.589  0.00  0.00    +0.007 A 
ENDBRANCH  30  35
ENDBRANCH  28  30
ENDBRANCH  27  28
ENDBRANCH  23  27
ENDBRANCH   1  24
TORSDOF 6
