REMARK  Name = ZINC39639370
REMARK  8 active torsions:
REMARK  status: ('A' for Active; 'I' for Inactive)
REMARK    1  A    between atoms: C_1  and  C_2
REMARK    2  A    between atoms: C_5  and  C_8
REMARK    3  A    between atoms: C_8  and  C_10
REMARK    4  A    between atoms: C_8  and  N_11
REMARK    5  A    between atoms: C_12  and  C_14
REMARK    6  A    between atoms: C_25  and  C_27
REMARK    7  A    between atoms: C_32  and  S_33
REMARK    8  A    between atoms: S_33  and  C_34
REMARK                            x       y       z     vdW  Elec       q    Type
REMARK                         _______ _______ _______ _____ _____    ______ ____
ROOT
ATOM      1  C   UNL     1       2.458  -6.463   2.001  0.00  0.00    +0.100 C 
ATOM      2  C   UNL     1       1.733  -6.498   3.365  0.00  0.00    +0.121 C 
ATOM      3  N   UNL     1       1.236  -7.888   3.490  0.00  0.00    -0.296 N 
ATOM      4  C   UNL     1       2.330  -8.722   2.938  0.00  0.00    +0.115 C 
ATOM      5  C   UNL     1       2.851  -7.924   1.726  0.00  0.00    -0.004 C 
ATOM      6  C   UNL     1       4.368  -8.052   1.622  0.00  0.00    -0.010 C 
ATOM      7  C   UNL     1       4.732  -9.502   1.290  0.00  0.00    -0.082 C 
ATOM      8  N   UNL     1       4.100  -9.890   0.023  0.00  0.00    +0.379 N 
ATOM      9  C   UNL     1       2.639  -9.853   0.160  0.00  0.00    -0.082 C 
ATOM     10  C   UNL     1       2.187  -8.418   0.444  0.00  0.00    -0.010 C 
ATOM     11  C   UNL     1       0.055  -8.302   3.992  0.00  0.00    +0.249 C 
ATOM     12  O   UNL     1      -0.785  -7.486   4.321  0.00  0.00    -0.270 OA
ATOM     13  H   UNL     1       4.384  -9.249  -0.703  0.00  0.00    -0.086 HD
ATOM     14  H   UNL     1       4.390 -10.824  -0.225  0.00  0.00    -0.086 HD
ENDROOT
BRANCH  11  15
ATOM     15  C   UNL     1      -0.217  -9.742   4.143  0.00  0.00    +0.069 A 
ATOM     16  C   UNL     1       0.808 -10.630   4.489  0.00  0.00    +0.017 A 
ATOM     17  C   UNL     1       0.500 -11.972   4.619  0.00  0.00    +0.020 A 
ATOM     18  C   UNL     1      -0.799 -12.397   4.405  0.00  0.00    +0.112 A 
ATOM     19  N   UNL     1      -1.752 -11.546   4.080  0.00  0.00    -0.248 NA
ATOM     20  C   UNL     1      -1.514 -10.250   3.948  0.00  0.00    +0.114 A 
BRANCH  20  21
ATOM     21  S   UNL     1      -2.827  -9.157   3.518  0.00  0.00    -0.069 S 
BRANCH  21  22
ATOM     22  C   UNL     1      -4.198 -10.227   3.235  0.00  0.00    +0.014 A 
ATOM     23  C   UNL     1      -5.109 -10.477   4.254  0.00  0.00    +0.015 A 
ATOM     24  C   UNL     1      -6.182 -11.316   4.028  0.00  0.00    +0.001 A 
ATOM     25  C   UNL     1      -6.350 -11.909   2.790  0.00  0.00    +0.000 A 
ATOM     26  C   UNL     1      -5.445 -11.663   1.774  0.00  0.00    +0.001 A 
ATOM     27  C   UNL     1      -4.373 -10.820   1.990  0.00  0.00    +0.015 A 
ENDBRANCH  21  22
ENDBRANCH  20  21
ENDBRANCH  11  15
BRANCH   1  29
ATOM     28  N   UNL     1       2.025  -5.281  -0.128  0.00  0.00    -0.308 N 
ATOM     29  C   UNL     1       1.530  -5.959   0.926  0.00  0.00    +0.219 C 
ATOM     30  O   UNL     1       0.337  -6.162   1.010  0.00  0.00    -0.275 OA
ATOM     31  H   UNL     1       2.979  -5.118  -0.195  0.00  0.00    +0.149 HD
BRANCH  28  32
ATOM     32  C   UNL     1       1.122  -4.790  -1.173  0.00  0.00    +0.100 C 
ATOM     33  C   UNL     1       0.550  -3.434  -0.756  0.00  0.00    +0.033 C 
BRANCH  32  38
ATOM     34  C   UNL     1       4.043  -4.206  -6.125  0.00  0.00    +0.044 C 
ATOM     35  C   UNL     1       3.281  -4.358  -4.833  0.00  0.00    -0.050 A 
ATOM     36  C   UNL     1       1.994  -4.861  -4.845  0.00  0.00    +0.004 A 
ATOM     37  C   UNL     1       1.295  -5.001  -3.661  0.00  0.00    +0.006 A 
ATOM     38  C   UNL     1       1.884  -4.638  -2.464  0.00  0.00    -0.027 A 
ATOM     39  C   UNL     1       3.172  -4.137  -2.452  0.00  0.00    +0.006 A 
ATOM     40  C   UNL     1       3.872  -4.001  -3.636  0.00  0.00    +0.004 A 
ENDBRANCH  32  38
ENDBRANCH  28  32
ENDBRANCH   1  29
TORSDOF 6
