REMARK  Name = ZINC65216898
REMARK  6 active torsions:
REMARK  status: ('A' for Active; 'I' for Inactive)
REMARK    1  A    between atoms: C_1  and  C_2
REMARK    2  A    between atoms: C_4  and  C_14
REMARK    3  A    between atoms: C_11  and  C_13
REMARK    4  A    between atoms: C_14  and  N_15
REMARK    5  A    between atoms: C_16  and  C_18
REMARK    6  A    between atoms: C_18  and  C_19
REMARK                            x       y       z     vdW  Elec       q    Type
REMARK                         _______ _______ _______ _____ _____    ______ ____
ROOT
ATOM      1  N   UNL     1       2.142   0.128  -3.150  0.00  0.00    -0.313 N 
ATOM      2  C   UNL     1       2.760   0.982  -3.990  0.00  0.00    +0.217 C 
ATOM      3  O   UNL     1       2.652   2.179  -3.827  0.00  0.00    -0.275 OA
ATOM      4  H   UNL     1       2.229  -0.829  -3.280  0.00  0.00    +0.149 HD
ENDROOT
BRANCH   1   5
ATOM      5  C   UNL     1       1.338   0.646  -2.040  0.00  0.00    +0.129 C 
BRANCH   5   8
ATOM      6  C   UNL     1      -0.019   1.526   0.010  0.00  0.00    +0.026 C 
ATOM      7  C   UNL     1       0.002  -0.004   0.002  0.00  0.00    +0.077 C 
ATOM      8  C   UNL     1       0.751  -0.523  -1.247  0.00  0.00    +0.129 C 
ATOM      9  N   UNL     1       1.833  -1.379  -0.707  0.00  0.00    -0.222 N 
ATOM     10  C   UNL     1       2.127  -0.713   0.602  0.00  0.00    +0.225 C 
ATOM     11  N   UNL     1       0.775  -0.516   1.168  0.00  0.00    -0.284 NA
ATOM     12  S   UNL     1       3.013  -2.078   1.442  0.00  0.00    -0.069 S 
ATOM     13  C   UNL     1       3.222  -3.134   0.015  0.00  0.00    +0.092 C 
ATOM     14  N   UNL     1       2.557  -2.534  -0.916  0.00  0.00    -0.180 NA
ATOM     15  C   UNL     1       3.996  -4.423  -0.081  0.00  0.00    +0.075 C 
ATOM     16  H   UNL     1       0.790   0.160   1.917  0.00  0.00    +0.125 HD
ENDBRANCH   5   8
ENDBRANCH   1   5
BRANCH   2  17
ATOM     17  C   UNL     1       3.587   0.449  -5.132  0.00  0.00    +0.129 C 
BRANCH  17  18
ATOM     18  C   UNL     1       4.166   1.600  -5.913  0.00  0.00    -0.033 C 
ATOM     19  C   UNL     1       5.392   2.150  -5.763  0.00  0.00    -0.001 A 
ATOM     20  C   UNL     1       6.512   1.853  -4.861  0.00  0.00    +0.010 A 
ATOM     21  C   UNL     1       7.639   2.594  -4.949  0.00  0.00    +0.001 A 
ATOM     22  C   UNL     1       7.765   3.638  -5.876  0.00  0.00    +0.002 A 
ATOM     23  C   UNL     1       6.781   3.970  -6.737  0.00  0.00    +0.026 A 
ATOM     24  C   UNL     1       5.551   3.256  -6.734  0.00  0.00    +0.043 A 
ATOM     25  N   UNL     1       4.464   3.386  -7.455  0.00  0.00    -0.380 N 
ATOM     26  C   UNL     1       3.495   2.371  -7.028  0.00  0.00    +0.145 C 
ATOM     27  H   UNL     1       4.326   4.041  -8.158  0.00  0.00    +0.160 HD
ENDBRANCH  17  18
ENDBRANCH   2  17
TORSDOF 4
