REMARK  Name = ZINC43262339
REMARK  8 active torsions:
REMARK  status: ('A' for Active; 'I' for Inactive)
REMARK    1  A    between atoms: C_1  and  C_2
REMARK    2  A    between atoms: C_2  and  C_3
REMARK    3  A    between atoms: C_3  and  C_5
REMARK    4  A    between atoms: C_3  and  N_23
REMARK    5  A    between atoms: C_5  and  C_7
REMARK    6  A    between atoms: C_5  and  N_13
REMARK    7  A    between atoms: C_17  and  C_19
REMARK    8  A    between atoms: N_21  and  C_22
REMARK                            x       y       z     vdW  Elec       q    Type
REMARK                         _______ _______ _______ _____ _____    ______ ____
ROOT
ATOM      1  C   UNL     1       1.754  -1.545  -2.025  0.00  0.00    -0.013 C 
ENDROOT
BRANCH   1   2
ATOM      2  C   UNL     1       2.775  -2.388  -2.746  0.00  0.00    -0.021 A 
ATOM      3  C   UNL     1       2.760  -2.840  -4.024  0.00  0.00    +0.011 A 
ATOM      4  C   UNL     1       3.817  -3.607  -4.476  0.00  0.00    +0.023 A 
ATOM      5  C   UNL     1       4.838  -3.885  -3.628  0.00  0.00    +0.055 A 
ATOM      6  S   UNL     1       4.321  -3.044  -2.140  0.00  0.00    -0.088 S 
ATOM      7 BR   UNL     1       6.406  -4.894  -3.941  0.00  0.00    -0.043 Br
ENDBRANCH   1   2
BRANCH   1   8
ATOM      8  N   UNL     1       1.454  -2.150  -0.720  0.00  0.00    +0.393 N 
ATOM      9  C   UNL     1       1.067  -3.573  -0.892  0.00  0.00    -0.077 C 
ATOM     10  C   UNL     1       1.337  -4.185   0.505  0.00  0.00    -0.020 C 
ATOM     11  C   UNL     1       2.623  -3.457   0.959  0.00  0.00    -0.008 C 
ATOM     12  C   UNL     1       2.665  -2.161   0.128  0.00  0.00    +0.020 C 
ATOM     13  H   UNL     1       0.713  -1.639  -0.263  0.00  0.00    -0.080 HD
BRANCH  12  14
ATOM     14  C   UNL     1       2.662  -0.964   1.043  0.00  0.00    +0.199 C 
ATOM     15  O   UNL     1       1.622  -0.580   1.536  0.00  0.00    -0.278 OA
ATOM     16  N   UNL     1       3.814  -0.320   1.315  0.00  0.00    -0.320 N 
ATOM     17  C   UNL     1       3.811   0.844   2.205  0.00  0.00    +0.128 C 
ATOM     18  H   UNL     1       4.646  -0.627   0.921  0.00  0.00    +0.148 HD
ENDBRANCH  12  14
ENDBRANCH   1   8
BRANCH   1  19
ATOM     19  C   UNL     1       2.312  -0.136  -1.818  0.00  0.00    +0.042 C 
BRANCH  19  20
ATOM     20  N   UNL     1       2.755   0.410  -3.108  0.00  0.00    -0.328 NA
ATOM     21  H   UNL     1       1.989   0.458  -3.763  0.00  0.00    +0.118 HD
ATOM     22  H   UNL     1       3.186   1.314  -2.989  0.00  0.00    +0.118 HD
ENDBRANCH  19  20
BRANCH  19  24
ATOM     23  C   UNL     1       1.816   2.131  -0.890  0.00  0.00    +0.005 C 
ATOM     24  C   UNL     1       1.221   0.763  -1.232  0.00  0.00    +0.014 C 
ENDBRANCH  19  24
ENDBRANCH   1  19
TORSDOF 6
