REMARK  Name = ZINC00854408
REMARK  3 active torsions:
REMARK  status: ('A' for Active; 'I' for Inactive)
REMARK    1  A    between atoms: C_1  and  C_2
REMARK    2  A    between atoms: C_5  and  N_9
REMARK    3  A    between atoms: N_22  and  N_23
REMARK                            x       y       z     vdW  Elec       q    Type
REMARK                         _______ _______ _______ _____ _____    ______ ____
ROOT
ATOM      1  N   UNL     1       3.473   2.063  -0.020  0.00  0.00    -0.282 N 
ATOM      2  C   UNL     1       2.292   1.353  -0.117  0.00  0.00    +0.225 A 
ATOM      3  N   UNL     1       2.302   0.029  -0.002  0.00  0.00    -0.180 NA
ATOM      4  C   UNL     1       1.165  -0.655  -0.095  0.00  0.00    +0.235 A 
ATOM      5  N   UNL     1       0.019  -0.014  -0.303  0.00  0.00    -0.180 NA
ATOM      6  C   UNL     1       0.010   1.311  -0.418  0.00  0.00    +0.224 A 
ATOM      7  N   UNL     1       1.146   1.994  -0.325  0.00  0.00    -0.181 NA
ATOM      8  N   UNL     1      -1.179   1.976  -0.639  0.00  0.00    -0.295 N 
ATOM      9  C   UNL     1      -1.417   2.989   0.398  0.00  0.00    +0.136 C 
ATOM     10  C   UNL     1      -2.713   3.741   0.082  0.00  0.00    +0.179 C 
ATOM     11  O   UNL     1      -3.789   2.805  -0.018  0.00  0.00    -0.377 OA
ATOM     12  C   UNL     1      -3.591   1.804  -1.020  0.00  0.00    +0.179 C 
ATOM     13  C   UNL     1      -2.304   1.032  -0.714  0.00  0.00    +0.136 C 
ATOM     14  N   UNL     1       1.175  -2.030   0.024  0.00  0.00    -0.252 N 
ATOM     15  H   UNL     1       3.457   3.033  -0.014  0.00  0.00    +0.155 HD
ATOM     16  H   UNL     1       0.346  -2.528  -0.045  0.00  0.00    +0.169 HD
ENDROOT
BRANCH   1  21
ATOM     17  C   UNL     1       8.420  -0.691   0.348  0.00  0.00    +0.045 C 
ATOM     18  C   UNL     1       7.106   0.041   0.251  0.00  0.00    -0.031 A 
ATOM     19  C   UNL     1       6.960   1.279   0.848  0.00  0.00    +0.022 A 
ATOM     20  C   UNL     1       5.758   1.955   0.756  0.00  0.00    +0.039 A 
ATOM     21  C   UNL     1       4.692   1.384   0.071  0.00  0.00    +0.049 A 
ATOM     22  C   UNL     1       4.842   0.141  -0.528  0.00  0.00    +0.044 A 
ATOM     23  C   UNL     1       6.049  -0.528  -0.437  0.00  0.00    +0.046 A 
ATOM     24 CL   UNL     1       6.237  -2.083  -1.186  0.00  0.00    -0.083 Cl
ATOM     25 BR   UNL     1       5.562   3.651   1.568  0.00  0.00    -0.048 Br
ENDBRANCH   1  21
BRANCH  14  26
ATOM     26  N   UNL     1       2.353  -2.688   0.237  0.00  0.00    -0.254 NA
ATOM     27  H   UNL     1       2.819  -2.338   1.061  0.00  0.00    +0.140 HD
ATOM     28  H   UNL     1       2.204  -3.684   0.302  0.00  0.00    +0.140 HD
ENDBRANCH  14  26
TORSDOF 2
