REMARK  Name = ZINC51579479
REMARK  6 active torsions:
REMARK  status: ('A' for Active; 'I' for Inactive)
REMARK    1  A    between atoms: C_1  and  C_2
REMARK    2  A    between atoms: C_5  and  C_17
REMARK    3  A    between atoms: C_6  and  N_8
REMARK    4  A    between atoms: N_8  and  C_9
REMARK    5  A    between atoms: N_8  and  C_10
REMARK    6  A    between atoms: C_10  and  C_11
REMARK                            x       y       z     vdW  Elec       q    Type
REMARK                         _______ _______ _______ _____ _____    ______ ____
ROOT
ATOM      1  C   UNL     1       0.065   1.649  -0.026  0.00  0.00    +0.044 C 
ATOM      2  C   UNL     1       0.044   0.144   0.051  0.00  0.00    -0.049 A 
ATOM      3  C   UNL     1       0.025  -0.605  -1.115  0.00  0.00    +0.004 A 
ATOM      4  C   UNL     1       0.006  -1.981  -1.057  0.00  0.00    +0.013 A 
ATOM      5  C   UNL     1       0.005  -2.627   0.181  0.00  0.00    +0.033 A 
ATOM      6  C   UNL     1       0.024  -1.866   1.359  0.00  0.00    +0.040 A 
ATOM      7  C   UNL     1       0.049  -0.479   1.282  0.00  0.00    +0.027 A 
ENDROOT
BRANCH   5   8
ATOM      8  C   UNL     1      -0.015  -4.101   0.250  0.00  0.00    +0.096 C 
ATOM      9  N   UNL     1      -0.995  -4.782  -0.345  0.00  0.00    -0.387 N 
ATOM     10  N   UNL     1       0.946  -4.752   0.906  0.00  0.00    -0.345 N 
ATOM     11  H   UNL     1      -0.970  -5.752  -0.363  0.00  0.00    +0.157 HD
ATOM     12  H   UNL     1       1.623  -4.255   1.391  0.00  0.00    +0.144 HD
ATOM     13  H   UNL     1       0.968  -5.721   0.897  0.00  0.00    +0.144 HD
ATOM     14  H   UNL     1      -1.733  -4.308  -0.759  0.00  0.00    +0.157 HD
ENDBRANCH   5   8
BRANCH   6  15
ATOM     15  N   UNL     1       0.024  -2.496   2.598  0.00  0.00    -0.328 N 
ATOM     16  C   UNL     1      -1.240  -2.931   3.198  0.00  0.00    +0.129 C 
BRANCH  15  17
ATOM     17  C   UNL     1       1.287  -2.726   3.303  0.00  0.00    +0.140 C 
BRANCH  17  18
ATOM     18  C   UNL     1       1.525  -1.608   4.285  0.00  0.00    -0.022 A 
ATOM     19  C   UNL     1       2.212  -0.471   3.901  0.00  0.00    +0.028 A 
ATOM     20  C   UNL     1       2.409   0.516   4.810  0.00  0.00    +0.055 A 
ATOM     21  S   UNL     1       1.611  -0.153   6.260  0.00  0.00    -0.090 S 
ATOM     22  C   UNL     1       1.064  -1.700   5.556  0.00  0.00    +0.051 A 
ATOM     23 BR   UNL     1       3.298   2.171   4.597  0.00  0.00    -0.043 Br
ENDBRANCH  17  18
ENDBRANCH  15  17
ENDBRANCH   6  15
TORSDOF 4
