REMARK  Name = ZINC64376010
REMARK  11 active torsions:
REMARK  status: ('A' for Active; 'I' for Inactive)
REMARK    1  A    between atoms: C_1  and  C_2
REMARK    2  A    between atoms: C_4  and  C_26
REMARK    3  A    between atoms: C_5  and  C_25
REMARK    4  A    between atoms: C_6  and  S_9
REMARK    5  A    between atoms: C_7  and  C_8
REMARK    6  A    between atoms: S_9  and  N_12
REMARK    7  A    between atoms: N_12  and  N_13
REMARK    8  A    between atoms: N_16  and  C_17
REMARK    9  A    between atoms: C_17  and  C_18
REMARK   10  A    between atoms: C_18  and  C_19
REMARK   11  A    between atoms: C_19  and  N_20
REMARK                            x       y       z     vdW  Elec       q    Type
REMARK                         _______ _______ _______ _____ _____    ______ ____
ROOT
ATOM      1  N   UNL     1       1.309  -3.090   3.334  0.00  0.00    -0.107 NA
ATOM      2  H   UNL     1       1.561  -4.008   3.522  0.00  0.00    +0.172 HD
ENDROOT
BRANCH   1   3
ATOM      3  N   UNL     1       2.244  -2.059   3.496  0.00  0.00    -0.216 N 
ATOM      4  C   UNL     1       2.874  -1.901   4.677  0.00  0.00    +0.315 C 
ATOM      5  O   UNL     1       3.685  -1.006   4.818  0.00  0.00    -0.251 OA
ATOM      6  N   UNL     1       2.604  -2.734   5.702  0.00  0.00    -0.298 N 
ATOM      7  H   UNL     1       2.438  -1.460   2.759  0.00  0.00    +0.172 HD
ATOM      8  H   UNL     1       1.957  -3.447   5.590  0.00  0.00    +0.150 HD
BRANCH   6   9
ATOM      9  C   UNL     1       3.289  -2.562   6.985  0.00  0.00    +0.107 C 
BRANCH   9  10
ATOM     10  C   UNL     1       2.805  -3.629   7.969  0.00  0.00    +0.040 C 
BRANCH  10  11
ATOM     11  C   UNL     1       3.521  -3.449   9.309  0.00  0.00    +0.124 C 
BRANCH  11  12
ATOM     12  N   UNL     1       3.057  -4.471  10.251  0.00  0.00    -0.338 N 
ATOM     13  C   UNL     1       1.994  -4.365  11.107  0.00  0.00    +0.104 A 
ATOM     14  C   UNL     1       1.922  -5.526  11.785  0.00  0.00    +0.101 A 
ATOM     15  N   UNL     1       2.915  -6.320  11.356  0.00  0.00    -0.352 N 
ATOM     16  C   UNL     1       3.595  -5.696  10.433  0.00  0.00    +0.173 A 
ATOM     17  H   UNL     1       3.096  -7.217  11.677  0.00  0.00    +0.166 HD
ENDBRANCH  11  12
ENDBRANCH  10  11
ENDBRANCH   9  10
ENDBRANCH   6   9
ENDBRANCH   1   3
BRANCH   1  18
ATOM     18  S   UNL     1      -0.227  -2.741   2.821  0.00  0.00    +0.074 S 
ATOM     19  O   UNL     1      -0.735  -1.750   3.703  0.00  0.00    -0.152 OA
ATOM     20  O   UNL     1      -0.879  -3.987   2.618  0.00  0.00    -0.152 OA
BRANCH  18  26
ATOM     21  C   UNL     1       0.407  -3.016  -2.360  0.00  0.00    +0.044 C 
ATOM     22  C   UNL     1       0.207  -2.166  -1.132  0.00  0.00    -0.045 A 
ATOM     23  C   UNL     1       0.134  -0.790  -1.248  0.00  0.00    +0.007 A 
ATOM     24  C   UNL     1      -0.050  -0.011  -0.121  0.00  0.00    -0.045 A 
ATOM     25  C   UNL     1      -0.160  -0.607   1.121  0.00  0.00    -0.021 A 
ATOM     26  C   UNL     1      -0.087  -1.982   1.237  0.00  0.00    +0.113 A 
ATOM     27  C   UNL     1       0.092  -2.762   0.110  0.00  0.00    -0.021 A 
ATOM     28  C   UNL     1       0.167  -4.262   0.236  0.00  0.00    +0.046 C 
ATOM     29  C   UNL     1      -0.359   0.243   2.350  0.00  0.00    +0.046 C 
ATOM     30  C   UNL     1      -0.130   1.489  -0.247  0.00  0.00    +0.044 C 
ENDBRANCH  18  26
ENDBRANCH   1  18
TORSDOF 7
