REMARK  Name = ZINC40376891
REMARK  8 active torsions:
REMARK  status: ('A' for Active; 'I' for Inactive)
REMARK    1  A    between atoms: C_1  and  C_2
REMARK    2  A    between atoms: C_2  and  C_3
REMARK    3  A    between atoms: C_3  and  C_4
REMARK    4  A    between atoms: C_4  and  C_6
REMARK    5  A    between atoms: C_4  and  N_10
REMARK    6  A    between atoms: N_7  and  O_8
REMARK    7  A    between atoms: N_10  and  S_11
REMARK    8  A    between atoms: S_11  and  C_14
REMARK                            x       y       z     vdW  Elec       q    Type
REMARK                         _______ _______ _______ _____ _____    ______ ____
ROOT
ATOM      1  N   UNL     1       1.495  -2.600   0.190  0.00  0.00    -0.180 NA
ATOM      2  H   UNL     1       2.320  -2.177  -0.096  0.00  0.00    +0.149 HD
ENDROOT
BRANCH   1   3
ATOM      3  S   UNL     1       0.923  -3.928  -0.616  0.00  0.00    +0.059 S 
ATOM      4  O   UNL     1       1.843  -4.194  -1.666  0.00  0.00    -0.153 OA
ATOM      5  O   UNL     1       0.596  -4.895   0.373  0.00  0.00    -0.153 OA
BRANCH   3   6
ATOM      6  C   UNL     1      -0.593  -3.460  -1.382  0.00  0.00    +0.106 A 
ATOM      7  C   UNL     1      -1.779  -3.543  -0.676  0.00  0.00    +0.028 A 
ATOM      8  C   UNL     1      -2.969  -3.176  -1.277  0.00  0.00    +0.003 A 
ATOM      9  C   UNL     1      -2.974  -2.726  -2.584  0.00  0.00    +0.015 A 
ATOM     10  C   UNL     1      -1.788  -2.642  -3.290  0.00  0.00    +0.020 A 
ATOM     11  C   UNL     1      -0.596  -3.005  -2.687  0.00  0.00    +0.043 A 
ATOM     12 BR   UNL     1      -1.794  -2.027  -5.079  0.00  0.00    -0.050 Br
ENDBRANCH   3   6
ENDBRANCH   1   3
BRANCH   1  13
ATOM     13  C   UNL     1       0.755  -2.063   1.335  0.00  0.00    +0.143 C 
BRANCH  13  14
ATOM     14  C   UNL     1       1.325  -2.627   2.611  0.00  0.00    +0.150 C 
ATOM     15  N   UNL     1       0.588  -2.703   3.669  0.00  0.00    -0.075 NA
ATOM     16  N   UNL     1       2.631  -3.061   2.648  0.00  0.00    -0.343 N 
ATOM     17  H   UNL     1       3.184  -3.004   1.853  0.00  0.00    +0.144 HD
ATOM     18  H   UNL     1       2.998  -3.424   3.470  0.00  0.00    +0.144 HD
BRANCH  15  19
ATOM     19  O   UNL     1       1.123  -3.233   4.868  0.00  0.00    -0.408 OA
ATOM     20  H   UNL     1       0.497  -3.249   5.605  0.00  0.00    +0.328 HD
ENDBRANCH  15  19
ENDBRANCH  13  14
BRANCH  13  21
ATOM     21  C   UNL     1       0.877  -0.538   1.351  0.00  0.00    +0.028 C 
BRANCH  21  23
ATOM     22  C   UNL     1       0.227   1.569   0.177  0.00  0.00    +0.004 C 
ATOM     23  C   UNL     1       0.214   0.041   0.100  0.00  0.00    -0.001 C 
ENDBRANCH  21  23
ENDBRANCH  13  21
ENDBRANCH   1  13
TORSDOF 7
