REMARK  Name = ZINC53118366
REMARK  8 active torsions:
REMARK  status: ('A' for Active; 'I' for Inactive)
REMARK    1  A    between atoms: C_1  and  C_2
REMARK    2  A    between atoms: C_5  and  C_8
REMARK    3  A    between atoms: C_5  and  N_10
REMARK    4  A    between atoms: C_8  and  O_9
REMARK    5  A    between atoms: N_10  and  C_11
REMARK    6  A    between atoms: C_11  and  C_12
REMARK    7  A    between atoms: C_12  and  C_14
REMARK    8  A    between atoms: C_12  and  O_21
REMARK                            x       y       z     vdW  Elec       q    Type
REMARK                         _______ _______ _______ _____ _____    ______ ____
ROOT
ATOM      1  N   UNL     1      -1.199  -2.191   2.442  0.00  0.00    +0.386 N 
ATOM      2  H   UNL     1      -0.561  -2.383   3.200  0.00  0.00    -0.085 HD
ATOM      3  H   UNL     1      -1.431  -1.209   2.438  0.00  0.00    -0.085 HD
ENDROOT
BRANCH   1   8
ATOM      4  C   UNL     1      -0.656   1.604  -0.046  0.00  0.00    +0.007 C 
ATOM      5  C   UNL     1      -0.407   0.095  -0.086  0.00  0.00    -0.014 C 
ATOM      6  C   UNL     1      -1.739  -0.646   0.050  0.00  0.00    +0.002 C 
ATOM      7  C   UNL     1      -1.490  -2.155   0.011  0.00  0.00    -0.010 C 
ATOM      8  C   UNL     1      -0.567  -2.550   1.166  0.00  0.00    -0.045 C 
ATOM      9  C   UNL     1       0.765  -1.809   1.030  0.00  0.00    -0.010 C 
ATOM     10  C   UNL     1       0.516  -0.300   1.069  0.00  0.00    +0.002 C 
BRANCH   8  11
ATOM     11  C   UNL     1      -0.318  -4.059   1.127  0.00  0.00    +0.143 C 
BRANCH  11  12
ATOM     12  O   UNL     1       0.436  -4.447   2.276  0.00  0.00    -0.396 OA
ATOM     13  H   UNL     1       0.631  -5.393   2.318  0.00  0.00    +0.209 HD
ENDBRANCH  11  12
ENDBRANCH   8  11
ENDBRANCH   1   8
BRANCH   1  14
ATOM     14  C   UNL     1      -2.424  -2.982   2.622  0.00  0.00    -0.045 C 
BRANCH  14  15
ATOM     15  C   UNL     1      -3.150  -2.518   3.886  0.00  0.00    +0.128 C 
BRANCH  15  16
ATOM     16  C   UNL     1      -4.339  -3.409   4.138  0.00  0.00    -0.020 A 
ATOM     17  C   UNL     1      -5.510  -3.215   3.429  0.00  0.00    +0.006 A 
ATOM     18  C   UNL     1      -6.601  -4.032   3.660  0.00  0.00    +0.001 A 
ATOM     19  C   UNL     1      -6.522  -5.043   4.600  0.00  0.00    +0.015 A 
ATOM     20  C   UNL     1      -5.350  -5.237   5.309  0.00  0.00    +0.018 A 
ATOM     21  C   UNL     1      -4.257  -4.422   5.074  0.00  0.00    +0.021 A 
ATOM     22 BR   UNL     1      -5.241  -6.619   6.595  0.00  0.00    -0.050 Br
ENDBRANCH  15  16
BRANCH  15  23
ATOM     23  O   UNL     1      -3.593  -1.170   3.713  0.00  0.00    -0.389 OA
ATOM     24  H   UNL     1      -4.203  -1.048   2.973  0.00  0.00    +0.210 HD
ENDBRANCH  15  23
ENDBRANCH  14  15
ENDBRANCH   1  14
TORSDOF 7
