REMARK  Name = ZINC00674337
REMARK  8 active torsions:
REMARK  status: ('A' for Active; 'I' for Inactive)
REMARK    1  A    between atoms: C_1  and  O_2
REMARK    2  A    between atoms: O_2  and  C_3
REMARK    3  A    between atoms: C_6  and  O_32
REMARK    4  A    between atoms: C_7  and  C_9
REMARK    5  A    between atoms: C_11  and  C_30
REMARK    6  A    between atoms: C_12  and  N_29
REMARK    7  A    between atoms: N_13  and  C_21
REMARK    8  A    between atoms: O_32  and  C_33
REMARK                            x       y       z     vdW  Elec       q    Type
REMARK                         _______ _______ _______ _____ _____    ______ ____
ROOT
ATOM      1  C   UNL     1      -2.738   2.344   2.501  0.00  0.00    +0.101 C 
ATOM      2  C   UNL     1      -4.228   2.170   2.471  0.00  0.00    +0.077 C 
ATOM      3  C   UNL     1      -4.887   1.959   1.303  0.00  0.00    +0.107 C 
ATOM      4  N   UNL     1      -4.188   1.891   0.119  0.00  0.00    -0.257 N 
ATOM      5  C   UNL     1      -2.842   1.634   0.119  0.00  0.00    +0.025 C 
ATOM      6  C   UNL     1      -2.104   1.833   1.232  0.00  0.00    +0.025 C 
ATOM      7  C   UNL     1      -0.721   1.573   1.243  0.00  0.00    +0.162 C 
ATOM      8  O   UNL     1      -0.086   1.745   2.265  0.00  0.00    -0.292 OA
ATOM      9  C   UNL     1      -0.013   1.086   0.008  0.00  0.00    +0.080 C 
ATOM     10  C   UNL     1      -0.758   1.595  -1.230  0.00  0.00    +0.014 C 
ATOM     11  C   UNL     1      -2.210   1.121  -1.151  0.00  0.00    +0.052 C 
ENDROOT
BRANCH   4  12
ATOM     12  C   UNL     1      -4.858   2.088  -1.096  0.00  0.00    +0.075 A 
ATOM     13  C   UNL     1      -5.411   1.006  -1.768  0.00  0.00    +0.028 A 
ATOM     14  C   UNL     1      -6.074   1.203  -2.963  0.00  0.00    +0.017 A 
ATOM     15  C   UNL     1      -6.181   2.475  -3.497  0.00  0.00    +0.021 A 
ATOM     16  C   UNL     1      -5.627   3.555  -2.833  0.00  0.00    +0.055 A 
ATOM     17  C   UNL     1      -4.965   3.366  -1.634  0.00  0.00    +0.146 A 
ATOM     18  F   UNL     1      -4.423   4.420  -0.986  0.00  0.00    -0.203 F 
ATOM     19 BR   UNL     1      -7.085   2.738  -5.137  0.00  0.00    -0.050 Br
ENDBRANCH   4  12
BRANCH   1  24
ATOM     20  C   UNL     1      -2.543   6.062   1.854  0.00  0.00    +0.121 A 
ATOM     21  C   UNL     1      -1.816   6.497   2.952  0.00  0.00    +0.049 A 
ATOM     22  C   UNL     1      -1.389   5.589   3.901  0.00  0.00    +0.049 A 
ATOM     23  C   UNL     1      -1.687   4.242   3.756  0.00  0.00    +0.124 A 
ATOM     24  C   UNL     1      -2.414   3.807   2.659  0.00  0.00    +0.010 A 
ATOM     25  C   UNL     1      -2.838   4.715   1.707  0.00  0.00    +0.053 A 
BRANCH  20  27
ATOM     26  C   UNL     1      -2.621   8.327   1.132  0.00  0.00    +0.277 C 
ATOM     27  O   UNL     1      -2.964   6.956   0.919  0.00  0.00    -0.495 OA
ENDBRANCH  20  27
BRANCH  23  28
ATOM     28  O   UNL     1      -1.266   3.349   4.691  0.00  0.00    -0.495 OA
ATOM     29  C   UNL     1      -0.522   3.866   5.795  0.00  0.00    +0.277 C 
ENDBRANCH  23  28
ENDBRANCH   1  24
BRANCH   3  30
ATOM     30  N   UNL     1      -6.253   1.812   1.302  0.00  0.00    -0.345 N 
ATOM     31  H   UNL     1      -6.725   1.661   0.468  0.00  0.00    +0.144 HD
ATOM     32  H   UNL     1      -6.747   1.859   2.136  0.00  0.00    +0.144 HD
ENDBRANCH   3  30
BRANCH   2  33
ATOM     33  C   UNL     1      -4.968   2.229   3.696  0.00  0.00    +0.099 C 
ATOM     34  N   UNL     1      -5.555   2.275   4.668  0.00  0.00    -0.191 NA
ENDBRANCH   2  33
TORSDOF 6
