REMARK  Name = ZINC02131865
REMARK  11 active torsions:
REMARK  status: ('A' for Active; 'I' for Inactive)
REMARK    1  A    between atoms: C_1  and  C_2
REMARK    2  A    between atoms: C_2  and  C_3
REMARK    3  A    between atoms: C_3  and  O_4
REMARK    4  A    between atoms: O_4  and  C_5
REMARK    5  A    between atoms: C_8  and  C_14
REMARK    6  A    between atoms: C_10  and  O_11
REMARK    7  A    between atoms: O_11  and  C_12
REMARK    8  A    between atoms: C_12  and  C_13
REMARK    9  A    between atoms: N_21  and  C_36
REMARK   10  A    between atoms: C_24  and  C_35
REMARK   11  A    between atoms: C_36  and  C_37
REMARK                            x       y       z     vdW  Elec       q    Type
REMARK                         _______ _______ _______ _____ _____    ______ ____
ROOT
ATOM      1  C   UNL     1       1.038   3.728   1.765  0.00  0.00    +0.069 C 
ATOM      2  C   UNL     1       1.479   3.491   0.316  0.00  0.00    +0.122 C 
ATOM      3  N   UNL     1       1.329   2.058   0.000  0.00  0.00    -0.280 N 
ATOM      4  C   UNL     1       2.418   1.331  -0.265  0.00  0.00    +0.234 C 
ATOM      5  O   UNL     1       3.473   1.915  -0.392  0.00  0.00    -0.274 OA
ATOM      6  C   UNL     1       2.419  -0.156  -0.414  0.00  0.00    +0.203 C 
ATOM      7  N   UNL     1       1.103  -0.730  -0.191  0.00  0.00    -0.288 N 
ATOM      8  C   UNL     1       0.002  -0.004   0.002  0.00  0.00    +0.245 C 
ATOM      9  O   UNL     1      -1.044  -0.590   0.182  0.00  0.00    -0.273 OA
ATOM     10  C   UNL     1      -0.018   1.489   0.010  0.00  0.00    +0.151 C 
ATOM     11  C   UNL     1      -0.738   2.001   1.235  0.00  0.00    +0.054 A 
ATOM     12  C   UNL     1      -0.260   3.001   2.010  0.00  0.00    -0.008 A 
ATOM     13  C   UNL     1      -1.221   3.207   3.074  0.00  0.00    +0.004 A 
ATOM     14  C   UNL     1      -1.260   4.091   4.157  0.00  0.00    +0.010 A 
ATOM     15  C   UNL     1      -2.352   4.008   4.985  0.00  0.00    +0.001 A 
ATOM     16  C   UNL     1      -3.372   3.096   4.771  0.00  0.00    +0.002 A 
ATOM     17  C   UNL     1      -3.357   2.208   3.708  0.00  0.00    +0.026 A 
ATOM     18  C   UNL     1      -2.261   2.269   2.850  0.00  0.00    +0.047 A 
ATOM     19  N   UNL     1      -1.934   1.558   1.731  0.00  0.00    -0.356 N 
ATOM     20  H   UNL     1      -2.469   0.846   1.346  0.00  0.00    +0.166 HD
ATOM     21  C   UNL     1      -0.772   1.980  -1.228  0.00  0.00    +0.048 C 
ENDROOT
BRANCH   1  25
ATOM     22  C   UNL     1       0.471   7.915   2.421  0.00  0.00    +0.162 A 
ATOM     23  C   UNL     1      -0.274   7.255   1.458  0.00  0.00    +0.050 A 
ATOM     24  C   UNL     1      -0.088   5.901   1.248  0.00  0.00    +0.008 A 
ATOM     25  C   UNL     1       0.840   5.203   1.998  0.00  0.00    -0.035 A 
ATOM     26  C   UNL     1       1.583   5.855   2.964  0.00  0.00    +0.053 A 
ATOM     27  C   UNL     1       1.406   7.213   3.175  0.00  0.00    +0.162 A 
BRANCH  22  28
ATOM     28  O   UNL     1       0.290   9.247   2.629  0.00  0.00    -0.488 OA
BRANCH  28  29
ATOM     29  C   UNL     1      -0.687   9.903   1.818  0.00  0.00    +0.229 C 
BRANCH  29  31
ATOM     30  C   UNL     1      -1.796  12.087   1.325  0.00  0.00    +0.007 C 
ATOM     31  C   UNL     1      -0.750  11.385   2.193  0.00  0.00    +0.038 C 
ENDBRANCH  29  31
ENDBRANCH  28  29
ENDBRANCH  22  28
BRANCH  27  32
ATOM     32  O   UNL     1       2.140   7.857   4.122  0.00  0.00    -0.489 OA
BRANCH  32  33
ATOM     33  C   UNL     1       3.081   7.072   4.858  0.00  0.00    +0.226 C 
ATOM     34  C   UNL     1       3.807   7.962   5.869  0.00  0.00    +0.048 C 
ENDBRANCH  32  33
ENDBRANCH  27  32
ENDBRANCH   1  25
BRANCH   7  35
ATOM     35  C   UNL     1       0.979  -2.190  -0.177  0.00  0.00    +0.140 C 
BRANCH  35  36
ATOM     36  C   UNL     1       0.692  -2.691  -1.594  0.00  0.00    +0.136 C 
ATOM     37  C   UNL     1       0.487  -4.227  -1.591  0.00  0.00    +0.035 C 
ATOM     38  C   UNL     1      -0.384  -4.411  -2.863  0.00  0.00    +0.031 C 
ATOM     39  C   UNL     1      -1.235  -3.123  -2.866  0.00  0.00    +0.160 C 
ATOM     40  O   UNL     1      -0.548  -2.148  -2.073  0.00  0.00    -0.375 OA
ENDBRANCH  35  36
ENDBRANCH   7  35
TORSDOF 8
