REMARK  Name = ZINC37011760
REMARK  7 active torsions:
REMARK  status: ('A' for Active; 'I' for Inactive)
REMARK    1  A    between atoms: C_1  and  C_2
REMARK    2  A    between atoms: C_2  and  C_4
REMARK    3  A    between atoms: C_2  and  S_11
REMARK    4  A    between atoms: N_9  and  C_10
REMARK    5  A    between atoms: S_11  and  C_12
REMARK    6  A    between atoms: C_15  and  C_19
REMARK    7  A    between atoms: C_17  and  N_18
REMARK                            x       y       z     vdW  Elec       q    Type
REMARK                         _______ _______ _______ _____ _____    ______ ____
ROOT
ATOM      1  C   UNL     1      -1.501  -2.384   0.138  0.00  0.00    +0.029 A 
ATOM      2  C   UNL     1      -0.232  -2.946   0.123  0.00  0.00    +0.017 A 
ATOM      3  C   UNL     1      -0.085  -4.320   0.104  0.00  0.00    +0.013 A 
ATOM      4  C   UNL     1      -1.199  -5.139   0.098  0.00  0.00    +0.057 A 
ATOM      5  C   UNL     1      -2.467  -4.588   0.112  0.00  0.00    +0.036 A 
ATOM      6  C   UNL     1      -2.625  -3.211   0.138  0.00  0.00    +0.039 A 
ENDROOT
BRANCH   4   7
ATOM      7  C   UNL     1      -1.031  -6.636   0.076  0.00  0.00    +0.417 C 
ATOM      8  F   UNL     1       0.332  -6.952   0.064  0.00  0.00    -0.166 F 
ATOM      9  F   UNL     1      -1.628  -7.189   1.213  0.00  0.00    -0.166 F 
ATOM     10  F   UNL     1      -1.640  -7.157  -1.071  0.00  0.00    -0.166 F 
ENDBRANCH   4   7
BRANCH   6  11
ATOM     11  N   UNL     1      -3.908  -2.651   0.159  0.00  0.00    -0.357 N 
ATOM     12  H   UNL     1      -4.016  -1.687   0.173  0.00  0.00    +0.142 HD
ATOM     13  H   UNL     1      -4.689  -3.227   0.159  0.00  0.00    +0.142 HD
ENDBRANCH   6  11
BRANCH   1  14
ATOM     14  S   UNL     1      -1.692  -0.633   0.164  0.00  0.00    -0.111 S 
BRANCH  14  16
ATOM     15  C   UNL     1       0.008   1.510   0.157  0.00  0.00    +0.029 C 
ATOM     16  C   UNL     1       0.003  -0.009   0.339  0.00  0.00    +0.134 C 
BRANCH  16  17
ATOM     17  C   UNL     1       0.525  -0.352   1.710  0.00  0.00    +0.233 C 
ATOM     18  O   UNL     1      -0.249  -0.619   2.605  0.00  0.00    -0.274 OA
ATOM     19  N   UNL     1       1.852  -0.363   1.943  0.00  0.00    -0.239 N 
ATOM     20  C   UNL     1       2.320  -0.671   3.169  0.00  0.00    +0.306 C 
ATOM     21  O   UNL     1       1.544  -0.938   4.066  0.00  0.00    -0.252 OA
ATOM     22  N   UNL     1       3.647  -0.682   3.401  0.00  0.00    -0.302 N 
ATOM     23  C   UNL     1       4.155  -1.016   4.734  0.00  0.00    +0.129 C 
ATOM     24  H   UNL     1       2.472  -0.150   1.227  0.00  0.00    +0.159 HD
ATOM     25  H   UNL     1       4.266  -0.468   2.686  0.00  0.00    +0.150 HD
ENDBRANCH  16  17
ENDBRANCH  14  16
ENDBRANCH   1  14
TORSDOF 5
