REMARK  Name = ZINC08738080
REMARK  9 active torsions:
REMARK  status: ('A' for Active; 'I' for Inactive)
REMARK    1  A    between atoms: C_1  and  C_2
REMARK    2  A    between atoms: C_6  and  N_8
REMARK    3  A    between atoms: C_11  and  C_17
REMARK    4  A    between atoms: C_12  and  O_16
REMARK    5  A    between atoms: C_14  and  O_15
REMARK    6  A    between atoms: C_21  and  O_29
REMARK    7  A    between atoms: C_22  and  O_27
REMARK    8  A    between atoms: O_27  and  C_28
REMARK    9  A    between atoms: O_29  and  C_30
REMARK                            x       y       z     vdW  Elec       q    Type
REMARK                         _______ _______ _______ _____ _____    ______ ____
ROOT
ATOM      1  N   UNL     1      -0.831  -2.841   3.128  0.00  0.00    -0.231 N 
ATOM      2  C   UNL     1      -1.446  -1.896   2.388  0.00  0.00    +0.267 A 
ATOM      3  O   UNL     1      -1.873  -0.878   2.909  0.00  0.00    -0.267 OA
ATOM      4  C   UNL     1      -1.587  -2.103   1.010  0.00  0.00    +0.069 A 
ATOM      5  C   UNL     1      -1.093  -3.273   0.460  0.00  0.00    +0.224 A 
ATOM      6  N   UNL     1      -0.488  -4.172   1.244  0.00  0.00    -0.161 NA
ATOM      7  C   UNL     1      -0.359  -3.972   2.537  0.00  0.00    +0.306 A 
ENDROOT
BRANCH   4   8
ATOM      8  C   UNL     1      -2.267  -1.075   0.143  0.00  0.00    +0.001 C 
ATOM      9  C   UNL     1      -1.450   0.190   0.137  0.00  0.00    -0.050 A 
ATOM     10  C   UNL     1      -0.070   0.082   0.035  0.00  0.00    +0.052 A 
ATOM     11  C   UNL     1       0.722   1.216   0.017  0.00  0.00    +0.162 A 
ATOM     12  C   UNL     1       0.130   2.472   0.102  0.00  0.00    +0.162 A 
ATOM     13  C   UNL     1      -1.246   2.575   0.205  0.00  0.00    +0.053 A 
ATOM     14  C   UNL     1      -2.036   1.435   0.226  0.00  0.00    -0.044 A 
ATOM     15  C   UNL     1      -3.529   1.599   0.351  0.00  0.00    +0.016 C 
ATOM     16  C   UNL     1      -4.233   0.305  -0.059  0.00  0.00    -0.077 C 
ATOM     17  N   UNL     1      -3.614  -0.818   0.671  0.00  0.00    +0.387 N 
ATOM     18  H   UNL     1      -3.550  -0.582   1.668  0.00  0.00    -0.085 HD
ATOM     19  H   UNL     1      -4.192  -1.659   0.554  0.00  0.00    -0.085 HD
BRANCH  12  20
ATOM     20  O   UNL     1       0.899   3.594   0.083  0.00  0.00    -0.491 OA
ATOM     21  C   UNL     1       0.221   4.848   0.174  0.00  0.00    +0.277 C 
ENDBRANCH  12  20
BRANCH  11  22
ATOM     22  O   UNL     1       2.074   1.103  -0.083  0.00  0.00    -0.491 OA
ATOM     23  C   UNL     1       2.610  -0.218  -0.166  0.00  0.00    +0.277 C 
ENDBRANCH  11  22
ENDBRANCH   4   8
BRANCH   1  29
ATOM     24  C   UNL     1      -2.567  -3.415   7.694  0.00  0.00    +0.044 C 
ATOM     25  C   UNL     1      -1.504  -2.926   6.744  0.00  0.00    -0.048 A 
ATOM     26  C   UNL     1      -0.376  -2.296   7.236  0.00  0.00    +0.003 A 
ATOM     27  C   UNL     1       0.602  -1.845   6.367  0.00  0.00    +0.002 A 
ATOM     28  C   UNL     1       0.454  -2.025   5.006  0.00  0.00    +0.026 A 
ATOM     29  C   UNL     1      -0.678  -2.658   4.509  0.00  0.00    +0.055 A 
ATOM     30  C   UNL     1      -1.660  -3.104   5.383  0.00  0.00    +0.029 A 
ENDBRANCH   1  29
BRANCH   7  31
ATOM     31  O   UNL     1       0.253  -4.907   3.292  0.00  0.00    -0.479 OA
ATOM     32  H   UNL     1       0.575  -5.697   2.837  0.00  0.00    +0.295 HD
ENDBRANCH   7  31
BRANCH   5  33
ATOM     33  O   UNL     1      -1.218  -3.506  -0.867  0.00  0.00    -0.492 OA
ATOM     34  H   UNL     1      -0.843  -4.349  -1.156  0.00  0.00    +0.294 HD
ENDBRANCH   5  33
TORSDOF 6
