REMARK  Name = ZINC38796717
REMARK  7 active torsions:
REMARK  status: ('A' for Active; 'I' for Inactive)
REMARK    1  A    between atoms: C_4  and  N_7
REMARK    2  A    between atoms: C_10  and  C_13
REMARK    3  A    between atoms: C_13  and  S_14
REMARK    4  A    between atoms: S_14  and  C_15
REMARK    5  A    between atoms: C_19  and  C_28
REMARK    6  A    between atoms: N_20  and  C_21
REMARK    7  A    between atoms: C_21  and  C_22
REMARK                            x       y       z     vdW  Elec       q    Type
REMARK                         _______ _______ _______ _____ _____    ______ ____
ROOT
ATOM      1  C   UNL     1       7.429  -6.339   2.310  0.00  0.00    +0.237 C 
ATOM      2  N   UNL     1       8.530  -5.669   1.598  0.00  0.00    -0.237 N 
ATOM      3  N   UNL     1       8.858  -6.489   0.512  0.00  0.00    -0.169 NA
ATOM      4  C   UNL     1       8.104  -7.556   0.478  0.00  0.00    +0.147 C 
ATOM      5  N   UNL     1       7.189  -7.570   1.538  0.00  0.00    -0.283 N 
ATOM      6  H   UNL     1       8.945  -4.825   1.834  0.00  0.00    +0.171 HD
ENDROOT
BRANCH   4   7
ATOM      7  C   UNL     1       8.200  -8.562  -0.496  0.00  0.00    +0.022 C 
ATOM      8  C   UNL     1       9.153  -8.667  -1.510  0.00  0.00    +0.006 A 
ATOM      9  C   UNL     1      10.255  -7.862  -1.869  0.00  0.00    +0.010 A 
ATOM     10  C   UNL     1      11.031  -8.214  -2.926  0.00  0.00    +0.001 A 
ATOM     11  C   UNL     1      10.766  -9.361  -3.677  0.00  0.00    +0.002 A 
ATOM     12  C   UNL     1       9.725 -10.180  -3.389  0.00  0.00    +0.026 A 
ATOM     13  C   UNL     1       8.870  -9.877  -2.298  0.00  0.00    +0.043 A 
ATOM     14  N   UNL     1       7.811 -10.501  -1.820  0.00  0.00    -0.380 N 
ATOM     15  C   UNL     1       7.295  -9.763  -0.663  0.00  0.00    +0.152 C 
ATOM     16  H   UNL     1       7.434 -11.321  -2.176  0.00  0.00    +0.160 HD
ENDBRANCH   4   7
BRANCH   1  17
ATOM     17  S   UNL     1       5.946  -5.294   2.313  0.00  0.00    -0.112 S 
BRANCH  17  18
ATOM     18  C   UNL     1       5.624  -4.984   0.555  0.00  0.00    +0.128 C 
BRANCH  18  22
ATOM     19  N   UNL     1       3.333  -0.662   0.227  0.00  0.00    -0.294 N 
ATOM     20  C   UNL     1       3.416  -2.046   0.267  0.00  0.00    +0.163 A 
ATOM     21  N   UNL     1       4.490  -2.797   0.391  0.00  0.00    -0.229 NA
ATOM     22  C   UNL     1       4.401  -4.115   0.414  0.00  0.00    +0.060 A 
ATOM     23  C   UNL     1       3.161  -4.651   0.304  0.00  0.00    +0.072 A 
ATOM     24  S   UNL     1       2.169  -3.172   0.177  0.00  0.00    -0.060 S 
ATOM     25  H   UNL     1       4.142  -0.128   0.209  0.00  0.00    +0.154 HD
BRANCH  19  29
ATOM     26  C   UNL     1      -0.392   1.200   0.184  0.00  0.00    +0.000 A 
ATOM     27  C   UNL     1      -0.213   0.030   0.901  0.00  0.00    +0.002 A 
ATOM     28  C   UNL     1       1.020  -0.590   0.917  0.00  0.00    +0.023 A 
ATOM     29  C   UNL     1       2.083  -0.038   0.213  0.00  0.00    +0.033 A 
ATOM     30  C   UNL     1       1.900   1.137  -0.506  0.00  0.00    +0.023 A 
ATOM     31  C   UNL     1       0.663   1.752  -0.518  0.00  0.00    +0.002 A 
ENDBRANCH  19  29
ENDBRANCH  18  22
ENDBRANCH  17  18
ENDBRANCH   1  17
BRANCH   5  32
ATOM     32  C   UNL     1       6.190  -8.602   1.824  0.00  0.00    +0.140 C 
BRANCH  32  33
ATOM     33  C   UNL     1       6.831  -9.715   2.656  0.00  0.00    +0.136 C 
ATOM     34  C   UNL     1       5.805 -10.842   2.901  0.00  0.00    +0.035 C 
ATOM     35  C   UNL     1       6.105 -11.248   4.370  0.00  0.00    +0.031 C 
ATOM     36  C   UNL     1       6.503  -9.879   4.977  0.00  0.00    +0.160 C 
ATOM     37  O   UNL     1       7.225  -9.201   3.933  0.00  0.00    -0.375 OA
ENDBRANCH  32  33
ENDBRANCH   5  32
TORSDOF 7
