REMARK  Name = ZINC36038441
REMARK  11 active torsions:
REMARK  status: ('A' for Active; 'I' for Inactive)
REMARK    1  A    between atoms: C_1  and  C_2
REMARK    2  A    between atoms: C_2  and  C_3
REMARK    3  A    between atoms: C_3  and  C_5
REMARK    4  A    between atoms: C_3  and  C_6
REMARK    5  A    between atoms: C_6  and  N_7
REMARK    6  A    between atoms: C_10  and  C_30
REMARK    7  A    between atoms: N_16  and  S_19
REMARK    8  A    between atoms: S_19  and  C_22
REMARK    9  A    between atoms: C_30  and  C_31
REMARK   10  A    between atoms: C_31  and  C_32
REMARK   11  A    between atoms: C_31  and  C_33
REMARK                            x       y       z     vdW  Elec       q    Type
REMARK                         _______ _______ _______ _____ _____    ______ ____
ROOT
ATOM      1  N   UNL     1       1.526  -2.413  -2.485  0.00  0.00    -0.313 N 
ATOM      2  C   UNL     1       0.954  -2.633  -3.687  0.00  0.00    +0.200 C 
ATOM      3  O   UNL     1      -0.161  -2.285  -4.015  0.00  0.00    -0.277 OA
ATOM      4  C   UNL     1       1.937  -3.385  -4.556  0.00  0.00    +0.019 C 
ATOM      5  N   UNL     1       3.248  -3.209  -3.885  0.00  0.00    +0.401 N 
ATOM      6  C   UNL     1       2.876  -2.982  -2.474  0.00  0.00    +0.006 C 
ATOM      7  C   UNL     1       2.882  -4.313  -1.724  0.00  0.00    +0.023 C 
ATOM      8  C   UNL     1       2.460  -4.079  -0.270  0.00  0.00    +0.109 C 
ATOM      9  N   UNL     1       3.324  -3.043   0.312  0.00  0.00    -0.177 NA
ATOM     10  C   UNL     1       3.443  -1.752  -0.377  0.00  0.00    +0.109 C 
ATOM     11  C   UNL     1       3.857  -2.005  -1.831  0.00  0.00    +0.023 C 
ATOM     12  H   UNL     1       3.811  -4.041  -3.979  0.00  0.00    -0.082 HD
ATOM     13  H   UNL     1       3.732  -2.405  -4.255  0.00  0.00    -0.082 HD
ENDROOT
BRANCH   9  14
ATOM     14  S   UNL     1       4.149  -3.327   1.720  0.00  0.00    +0.061 S 
ATOM     15  O   UNL     1       4.409  -2.057   2.301  0.00  0.00    -0.153 OA
ATOM     16  O   UNL     1       3.440  -4.349   2.408  0.00  0.00    -0.153 OA
BRANCH  14  17
ATOM     17  C   UNL     1       5.713  -4.009   1.279  0.00  0.00    +0.107 A 
ATOM     18  C   UNL     1       5.859  -5.378   1.152  0.00  0.00    +0.030 A 
ATOM     19  C   UNL     1       7.085  -5.914   0.807  0.00  0.00    +0.023 A 
ATOM     20  C   UNL     1       8.167  -5.080   0.588  0.00  0.00    +0.059 A 
ATOM     21  C   UNL     1       8.021  -3.709   0.715  0.00  0.00    +0.061 A 
ATOM     22  C   UNL     1       6.792  -3.174   1.056  0.00  0.00    +0.050 A 
ATOM     23 CL   UNL     1       9.379  -2.662   0.441  0.00  0.00    -0.082 Cl
ATOM     24 CL   UNL     1       9.708  -5.753   0.155  0.00  0.00    -0.082 Cl
ENDBRANCH  14  17
ENDBRANCH   9  14
BRANCH   1  25
ATOM     25  C   UNL     1       0.897  -1.708  -1.365  0.00  0.00    +0.109 C 
BRANCH  25  26
ATOM     26  C   UNL     1       0.883  -0.205  -1.652  0.00  0.00    +0.003 C 
ATOM     27  C   UNL     1       2.295   0.257  -2.020  0.00  0.00    +0.009 C 
BRANCH  26  29
ATOM     28  C   UNL     1       0.277   2.037  -0.731  0.00  0.00    +0.004 C 
ATOM     29  C   UNL     1       0.410   0.548  -0.407  0.00  0.00    +0.001 C 
ENDBRANCH  26  29
ENDBRANCH  25  26
ENDBRANCH   1  25
BRANCH   4  30
ATOM     30  C   UNL     1       1.565  -4.868  -4.621  0.00  0.00    -0.004 C 
BRANCH  30  31
ATOM     31  C   UNL     1       0.214  -5.024  -5.321  0.00  0.00    -0.018 C 
ATOM     32  C   UNL     1       0.329  -4.539  -6.768  0.00  0.00    +0.007 C 
ATOM     33  C   UNL     1      -0.200  -6.497  -5.309  0.00  0.00    +0.007 C 
ENDBRANCH  30  31
ENDBRANCH   4  30
TORSDOF 7
