REMARK  Name = ZINC32914580
REMARK  9 active torsions:
REMARK  status: ('A' for Active; 'I' for Inactive)
REMARK    1  A    between atoms: C_1  and  C_2
REMARK    2  A    between atoms: C_7  and  C_8
REMARK    3  A    between atoms: C_8  and  N_9
REMARK    4  A    between atoms: C_16  and  C_18
REMARK    5  A    between atoms: C_20  and  N_25
REMARK    6  A    between atoms: C_23  and  O_24
REMARK    7  A    between atoms: N_25  and  S_26
REMARK    8  A    between atoms: S_26  and  C_29
REMARK    9  A    between atoms: C_33  and  N_35
REMARK                            x       y       z     vdW  Elec       q    Type
REMARK                         _______ _______ _______ _____ _____    ______ ____
ROOT
ATOM      1  C   UNL     1       1.801   2.100   0.194  0.00  0.00    +0.080 A 
ATOM      2  C   UNL     1       2.787   1.223   0.652  0.00  0.00    +0.041 A 
ATOM      3  C   UNL     1       3.116   1.198   1.996  0.00  0.00    +0.049 A 
ATOM      4  C   UNL     1       2.466   2.044   2.890  0.00  0.00    +0.028 A 
ATOM      5  C   UNL     1       1.491   2.912   2.444  0.00  0.00    +0.048 A 
ATOM      6  C   UNL     1       1.155   2.952   1.099  0.00  0.00    +0.129 A 
ENDROOT
BRANCH   1  14
ATOM      7  N   UNL     1      -1.123  -0.289  -3.039  0.00  0.00    +0.383 N 
ATOM      8  C   UNL     1      -0.863  -0.709  -1.663  0.00  0.00    -0.077 C 
ATOM      9  C   UNL     1       0.503  -1.354  -1.592  0.00  0.00    +0.000 C 
ATOM     10  C   UNL     1       1.556  -0.295  -1.227  0.00  0.00    +0.106 C 
ATOM     11  N   UNL     1       1.296   0.981  -1.921  0.00  0.00    -0.299 N 
ATOM     12  C   UNL     1       0.888   1.043  -3.310  0.00  0.00    +0.089 C 
ATOM     13  C   UNL     1      -0.656   0.996  -3.402  0.00  0.00    -0.059 C 
ATOM     14  C   UNL     1       1.445   2.133  -1.238  0.00  0.00    +0.250 C 
ATOM     15  O   UNL     1       1.287   3.199  -1.801  0.00  0.00    -0.270 OA
ATOM     16  H   UNL     1      -0.486  -0.938  -3.658  0.00  0.00    -0.081 HD
BRANCH   7  17
ATOM     17  C   UNL     1      -2.544  -0.448  -3.378  0.00  0.00    -0.043 C 
BRANCH  17  24
ATOM     18  C   UNL     1      -3.466   2.112  -4.348  0.00  0.00    +0.044 C 
ATOM     19  C   UNL     1      -3.817   1.665  -2.953  0.00  0.00    -0.049 A 
ATOM     20  C   UNL     1      -4.583   2.477  -2.138  0.00  0.00    +0.003 A 
ATOM     21  C   UNL     1      -4.901   2.068  -0.857  0.00  0.00    +0.000 A 
ATOM     22  C   UNL     1      -4.455   0.845  -0.391  0.00  0.00    +0.000 A 
ATOM     23  C   UNL     1      -3.693   0.031  -1.207  0.00  0.00    +0.002 A 
ATOM     24  C   UNL     1      -3.376   0.440  -2.489  0.00  0.00    -0.061 A 
ENDBRANCH  17  24
ENDBRANCH   7  17
ENDBRANCH   1  14
BRANCH   6  25
ATOM     25  O   UNL     1       0.199   3.811   0.661  0.00  0.00    -0.506 OA
ATOM     26  H   UNL     1      -0.307   4.479   1.373  0.00  0.00    +0.292 HD
ENDBRANCH   6  25
BRANCH   3  27
ATOM     27  N   UNL     1       4.104   0.321   2.458  0.00  0.00    -0.216 N 
ATOM     28  H   UNL     1       4.105  -0.729   2.128  0.00  0.00    +0.174 HD
BRANCH  27  29
ATOM     29  S   UNL     1       5.271   0.863   3.500  0.00  0.00    +0.072 S 
ATOM     30  O   UNL     1       4.600   1.595   4.516  0.00  0.00    -0.150 OA
ATOM     31  O   UNL     1       6.107  -0.250   3.788  0.00  0.00    -0.150 OA
BRANCH  29  32
ATOM     32  C   UNL     1       6.262   2.021   2.616  0.00  0.00    +0.111 A 
ATOM     33  C   UNL     1       5.996   3.374   2.713  0.00  0.00    +0.029 A 
ATOM     34  C   UNL     1       6.774   4.283   2.020  0.00  0.00    +0.004 A 
ATOM     35  C   UNL     1       7.817   3.838   1.229  0.00  0.00    +0.033 A 
ATOM     36  C   UNL     1       8.082   2.485   1.132  0.00  0.00    +0.128 A 
ATOM     37  C   UNL     1       7.308   1.577   1.829  0.00  0.00    +0.061 A 
BRANCH  36  38
ATOM     38  N   UNL     1       9.200   2.010   0.285  0.00  0.00    +0.056 N 
ATOM     39  O   UNL     1       9.885   2.810  -0.325  0.00  0.00    -0.126 OA
ATOM     40  O   UNL     1       9.434   0.817   0.199  0.00  0.00    -0.126 OA
ENDBRANCH  36  38
ENDBRANCH  29  32
ENDBRANCH  27  29
ENDBRANCH   3  27
TORSDOF 8
