REMARK  Name = ZINC34748158
REMARK  6 active torsions:
REMARK  status: ('A' for Active; 'I' for Inactive)
REMARK    1  A    between atoms: C_4  and  C_7
REMARK    2  A    between atoms: C_7  and  C_8
REMARK    3  A    between atoms: C_8  and  N_9
REMARK    4  A    between atoms: N_22  and  C_25
REMARK    5  A    between atoms: C_25  and  C_26
REMARK    6  A    between atoms: N_28  and  C_29
REMARK                            x       y       z     vdW  Elec       q    Type
REMARK                         _______ _______ _______ _____ _____    ______ ____
ROOT
ATOM      1  N   UNL     1       6.051  -2.043   0.920  0.00  0.00    -0.280 N 
ATOM      2  C   UNL     1       6.179  -3.382   0.959  0.00  0.00    +0.264 A 
ATOM      3  O   UNL     1       5.196  -4.097   1.045  0.00  0.00    -0.267 OA
ATOM      4  C   UNL     1       7.489  -3.953   0.897  0.00  0.00    +0.076 A 
ATOM      5  C   UNL     1       7.859  -5.378   0.924  0.00  0.00    -0.023 A 
ATOM      6  C   UNL     1       9.168  -5.668   0.853  0.00  0.00    -0.004 A 
ATOM      7  S   UNL     1       9.983  -4.091   0.744  0.00  0.00    -0.073 S 
ATOM      8  C   UNL     1       8.552  -3.045   0.799  0.00  0.00    +0.117 A 
ATOM      9  N   UNL     1       8.357  -1.730   0.766  0.00  0.00    -0.208 NA
ATOM     10  C   UNL     1       7.141  -1.230   0.819  0.00  0.00    +0.202 A 
ATOM     11  N   UNL     1       6.967   0.132   0.777  0.00  0.00    -0.304 N 
ATOM     12  C   UNL     1       6.948   0.930   2.012  0.00  0.00    +0.089 C 
ATOM     13  C   UNL     1       7.922   2.102   1.848  0.00  0.00    -0.059 C 
ATOM     14  N   UNL     1       7.581   2.854   0.634  0.00  0.00    +0.387 N 
ATOM     15  C   UNL     1       7.777   2.009  -0.550  0.00  0.00    -0.059 C 
ATOM     16  C   UNL     1       6.801   0.834  -0.505  0.00  0.00    +0.089 C 
ATOM     17  C   UNL     1       9.425  -7.150   0.894  0.00  0.00    +0.043 C 
ATOM     18  C   UNL     1       8.113  -7.757   1.436  0.00  0.00    +0.010 C 
ATOM     19  C   UNL     1       7.079  -6.694   1.015  0.00  0.00    +0.037 C 
ATOM     20  H   UNL     1       6.617   3.147   0.681  0.00  0.00    -0.081 HD
ENDROOT
BRANCH   1  21
ATOM     21  C   UNL     1       4.713  -1.447   0.982  0.00  0.00    +0.133 C 
BRANCH  21  22
ATOM     22  C   UNL     1       4.117  -1.386  -0.425  0.00  0.00    +0.057 C 
BRANCH  22  26
ATOM     23  C   UNL     1       0.217   0.349  -0.247  0.00  0.00    +0.000 A 
ATOM     24  C   UNL     1       1.325   1.156  -0.430  0.00  0.00    +0.000 A 
ATOM     25  C   UNL     1       2.587   0.594  -0.487  0.00  0.00    +0.004 A 
ATOM     26  C   UNL     1       2.741  -0.774  -0.362  0.00  0.00    -0.046 A 
ATOM     27  C   UNL     1       1.633  -1.580  -0.178  0.00  0.00    +0.004 A 
ATOM     28  C   UNL     1       0.371  -1.019  -0.122  0.00  0.00    +0.000 A 
ENDBRANCH  22  26
ENDBRANCH  21  22
ENDBRANCH   1  21
BRANCH  14  29
ATOM     29  C   UNL     1       8.444   4.039   0.536  0.00  0.00    +0.019 C 
BRANCH  29  30
ATOM     30  C   UNL     1       8.015   4.878  -0.640  0.00  0.00    +0.201 C 
ATOM     31  O   UNL     1       7.082   4.523  -1.329  0.00  0.00    -0.278 OA
ATOM     32  N   UNL     1       8.667   6.021  -0.927  0.00  0.00    -0.287 N 
ATOM     33  H   UNL     1       9.456   6.270  -0.420  0.00  0.00    +0.155 HD
BRANCH  32  34
ATOM     34  C   UNL     1       8.207   6.850  -1.956  0.00  0.00    +0.033 A 
ATOM     35  C   UNL     1       6.848   6.938  -2.224  0.00  0.00    +0.023 A 
ATOM     36  C   UNL     1       6.397   7.757  -3.240  0.00  0.00    +0.002 A 
ATOM     37  C   UNL     1       7.298   8.490  -3.991  0.00  0.00    +0.000 A 
ATOM     38  C   UNL     1       8.653   8.405  -3.727  0.00  0.00    +0.002 A 
ATOM     39  C   UNL     1       9.109   7.592  -2.708  0.00  0.00    +0.023 A 
ENDBRANCH  32  34
ENDBRANCH  29  30
ENDBRANCH  14  29
TORSDOF 6
