REMARK  Name = ZINC19356947
REMARK  5 active torsions:
REMARK  status: ('A' for Active; 'I' for Inactive)
REMARK    1  A    between atoms: C_1  and  O_2
REMARK    2  A    between atoms: O_2  and  C_3
REMARK    3  A    between atoms: C_6  and  C_11
REMARK    4  A    between atoms: C_7  and  O_9
REMARK    5  A    between atoms: O_9  and  C_10
REMARK                            x       y       z     vdW  Elec       q    Type
REMARK                         _______ _______ _______ _____ _____    ______ ____
ROOT
ATOM      1  C   UNL     1       2.593  -2.541   4.316  0.00  0.00    +0.212 C 
ATOM      2  N   UNL     1       2.710  -1.604   5.449  0.00  0.00    -0.294 N 
ATOM      3  C   UNL     1       3.744  -0.680   5.422  0.00  0.00    +0.159 C 
ATOM      4  N   UNL     1       5.025  -1.185   5.197  0.00  0.00    -0.259 N 
ATOM      5  C   UNL     1       5.084  -2.281   4.337  0.00  0.00    +0.205 A 
ATOM      6  N   UNL     1       3.948  -2.935   3.920  0.00  0.00    -0.288 N 
ATOM      7  C   UNL     1       4.343  -3.967   3.096  0.00  0.00    +0.076 A 
ATOM      8  C   UNL     1       3.668  -4.957   2.393  0.00  0.00    +0.077 A 
ATOM      9  C   UNL     1       4.379  -5.863   1.631  0.00  0.00    +0.164 A 
ATOM     10  C   UNL     1       5.768  -5.794   1.564  0.00  0.00    +0.164 A 
ATOM     11  C   UNL     1       6.453  -4.821   2.260  0.00  0.00    +0.079 A 
ATOM     12  C   UNL     1       5.746  -3.896   3.034  0.00  0.00    +0.095 A 
ATOM     13  N   UNL     1       6.133  -2.844   3.815  0.00  0.00    -0.214 NA
ATOM     14  O   UNL     1       6.451  -6.697   0.801  0.00  0.00    -0.488 OA
ATOM     15  C   UNL     1       6.437  -8.048   1.268  0.00  0.00    +0.232 C 
ATOM     16  C   UNL     1       5.184  -8.769   0.798  0.00  0.00    +0.082 C 
ATOM     17  C   UNL     1       3.917  -8.175   1.393  0.00  0.00    +0.232 C 
ATOM     18  O   UNL     1       3.719  -6.836   0.935  0.00  0.00    -0.488 OA
ATOM     19  N   UNL     1       3.530   0.594   5.596  0.00  0.00    -0.375 N 
ATOM     20  H   UNL     1       2.083  -1.633   6.190  0.00  0.00    +0.151 HD
ATOM     21  H   UNL     1       2.629   0.918   5.750  0.00  0.00    +0.158 HD
ATOM     22  H   UNL     1       5.816  -0.803   5.608  0.00  0.00    +0.158 HD
ATOM     23  H   UNL     1       4.273   1.218   5.572  0.00  0.00    +0.158 HD
ENDROOT
BRANCH   1  27
ATOM     24  C   UNL     1       0.625  -0.620   1.041  0.00  0.00    +0.124 A 
ATOM     25  C   UNL     1       2.004  -0.780   1.030  0.00  0.00    +0.046 A 
ATOM     26  C   UNL     1       2.637  -1.400   2.090  0.00  0.00    +0.014 A 
ATOM     27  C   UNL     1       1.899  -1.864   3.163  0.00  0.00    +0.035 A 
ATOM     28  C   UNL     1       0.521  -1.707   3.178  0.00  0.00    +0.130 A 
ATOM     29  C   UNL     1      -0.116  -1.079   2.119  0.00  0.00    +0.091 A 
BRANCH  24  31
ATOM     30  C   UNL     1       0.829   0.438  -1.078  0.00  0.00    +0.277 C 
ATOM     31  O   UNL     1       0.003  -0.010  -0.002  0.00  0.00    -0.495 OA
ENDBRANCH  24  31
BRANCH  28  32
ATOM     32  O   UNL     1      -0.204  -2.163   4.233  0.00  0.00    -0.495 OA
ATOM     33  C   UNL     1      -1.619  -1.967   4.182  0.00  0.00    +0.277 C 
ENDBRANCH  28  32
ENDBRANCH   1  27
TORSDOF 3
