REMARK  Name = ZINC01933904
REMARK  12 active torsions:
REMARK  status: ('A' for Active; 'I' for Inactive)
REMARK    1  A    between atoms: C_1  and  C_2
REMARK    2  A    between atoms: C_2  and  C_3
REMARK    3  A    between atoms: C_2  and  C_4
REMARK    4  A    between atoms: C_9  and  O_10
REMARK    5  A    between atoms: O_10  and  C_11
REMARK    6  A    between atoms: C_17  and  O_35
REMARK    7  A    between atoms: C_18  and  C_26
REMARK    8  A    between atoms: C_21  and  C_22
REMARK    9  A    between atoms: C_26  and  N_62
REMARK   10  A    between atoms: C_27  and  N_62
REMARK   11  A    between atoms: C_28  and  C_29
REMARK   12  A    between atoms: C_28  and  N_62
REMARK                            x       y       z     vdW  Elec       q    Type
REMARK                         _______ _______ _______ _____ _____    ______ ____
ROOT
ATOM      1  C   UNL     1       2.617   8.925  -5.180  0.00  0.00    +0.222 A 
ATOM      2  C   UNL     1       1.324   8.946  -5.776  0.00  0.00    +0.235 A 
ATOM      3  O   UNL     1       1.163   9.302  -6.932  0.00  0.00    -0.283 OA
ATOM      4  C   UNL     1       0.189   8.521  -4.939  0.00  0.00    +0.068 A 
ATOM      5  C   UNL     1      -1.116   8.508  -5.434  0.00  0.00    +0.019 A 
ATOM      6  C   UNL     1      -2.142   8.107  -4.628  0.00  0.00    +0.046 A 
ATOM      7  C   UNL     1      -1.894   7.712  -3.315  0.00  0.00    +0.122 A 
ATOM      8  C   UNL     1      -0.605   7.719  -2.808  0.00  0.00    +0.020 A 
ATOM      9  C   UNL     1       0.448   8.129  -3.614  0.00  0.00    +0.144 A 
ATOM     10  O   UNL     1       1.714   8.140  -3.147  0.00  0.00    -0.447 OA
ATOM     11  C   UNL     1       2.753   8.525  -3.900  0.00  0.00    +0.254 A 
ENDROOT
BRANCH  11  12
ATOM     12  C   UNL     1       4.131   8.509  -3.291  0.00  0.00    +0.454 C 
ATOM     13  F   UNL     1       4.391   9.748  -2.696  0.00  0.00    -0.163 F 
ATOM     14  F   UNL     1       4.201   7.503  -2.321  0.00  0.00    -0.163 F 
ATOM     15  F   UNL     1       5.079   8.262  -4.288  0.00  0.00    -0.163 F 
ENDBRANCH  11  12
BRANCH   7  16
ATOM     16  O   UNL     1      -2.925   7.315  -2.525  0.00  0.00    -0.506 OA
ATOM     17  H   UNL     1      -3.335   8.034  -2.024  0.00  0.00    +0.292 HD
ENDBRANCH   7  16
BRANCH   1  18
ATOM     18  O   UNL     1       3.709   9.304  -5.899  0.00  0.00    -0.448 OA
BRANCH  18  24
ATOM     19  C   UNL     1       5.176  11.048  -6.583  0.00  0.00    -0.003 A 
ATOM     20  C   UNL     1       5.541  12.380  -6.548  0.00  0.00    +0.007 A 
ATOM     21  C   UNL     1       4.804  13.280  -5.801  0.00  0.00    +0.001 A 
ATOM     22  C   UNL     1       3.701  12.851  -5.086  0.00  0.00    +0.004 A 
ATOM     23  C   UNL     1       3.329  11.521  -5.121  0.00  0.00    +0.046 A 
ATOM     24  C   UNL     1       4.070  10.614  -5.866  0.00  0.00    +0.132 A 
BRANCH  19  26
ATOM     25  C   UNL     1       5.964  10.492  -8.867  0.00  0.00    +0.012 C 
ATOM     26  C   UNL     1       5.979  10.067  -7.397  0.00  0.00    +0.016 C 
ATOM     27  C   UNL     1       7.422  10.042  -6.889  0.00  0.00    +0.012 C 
ENDBRANCH  19  26
ENDBRANCH  18  24
ENDBRANCH   1  18
BRANCH   8  28
ATOM     28  C   UNL     1      -0.349   7.290  -1.387  0.00  0.00    -0.035 C 
BRANCH  28  30
ATOM     29  C   UNL     1       1.161   5.516  -2.047  0.00  0.00    -0.095 C 
ATOM     30  N   UNL     1      -0.112   5.831  -1.365  0.00  0.00    +0.383 N 
ATOM     31  H   UNL     1      -0.880   5.361  -1.858  0.00  0.00    -0.081 HD
BRANCH  30  32
ATOM     32  C   UNL     1      -0.070   5.347   0.031  0.00  0.00    -0.043 C 
BRANCH  32  33
ATOM     33  C   UNL     1      -0.050   3.840   0.023  0.00  0.00    -0.064 A 
ATOM     34  C   UNL     1       1.156   3.165   0.008  0.00  0.00    +0.002 A 
ATOM     35  C   UNL     1       1.175   1.783   0.000  0.00  0.00    +0.000 A 
ATOM     36  C   UNL     1      -0.013   1.076   0.008  0.00  0.00    +0.000 A 
ATOM     37  C   UNL     1      -1.219   1.751   0.017  0.00  0.00    +0.000 A 
ATOM     38  C   UNL     1      -1.238   3.133   0.030  0.00  0.00    +0.002 A 
ENDBRANCH  32  33
ENDBRANCH  30  32
ENDBRANCH  28  30
ENDBRANCH   8  28
TORSDOF 9
