REMARK  Name = ZINC65466604
REMARK  10 active torsions:
REMARK  status: ('A' for Active; 'I' for Inactive)
REMARK    1  A    between atoms: C_1  and  C_2
REMARK    2  A    between atoms: C_5  and  C_8
REMARK    3  A    between atoms: C_8  and  C_9
REMARK    4  A    between atoms: C_8  and  N_23
REMARK    5  A    between atoms: C_9  and  N_10
REMARK    6  A    between atoms: N_13  and  N_14
REMARK    7  A    between atoms: N_14  and  C_15
REMARK    8  A    between atoms: C_19  and  C_21
REMARK    9  A    between atoms: N_23  and  C_24
REMARK   10  A    between atoms: N_23  and  C_25
REMARK                            x       y       z     vdW  Elec       q    Type
REMARK                         _______ _______ _______ _____ _____    ______ ____
ROOT
ATOM      1  N   UNL     1      -2.128  -4.352  -1.064  0.00  0.00    -0.299 N 
ATOM      2  C   UNL     1      -3.437  -4.662  -1.141  0.00  0.00    +0.316 C 
ATOM      3  O   UNL     1      -3.945  -5.372  -0.294  0.00  0.00    -0.251 OA
ATOM      4  N   UNL     1      -4.184  -4.186  -2.157  0.00  0.00    -0.220 N 
ATOM      5  H   UNL     1      -1.723  -3.786  -1.739  0.00  0.00    +0.150 HD
ATOM      6  H   UNL     1      -5.126  -4.410  -2.213  0.00  0.00    +0.174 HD
ENDROOT
BRANCH   4   7
ATOM      7  N   UNL     1      -3.599  -3.369  -3.133  0.00  0.00    -0.263 N 
ATOM      8  H   UNL     1      -2.656  -3.146  -3.077  0.00  0.00    +0.170 HD
BRANCH   7   9
ATOM      9  C   UNL     1      -4.372  -2.876  -4.187  0.00  0.00    +0.046 A 
ATOM     10  C   UNL     1      -5.724  -3.191  -4.263  0.00  0.00    +0.024 A 
ATOM     11  C   UNL     1      -6.494  -2.706  -5.304  0.00  0.00    +0.003 A 
ATOM     12  C   UNL     1      -5.926  -1.905  -6.273  0.00  0.00    +0.019 A 
ATOM     13  C   UNL     1      -4.569  -1.581  -6.205  0.00  0.00    +0.054 A 
ATOM     14  C   UNL     1      -3.793  -2.067  -5.152  0.00  0.00    +0.043 A 
BRANCH  13  15
ATOM     15  C   UNL     1      -3.978  -0.750  -7.210  0.00  0.00    +0.099 C 
ATOM     16  N   UNL     1      -3.508  -0.091  -8.007  0.00  0.00    -0.191 NA
ENDBRANCH  13  15
ENDBRANCH   7   9
ENDBRANCH   4   7
BRANCH   1  17
ATOM     17  C   UNL     1      -1.317  -4.870   0.041  0.00  0.00    +0.095 C 
BRANCH  17  18
ATOM     18  C   UNL     1       0.088  -4.267  -0.032  0.00  0.00    -0.021 C 
BRANCH  18  23
ATOM     19  C   UNL     1      -0.218   1.437   0.841  0.00  0.00    +0.044 C 
ATOM     20  C   UNL     1      -0.138  -0.051   0.613  0.00  0.00    -0.050 A 
ATOM     21  C   UNL     1      -0.028  -0.548  -0.672  0.00  0.00    +0.003 A 
ATOM     22  C   UNL     1       0.046  -1.913  -0.881  0.00  0.00    +0.002 A 
ATOM     23  C   UNL     1       0.009  -2.780   0.196  0.00  0.00    -0.059 A 
ATOM     24  C   UNL     1      -0.101  -2.282   1.480  0.00  0.00    +0.002 A 
ATOM     25  C   UNL     1      -0.170  -0.917   1.690  0.00  0.00    +0.003 A 
ENDBRANCH  18  23
BRANCH  18  26
ATOM     26  N   UNL     1       0.936  -4.876   1.001  0.00  0.00    +0.382 N 
ATOM     27  C   UNL     1       1.028  -6.324   0.769  0.00  0.00    -0.096 C 
ATOM     28  C   UNL     1       2.280  -4.285   0.942  0.00  0.00    -0.096 C 
ATOM     29  H   UNL     1       0.533  -4.706   1.910  0.00  0.00    -0.082 HD
ENDBRANCH  18  26
ENDBRANCH  17  18
ENDBRANCH   1  17
TORSDOF 7
