REMARK  Name = ZINC23243313
REMARK  9 active torsions:
REMARK  status: ('A' for Active; 'I' for Inactive)
REMARK    1  A    between atoms: C_1  and  N_2
REMARK    2  A    between atoms: N_2  and  C_3
REMARK    3  A    between atoms: N_2  and  C_14
REMARK    4  A    between atoms: C_3  and  C_4
REMARK    5  A    between atoms: C_8  and  O_12
REMARK    6  A    between atoms: C_9  and  O_10
REMARK    7  A    between atoms: O_10  and  C_11
REMARK    8  A    between atoms: O_12  and  C_13
REMARK    9  A    between atoms: C_14  and  C_15
REMARK                            x       y       z     vdW  Elec       q    Type
REMARK                         _______ _______ _______ _____ _____    ______ ____
ROOT
ATOM      1  C   UNL     1      -3.762   5.824   0.070  0.00  0.00    -0.003 C 
ENDROOT
BRANCH   1   2
ATOM      2  C   UNL     1      -2.425   5.129   0.053  0.00  0.00    +0.095 A 
ATOM      3  N   UNL     1      -1.301   5.893   0.046  0.00  0.00    -0.197 NA
ATOM      4  C   UNL     1      -0.076   5.317   0.031  0.00  0.00    +0.281 A 
ATOM      5  O   UNL     1       0.939   5.989   0.025  0.00  0.00    -0.265 OA
ATOM      6  C   UNL     1      -0.020   3.848   0.022  0.00  0.00    +0.067 A 
ATOM      7  C   UNL     1       1.190   3.157   0.007  0.00  0.00    +0.030 A 
ATOM      8  C   UNL     1       1.186   1.778   0.000  0.00  0.00    +0.020 A 
ATOM      9  C   UNL     1      -0.013   1.076   0.008  0.00  0.00    +0.032 A 
ATOM     10  C   UNL     1      -1.219   1.740   0.017  0.00  0.00    +0.043 A 
ATOM     11  C   UNL     1      -1.240   3.137   0.031  0.00  0.00    +0.067 A 
ATOM     12  N   UNL     1      -2.406   3.831   0.046  0.00  0.00    -0.343 N 
ATOM     13 BR   UNL     1      -2.840   0.765   0.019  0.00  0.00    -0.048 Br
ATOM     14 BR   UNL     1       2.825   0.836  -0.020  0.00  0.00    -0.050 Br
ATOM     15  H   UNL     1      -3.350   3.267   0.052  0.00  0.00    +0.167 HD
ENDBRANCH   1   2
BRANCH   1  17
ATOM     16  C   UNL     1      -4.852   4.062  -1.182  0.00  0.00    -0.095 C 
ATOM     17  N   UNL     1      -4.835   4.822   0.076  0.00  0.00    +0.385 N 
ATOM     18  H   UNL     1      -4.634   4.115   0.894  0.00  0.00    -0.081 HD
BRANCH  17  19
ATOM     19  C   UNL     1      -6.139   5.448   0.330  0.00  0.00    -0.039 C 
BRANCH  19  20
ATOM     20  C   UNL     1      -7.172   4.377   0.572  0.00  0.00    -0.019 A 
ATOM     21  C   UNL     1      -8.031   4.002  -0.445  0.00  0.00    +0.005 A 
ATOM     22  C   UNL     1      -8.979   3.021  -0.227  0.00  0.00    +0.004 A 
ATOM     23  C   UNL     1      -9.073   2.409   1.010  0.00  0.00    +0.049 A 
ATOM     24  C   UNL     1      -8.216   2.780   2.033  0.00  0.00    +0.162 A 
ATOM     25  C   UNL     1      -7.257   3.764   1.811  0.00  0.00    +0.163 A 
BRANCH  25  26
ATOM     26  O   UNL     1      -6.410   4.128   2.811  0.00  0.00    -0.491 OA
ATOM     27  C   UNL     1      -6.835   5.188   3.669  0.00  0.00    +0.277 C 
ENDBRANCH  25  26
BRANCH  24  28
ATOM     28  O   UNL     1      -8.308   2.180   3.250  0.00  0.00    -0.491 OA
ATOM     29  C   UNL     1      -9.312   1.174   3.404  0.00  0.00    +0.277 C 
ENDBRANCH  24  28
ENDBRANCH  19  20
ENDBRANCH  17  19
ENDBRANCH   1  17
TORSDOF 6
