REMARK  Name = ZINC40036934
REMARK  6 active torsions:
REMARK  status: ('A' for Active; 'I' for Inactive)
REMARK    1  A    between atoms: C_1  and  O_2
REMARK    2  A    between atoms: O_2  and  C_3
REMARK    3  A    between atoms: C_6  and  N_9
REMARK    4  A    between atoms: N_16  and  N_17
REMARK    5  A    between atoms: C_18  and  C_19
REMARK    6  A    between atoms: C_20  and  C_21
REMARK                            x       y       z     vdW  Elec       q    Type
REMARK                         _______ _______ _______ _____ _____    ______ ____
ROOT
ATOM      1  N   UNL     1       2.528  -2.503   4.240  0.00  0.00    -0.248 N 
ATOM      2  C   UNL     1       2.503  -3.850   4.339  0.00  0.00    +0.264 A 
ATOM      3  O   UNL     1       1.893  -4.524   3.525  0.00  0.00    -0.267 OA
ATOM      4  C   UNL     1       3.193  -4.456   5.397  0.00  0.00    +0.050 A 
ATOM      5  C   UNL     1       3.875  -3.654   6.299  0.00  0.00    +0.084 A 
ATOM      6  N   UNL     1       3.839  -2.323   6.169  0.00  0.00    -0.214 NA
ATOM      7  C   UNL     1       3.194  -1.759   5.168  0.00  0.00    +0.223 A 
ATOM      8  N   UNL     1       3.189  -0.392   5.061  0.00  0.00    -0.206 N 
ATOM      9  C   UNL     1       4.661  -4.292   7.379  0.00  0.00    +0.004 A 
ATOM     10  C   UNL     1       5.103  -3.550   8.471  0.00  0.00    +0.010 A 
ATOM     11  C   UNL     1       5.817  -4.171   9.476  0.00  0.00    +0.001 A 
ATOM     12  C   UNL     1       6.090  -5.525   9.398  0.00  0.00    +0.000 A 
ATOM     13  C   UNL     1       5.659  -6.264   8.311  0.00  0.00    +0.004 A 
ATOM     14  C   UNL     1       4.954  -5.653   7.294  0.00  0.00    -0.037 A 
ATOM     15  C   UNL     1       4.529  -6.442   6.085  0.00  0.00    +0.047 C 
ATOM     16  C   UNL     1       3.180  -5.951   5.564  0.00  0.00    +0.007 C 
ATOM     17  C   UNL     1       2.081  -6.341   6.557  0.00  0.00    +0.012 C 
ATOM     18  C   UNL     1       2.061  -7.862   6.723  0.00  0.00    +0.001 C 
ATOM     19  C   UNL     1       1.778  -8.520   5.371  0.00  0.00    +0.000 C 
ATOM     20  C   UNL     1       2.872  -8.128   4.375  0.00  0.00    +0.001 C 
ATOM     21  C   UNL     1       2.891  -6.607   4.210  0.00  0.00    +0.012 C 
ATOM     22  H   UNL     1       2.664   0.038   4.367  0.00  0.00    +0.177 HD
ENDROOT
BRANCH   1  26
ATOM     23  C   UNL     1       0.574  -0.617   1.075  0.00  0.00    +0.120 A 
ATOM     24  C   UNL     1       1.904  -0.990   0.945  0.00  0.00    +0.047 A 
ATOM     25  C   UNL     1       2.551  -1.614   1.993  0.00  0.00    +0.030 A 
ATOM     26  C   UNL     1       1.871  -1.869   3.176  0.00  0.00    +0.053 A 
ATOM     27  C   UNL     1       0.540  -1.496   3.305  0.00  0.00    +0.030 A 
ATOM     28  C   UNL     1      -0.105  -0.866   2.259  0.00  0.00    +0.047 A 
BRANCH  23  30
ATOM     29  C   UNL     1       0.696   0.223  -1.146  0.00  0.00    +0.277 C 
ATOM     30  O   UNL     1      -0.063  -0.002   0.043  0.00  0.00    -0.495 OA
ENDBRANCH  23  30
ENDBRANCH   1  26
BRANCH   8  31
ATOM     31  N   UNL     1       3.941   0.384   5.952  0.00  0.00    -0.188 NA
ATOM     32  C   UNL     1       3.936   1.683   5.850  0.00  0.00    +0.130 C 
BRANCH  32  33
ATOM     33  C   UNL     1       4.697   2.467   6.753  0.00  0.00    +0.022 C 
ATOM     34  C   UNL     1       4.692   3.812   6.647  0.00  0.00    +0.009 C 
BRANCH  34  35
ATOM     35  C   UNL     1       5.483   4.627   7.584  0.00  0.00    -0.025 A 
ATOM     36  C   UNL     1       6.245   4.011   8.581  0.00  0.00    +0.008 A 
ATOM     37  C   UNL     1       6.983   4.781   9.455  0.00  0.00    +0.001 A 
ATOM     38  C   UNL     1       6.970   6.161   9.347  0.00  0.00    +0.000 A 
ATOM     39  C   UNL     1       6.218   6.778   8.363  0.00  0.00    +0.001 A 
ATOM     40  C   UNL     1       5.479   6.021   7.478  0.00  0.00    +0.008 A 
ENDBRANCH  34  35
ENDBRANCH  32  33
ENDBRANCH   8  31
TORSDOF 5
