REMARK  Name = ZINC41804595
REMARK  7 active torsions:
REMARK  status: ('A' for Active; 'I' for Inactive)
REMARK    1  A    between atoms: C_1  and  C_2
REMARK    2  A    between atoms: C_2  and  C_3
REMARK    3  A    between atoms: C_2  and  C_13
REMARK    4  A    between atoms: C_2  and  N_16
REMARK    5  A    between atoms: N_16  and  C_17
REMARK    6  A    between atoms: C_17  and  C_18
REMARK    7  A    between atoms: C_18  and  C_19
REMARK                            x       y       z     vdW  Elec       q    Type
REMARK                         _______ _______ _______ _____ _____    ______ ____
ROOT
ATOM      1  C   UNL     1       0.210   1.428   0.410  0.00  0.00    +0.010 C 
ATOM      2  C   UNL     1       0.010  -0.034   0.006  0.00  0.00    +0.092 C 
ENDROOT
BRANCH   2   3
ATOM      3  C   UNL     1       0.639  -0.931   1.040  0.00  0.00    +0.106 A 
ATOM      4  C   UNL     1       0.292  -0.972   2.334  0.00  0.00    +0.052 A 
ATOM      5  C   UNL     1       1.158  -1.978   2.959  0.00  0.00    +0.021 A 
ATOM      6  C   UNL     1       1.294  -2.479   4.253  0.00  0.00    +0.027 A 
ATOM      7  C   UNL     1       2.235  -3.453   4.511  0.00  0.00    +0.019 A 
ATOM      8  C   UNL     1       3.044  -3.931   3.490  0.00  0.00    +0.019 A 
ATOM      9  C   UNL     1       2.920  -3.444   2.207  0.00  0.00    +0.048 A 
ATOM     10  C   UNL     1       1.977  -2.463   1.925  0.00  0.00    +0.135 A 
ATOM     11  O   UNL     1       1.626  -1.812   0.798  0.00  0.00    -0.461 OA
ATOM     12 BR   UNL     1       2.425  -4.138   6.263  0.00  0.00    -0.050 Br
ENDBRANCH   2   3
BRANCH   2  13
ATOM     13  C   UNL     1      -1.464  -0.332  -0.088  0.00  0.00    +0.352 C 
ATOM     14  O   UNL     1      -1.929  -0.788  -1.119  0.00  0.00    -0.247 OA
ATOM     15  O   UNL     1      -2.192  -0.118   0.866  0.00  0.00    -0.247 OA
ENDBRANCH   2  13
BRANCH   2  16
ATOM     16  N   UNL     1       0.642  -0.272  -1.299  0.00  0.00    +0.395 N 
ATOM     17  H   UNL     1       0.586  -1.254  -1.526  0.00  0.00    -0.084 HD
ATOM     18  H   UNL     1       0.165   0.265  -2.007  0.00  0.00    -0.084 HD
BRANCH  16  19
ATOM     19  C   UNL     1       2.052   0.137  -1.242  0.00  0.00    -0.071 C 
BRANCH  19  20
ATOM     20  C   UNL     1       2.686  -0.023  -2.625  0.00  0.00    +0.076 C 
BRANCH  20  21
ATOM     21  C   UNL     1       4.132   0.397  -2.567  0.00  0.00    +0.209 C 
ATOM     22  O   UNL     1       4.609   0.785  -1.521  0.00  0.00    -0.276 OA
ATOM     23  N   UNL     1       4.896   0.341  -3.676  0.00  0.00    -0.329 N 
ATOM     24  H   UNL     1       4.514   0.030  -4.512  0.00  0.00    +0.145 HD
ATOM     25  H   UNL     1       5.827   0.611  -3.638  0.00  0.00    +0.145 HD
ENDBRANCH  20  21
ENDBRANCH  19  20
ENDBRANCH  16  19
ENDBRANCH   2  16
TORSDOF 6
