REMARK  Name = ZINC33161942
REMARK  9 active torsions:
REMARK  status: ('A' for Active; 'I' for Inactive)
REMARK    1  A    between atoms: C_1  and  C_2
REMARK    2  A    between atoms: C_2  and  O_3
REMARK    3  A    between atoms: O_3  and  C_4
REMARK    4  A    between atoms: C_6  and  C_20
REMARK    5  A    between atoms: C_9  and  O_10
REMARK    6  A    between atoms: O_10  and  C_11
REMARK    7  A    between atoms: C_11  and  C_13
REMARK    8  A    between atoms: N_29  and  C_32
REMARK    9  A    between atoms: C_33  and  O_35
REMARK                            x       y       z     vdW  Elec       q    Type
REMARK                         _______ _______ _______ _____ _____    ______ ____
ROOT
ATOM      1  C   UNL     1       0.749  -1.796  -1.350  0.00  0.00    +0.163 A 
ATOM      2  C   UNL     1       0.211  -2.648  -0.398  0.00  0.00    +0.056 A 
ATOM      3  C   UNL     1       0.340  -4.017  -0.543  0.00  0.00    -0.002 A 
ATOM      4  C   UNL     1       1.004  -4.539  -1.638  0.00  0.00    +0.011 A 
ATOM      5  C   UNL     1       1.542  -3.696  -2.591  0.00  0.00    +0.050 A 
ATOM      6  C   UNL     1       1.412  -2.323  -2.455  0.00  0.00    +0.173 A 
ENDROOT
BRANCH   3   7
ATOM      7  C   UNL     1      -0.244  -4.941   0.494  0.00  0.00    +0.224 C 
ATOM      8  N   UNL     1      -0.608  -6.217  -0.149  0.00  0.00    -0.313 N 
ATOM      9  C   UNL     1      -1.831  -6.254  -0.780  0.00  0.00    +0.080 A 
ATOM     10  C   UNL     1      -2.879  -5.400  -0.414  0.00  0.00    +0.067 A 
ATOM     11  C   UNL     1      -4.101  -5.548  -1.178  0.00  0.00    -0.027 A 
ATOM     12  C   UNL     1      -4.056  -6.504  -2.137  0.00  0.00    -0.021 A 
ATOM     13  S   UNL     1      -2.425  -7.182  -2.020  0.00  0.00    -0.080 S 
ATOM     14  C   UNL     1      -5.167  -6.877  -3.067  0.00  0.00    -0.036 C 
ATOM     15  N   UNL     1      -6.424  -6.317  -2.537  0.00  0.00    +0.381 N 
ATOM     16  C   UNL     1      -6.238  -4.892  -2.231  0.00  0.00    -0.074 C 
ATOM     17  C   UNL     1      -5.370  -4.730  -0.978  0.00  0.00    +0.018 C 
ATOM     18  C   UNL     1      -7.487  -6.467  -3.539  0.00  0.00    -0.096 C 
ATOM     19  C   UNL     1      -2.632  -4.454   0.704  0.00  0.00    +0.220 C 
ATOM     20  N   UNL     1      -1.401  -4.300   1.105  0.00  0.00    -0.223 NA
ATOM     21  H   UNL     1      -0.019  -6.987  -0.129  0.00  0.00    +0.149 HD
ATOM     22  H   UNL     1      -6.683  -6.810  -1.696  0.00  0.00    -0.082 HD
BRANCH  19  23
ATOM     23  O   UNL     1      -3.649  -3.775   1.285  0.00  0.00    -0.492 OA
ATOM     24  H   UNL     1      -3.371  -3.188   2.002  0.00  0.00    +0.294 HD
ENDBRANCH  19  23
ENDBRANCH   3   7
BRANCH   1  25
ATOM     25  O   UNL     1       0.623  -0.450  -1.209  0.00  0.00    -0.489 OA
BRANCH  25  27
ATOM     26  C   UNL     1      -0.111   1.548  -0.065  0.00  0.00    +0.048 C 
ATOM     27  C   UNL     1      -0.071   0.019  -0.051  0.00  0.00    +0.226 C 
ENDBRANCH  25  27
ENDBRANCH   1  25
BRANCH   6  28
ATOM     28  O   UNL     1       1.936  -1.492  -3.395  0.00  0.00    -0.419 OA
BRANCH  28  29
ATOM     29  C   UNL     1       3.132  -0.925  -3.142  0.00  0.00    +0.346 C 
ATOM     30  O   UNL     1       3.753  -1.237  -2.146  0.00  0.00    -0.244 OA
BRANCH  29  31
ATOM     31  C   UNL     1       3.686   0.076  -4.075  0.00  0.00    +0.078 A 
ATOM     32  C   UNL     1       2.971   0.441  -5.218  0.00  0.00    +0.016 A 
ATOM     33  C   UNL     1       3.495   1.377  -6.085  0.00  0.00    +0.001 A 
ATOM     34  C   UNL     1       4.726   1.954  -5.826  0.00  0.00    +0.001 A 
ATOM     35  C   UNL     1       5.441   1.597  -4.697  0.00  0.00    +0.021 A 
ATOM     36  C   UNL     1       4.926   0.666  -3.816  0.00  0.00    +0.055 A 
ATOM     37 CL   UNL     1       5.820   0.225  -2.395  0.00  0.00    -0.083 Cl
ENDBRANCH  29  31
ENDBRANCH  28  29
ENDBRANCH   6  28
TORSDOF 7
