REMARK  Name = ZINC13478182
REMARK  8 active torsions:
REMARK  status: ('A' for Active; 'I' for Inactive)
REMARK    1  A    between atoms: C_1  and  O_2
REMARK    2  A    between atoms: O_2  and  C_3
REMARK    3  A    between atoms: C_8  and  N_9
REMARK    4  A    between atoms: C_10  and  C_12
REMARK    5  A    between atoms: C_12  and  C_13
REMARK    6  A    between atoms: N_18  and  C_19
REMARK    7  A    between atoms: C_19  and  N_20
REMARK    8  A    between atoms: N_20  and  C_21
REMARK                            x       y       z     vdW  Elec       q    Type
REMARK                         _______ _______ _______ _____ _____    ______ ____
ROOT
ATOM      1  C   UNL     1       0.191  -6.170  -0.141  0.00  0.00    +0.033 A 
ATOM      2  C   UNL     1      -0.522  -6.676  -1.176  0.00  0.00    +0.070 A 
ATOM      3  S   UNL     1      -0.081  -8.403  -1.072  0.00  0.00    -0.062 S 
ATOM      4  C   UNL     1       0.949  -8.300   0.255  0.00  0.00    +0.142 A 
ATOM      5  N   UNL     1       0.925  -7.019   0.554  0.00  0.00    -0.340 N 
ATOM      6  N   UNL     1       1.656  -9.320   0.880  0.00  0.00    -0.277 N 
ATOM      7  H   UNL     1       1.453  -6.694   1.300  0.00  0.00    +0.167 HD
ATOM      8  H   UNL     1       2.219  -9.121   1.645  0.00  0.00    +0.156 HD
ENDROOT
BRANCH   6   9
ATOM      9  C   UNL     1       1.560 -10.585   0.425  0.00  0.00    +0.140 C 
ATOM     10  S   UNL     1       0.566 -10.935  -0.925  0.00  0.00    -0.018 S 
BRANCH   9  11
ATOM     11  N   UNL     1       2.246 -11.574   1.031  0.00  0.00    -0.297 N 
ATOM     12  H   UNL     1       2.744 -11.391   1.843  0.00  0.00    +0.154 HD
BRANCH  11  13
ATOM     13  C   UNL     1       2.239 -12.863   0.489  0.00  0.00    +0.033 A 
ATOM     14  C   UNL     1       2.336 -13.041  -0.885  0.00  0.00    +0.023 A 
ATOM     15  C   UNL     1       2.330 -14.316  -1.417  0.00  0.00    +0.002 A 
ATOM     16  C   UNL     1       2.227 -15.414  -0.582  0.00  0.00    +0.000 A 
ATOM     17  C   UNL     1       2.130 -15.240   0.786  0.00  0.00    +0.002 A 
ATOM     18  C   UNL     1       2.142 -13.969   1.325  0.00  0.00    +0.023 A 
ENDBRANCH  11  13
ENDBRANCH   9  11
ENDBRANCH   6   9
BRANCH   1  19
ATOM     19  C   UNL     1       0.154  -4.702   0.197  0.00  0.00    +0.149 C 
BRANCH  19  21
ATOM     20  N   UNL     1       1.296  -2.630  -0.526  0.00  0.00    -0.282 N 
ATOM     21  C   UNL     1       1.153  -3.964  -0.656  0.00  0.00    +0.223 C 
ATOM     22  O   UNL     1       1.830  -4.571  -1.459  0.00  0.00    -0.275 OA
ATOM     23  H   UNL     1       0.819  -2.158   0.174  0.00  0.00    +0.155 HD
BRANCH  20  29
ATOM     24  C   UNL     1       2.643  -0.684  -1.032  0.00  0.00    +0.141 A 
ATOM     25  C   UNL     1       3.475   0.005  -1.900  0.00  0.00    +0.047 A 
ATOM     26  C   UNL     1       3.792  -0.538  -3.131  0.00  0.00    +0.004 A 
ATOM     27  C   UNL     1       3.283  -1.769  -3.500  0.00  0.00    +0.002 A 
ATOM     28  C   UNL     1       2.453  -2.463  -2.640  0.00  0.00    +0.027 A 
ATOM     29  C   UNL     1       2.133  -1.927  -1.401  0.00  0.00    +0.076 A 
BRANCH  24  31
ATOM     30  C   UNL     1       2.888   1.127   0.489  0.00  0.00    +0.277 C 
ATOM     31  O   UNL     1       2.329  -0.151   0.178  0.00  0.00    -0.493 OA
ENDBRANCH  24  31
ENDBRANCH  20  29
ENDBRANCH  19  21
ENDBRANCH   1  19
TORSDOF 7
