REMARK  Name = ZINC13556688
REMARK  10 active torsions:
REMARK  status: ('A' for Active; 'I' for Inactive)
REMARK    1  A    between atoms: C_1  and  C_2
REMARK    2  A    between atoms: C_2  and  C_4
REMARK    3  A    between atoms: C_2  and  O_16
REMARK    4  A    between atoms: N_6  and  C_7
REMARK    5  A    between atoms: C_9  and  C_14
REMARK    6  A    between atoms: C_9  and  C_15
REMARK    7  A    between atoms: C_10  and  C_12
REMARK    8  A    between atoms: C_10  and  C_13
REMARK    9  A    between atoms: O_16  and  C_17
REMARK   10  A    between atoms: C_21  and  C_28
REMARK                            x       y       z     vdW  Elec       q    Type
REMARK                         _______ _______ _______ _____ _____    ______ ____
ROOT
ATOM      1  C   UNL     1       1.538   2.936   1.157  0.00  0.00    +0.062 C 
ATOM      2  C   UNL     1       1.277   1.977  -0.006  0.00  0.00    +0.255 C 
ENDROOT
BRANCH   2   3
ATOM      3  C   UNL     1       0.013   1.200   0.257  0.00  0.00    +0.254 C 
ATOM      4  O   UNL     1       0.062  -0.001   0.420  0.00  0.00    -0.272 OA
ATOM      5  N   UNL     1      -1.173   1.839   0.306  0.00  0.00    -0.310 N 
ATOM      6  H   UNL     1      -1.212   2.799   0.176  0.00  0.00    +0.149 HD
BRANCH   5   7
ATOM      7  C   UNL     1      -2.405   1.081   0.557  0.00  0.00    +0.070 C 
ATOM      8  C   UNL     1      -2.946   0.546  -0.768  0.00  0.00    +0.009 C 
ATOM      9  C   UNL     1      -4.242  -0.229  -0.541  0.00  0.00    -0.072 C 
ATOM     10  C   UNL     1      -4.753   1.253   1.421  0.00  0.00    -0.072 C 
ATOM     11  C   UNL     1      -3.452   2.011   1.169  0.00  0.00    +0.009 C 
ATOM     12  C   UNL     1      -4.590   0.350   2.650  0.00  0.00    -0.010 C 
ATOM     13  C   UNL     1      -5.841   2.296   1.762  0.00  0.00    -0.010 C 
ATOM     14  C   UNL     1      -3.920  -1.597   0.071  0.00  0.00    -0.010 C 
ATOM     15  C   UNL     1      -4.880  -0.485  -1.925  0.00  0.00    -0.010 C 
ATOM     16  N   UNL     1      -5.273   0.493   0.252  0.00  0.00    +0.386 N 
ATOM     17  H   UNL     1      -5.950  -0.197   0.597  0.00  0.00    -0.084 HD
ATOM     18  H   UNL     1      -5.747   1.156  -0.372  0.00  0.00    -0.084 HD
ENDBRANCH   5   7
ENDBRANCH   2   3
BRANCH   2  19
ATOM     19  O   UNL     1       2.375   1.071  -0.132  0.00  0.00    -0.480 OA
BRANCH  19  20
ATOM     20  C   UNL     1       3.444   1.495  -0.853  0.00  0.00    +0.125 A 
ATOM     21  C   UNL     1       3.479   2.803  -1.333  0.00  0.00    +0.046 A 
ATOM     22  C   UNL     1       4.548   3.243  -2.060  0.00  0.00    +0.016 A 
ATOM     23  C   UNL     1       5.613   2.378  -2.324  0.00  0.00    +0.026 A 
ATOM     24  C   UNL     1       6.778   2.826  -3.104  0.00  0.00    -0.000 A 
ATOM     25  C   UNL     1       7.795   1.917  -3.327  0.00  0.00    +0.101 A 
ATOM     26  C   UNL     1       7.686   0.615  -2.809  0.00  0.00    +0.338 A 
ATOM     27  O   UNL     1       8.586  -0.180  -3.010  0.00  0.00    -0.245 OA
ATOM     28  O   UNL     1       6.616   0.224  -2.099  0.00  0.00    -0.422 OA
ATOM     29  C   UNL     1       5.585   1.058  -1.843  0.00  0.00    +0.143 A 
ATOM     30  C   UNL     1       4.494   0.627  -1.101  0.00  0.00    +0.092 A 
BRANCH  24  31
ATOM     31  C   UNL     1       6.858   4.205  -3.634  0.00  0.00    -0.017 A 
ATOM     32  C   UNL     1       5.790   4.742  -4.355  0.00  0.00    +0.008 A 
ATOM     33  C   UNL     1       5.869   6.031  -4.840  0.00  0.00    +0.001 A 
ATOM     34  C   UNL     1       7.007   6.787  -4.624  0.00  0.00    +0.000 A 
ATOM     35  C   UNL     1       8.071   6.259  -3.914  0.00  0.00    +0.001 A 
ATOM     36  C   UNL     1       8.003   4.973  -3.418  0.00  0.00    +0.008 A 
ENDBRANCH  24  31
ENDBRANCH  19  20
ENDBRANCH   2  19
TORSDOF 5
