REMARK  Name = ZINC51924566
REMARK  5 active torsions:
REMARK  status: ('A' for Active; 'I' for Inactive)
REMARK    1  A    between atoms: C_1  and  C_2
REMARK    2  A    between atoms: C_8  and  N_10
REMARK    3  A    between atoms: C_14  and  C_16
REMARK    4  A    between atoms: C_16  and  N_17
REMARK    5  A    between atoms: C_20  and  N_23
REMARK                            x       y       z     vdW  Elec       q    Type
REMARK                         _______ _______ _______ _____ _____    ______ ____
ROOT
ATOM      1  N   UNL     1       0.056  -0.038   2.447  0.00  0.00    -0.296 N 
ATOM      2  C   UNL     1       0.738   0.093   3.602  0.00  0.00    +0.306 C 
ATOM      3  O   UNL     1       1.921  -0.180   3.644  0.00  0.00    -0.252 OA
ATOM      4  N   UNL     1       0.107   0.528   4.711  0.00  0.00    -0.239 N 
ATOM      5  C   UNL     1       0.789   0.659   5.866  0.00  0.00    +0.234 C 
ATOM      6  O   UNL     1       1.969   0.387   5.908  0.00  0.00    -0.274 OA
ATOM      7  H   UNL     1      -0.888   0.180   2.413  0.00  0.00    +0.151 HD
ATOM      8  H   UNL     1      -0.838   0.746   4.678  0.00  0.00    +0.159 HD
ENDROOT
BRANCH   1  15
ATOM      9  C   UNL     1      -0.019   1.526   0.010  0.00  0.00    +0.009 C 
ATOM     10  C   UNL     1       0.002  -0.004   0.002  0.00  0.00    +0.006 C 
ATOM     11  C   UNL     1      -1.433  -0.534   0.013  0.00  0.00    +0.005 C 
ATOM     12  C   UNL     1      -1.413  -2.063   0.004  0.00  0.00    +0.000 C 
ATOM     13  C   UNL     1      -0.673  -2.570   1.244  0.00  0.00    +0.002 C 
ATOM     14  C   UNL     1       0.763  -2.041   1.233  0.00  0.00    +0.022 C 
ATOM     15  C   UNL     1       0.742  -0.511   1.242  0.00  0.00    +0.077 C 
ENDBRANCH   1  15
BRANCH   5  16
ATOM     16  C   UNL     1       0.083   1.145   7.106  0.00  0.00    +0.181 C 
BRANCH  16  17
ATOM     17  N   UNL     1       1.037   1.202   8.222  0.00  0.00    -0.294 NA
ATOM     18  C   UNL     1       1.504  -0.143   8.583  0.00  0.00    +0.083 C 
ATOM     19  C   UNL     1       2.600  -0.035   9.646  0.00  0.00    +0.000 C 
ATOM     20  C   UNL     1       2.041   0.680  10.879  0.00  0.00    -0.066 C 
ATOM     21  C   UNL     1       1.518   2.058  10.466  0.00  0.00    +0.000 C 
ATOM     22  C   UNL     1       0.453   1.890   9.380  0.00  0.00    +0.083 C 
BRANCH  20  23
ATOM     23  N   UNL     1       3.105   0.838  11.879  0.00  0.00    +0.382 N 
ATOM     24  C   UNL     1       2.558   1.452  13.116  0.00  0.00    -0.079 C 
ATOM     25  C   UNL     1       3.584   1.039  14.201  0.00  0.00    -0.020 C 
ATOM     26  C   UNL     1       3.971  -0.398  13.781  0.00  0.00    -0.020 C 
ATOM     27  C   UNL     1       3.626  -0.486  12.283  0.00  0.00    -0.079 C 
ATOM     28  H   UNL     1       3.850   1.407  11.508  0.00  0.00    -0.081 HD
ENDBRANCH  20  23
ENDBRANCH  16  17
ENDBRANCH   5  16
TORSDOF 4
