REMARK  Name = ZINC36288408
REMARK  8 active torsions:
REMARK  status: ('A' for Active; 'I' for Inactive)
REMARK    1  A    between atoms: C_1  and  C_2
REMARK    2  A    between atoms: C_2  and  C_3
REMARK    3  A    between atoms: C_3  and  S_4
REMARK    4  A    between atoms: S_4  and  N_7
REMARK    5  A    between atoms: C_10  and  C_14
REMARK    6  A    between atoms: C_11  and  C_13
REMARK    7  A    between atoms: C_17  and  C_19
REMARK    8  A    between atoms: C_19  and  N_20
REMARK                            x       y       z     vdW  Elec       q    Type
REMARK                         _______ _______ _______ _____ _____    ______ ____
ROOT
ATOM      1  N   UNL     1       1.586  -2.747   2.607  0.00  0.00    -0.108 NA
ATOM      2  C   UNL     1       1.776  -4.010   2.895  0.00  0.00    +0.192 A 
ATOM      3  N   UNL     1       2.418  -4.569   3.978  0.00  0.00    -0.332 N 
ATOM      4  C   UNL     1       2.493  -5.936   4.062  0.00  0.00    +0.065 A 
ATOM      5  C   UNL     1       1.940  -6.694   3.091  0.00  0.00    +0.015 A 
ATOM      6  S   UNL     1       1.266  -5.462   1.989  0.00  0.00    -0.053 S 
ATOM      7  C   UNL     1       1.898  -8.196   2.972  0.00  0.00    +0.054 C 
ATOM      8  H   UNL     1       2.810  -4.008   4.666  0.00  0.00    +0.168 HD
ENDROOT
BRANCH   4   9
ATOM      9  C   UNL     1       3.171  -6.572   5.205  0.00  0.00    +0.036 A 
ATOM     10  C   UNL     1       3.783  -5.986   6.283  0.00  0.00    +0.018 A 
ATOM     11  C   UNL     1       4.357  -6.796   7.239  0.00  0.00    +0.010 A 
ATOM     12  C   UNL     1       4.300  -8.143   7.085  0.00  0.00    -0.027 A 
ATOM     13  S   UNL     1       3.405  -8.309   5.549  0.00  0.00    -0.094 S 
BRANCH  12  14
ATOM     14  C   UNL     1       4.848  -9.223   7.983  0.00  0.00    -0.043 C 
BRANCH  14  15
ATOM     15  N   UNL     1       3.828  -9.602   8.970  0.00  0.00    +0.381 N 
ATOM     16  H   UNL     1       3.009  -9.946   8.492  0.00  0.00    -0.090 HD
ATOM     17  H   UNL     1       4.195 -10.325   9.571  0.00  0.00    -0.090 HD
ATOM     18  H   UNL     1       3.581  -8.797   9.525  0.00  0.00    -0.090 HD
ENDBRANCH  14  15
ENDBRANCH  12  14
ENDBRANCH   4   9
BRANCH   1  19
ATOM     19  S   UNL     1       0.767  -2.325   1.232  0.00  0.00    +0.072 S 
ATOM     20  O   UNL     1      -0.547  -2.833   1.421  0.00  0.00    -0.152 OA
ATOM     21  O   UNL     1       1.580  -2.797   0.166  0.00  0.00    -0.152 OA
BRANCH  19  22
ATOM     22  C   UNL     1       0.742  -0.511   1.242  0.00  0.00    +0.193 C 
BRANCH  22  24
ATOM     23  C   UNL     1      -0.019   1.526   0.010  0.00  0.00    +0.005 C 
ATOM     24  C   UNL     1       0.002  -0.004   0.002  0.00  0.00    +0.021 C 
ENDBRANCH  22  24
ENDBRANCH  19  22
ENDBRANCH   1  19
TORSDOF 6
