REMARK  Name = ZINC36093648
REMARK  8 active torsions:
REMARK  status: ('A' for Active; 'I' for Inactive)
REMARK    1  A    between atoms: C_1  and  N_2
REMARK    2  A    between atoms: C_10  and  O_34
REMARK    3  A    between atoms: C_12  and  C_15
REMARK    4  A    between atoms: C_18  and  O_23
REMARK    5  A    between atoms: C_19  and  O_21
REMARK    6  A    between atoms: O_21  and  C_22
REMARK    7  A    between atoms: O_23  and  C_24
REMARK    8  A    between atoms: C_24  and  C_26
REMARK                            x       y       z     vdW  Elec       q    Type
REMARK                         _______ _______ _______ _____ _____    ______ ____
ROOT
ATOM      1  C   UNL     1       1.341  -7.077   0.107  0.00  0.00    -0.002 A 
ATOM      2  C   UNL     1       2.668  -6.860   0.429  0.00  0.00    +0.011 A 
ATOM      3  C   UNL     1       3.653  -7.051  -0.522  0.00  0.00    +0.050 A 
ATOM      4  C   UNL     1       3.312  -7.461  -1.801  0.00  0.00    +0.173 A 
ATOM      5  C   UNL     1       1.976  -7.680  -2.124  0.00  0.00    +0.163 A 
ATOM      6  C   UNL     1       0.994  -7.492  -1.165  0.00  0.00    +0.056 A 
ENDROOT
BRANCH   1  18
ATOM      7  C   UNL     1      -0.196   1.424  -0.143  0.00  0.00    -0.096 C 
ATOM      8  N   UNL     1      -0.148  -0.044  -0.128  0.00  0.00    +0.381 N 
ATOM      9  C   UNL     1      -1.517  -0.578  -0.116  0.00  0.00    -0.074 C 
ATOM     10  C   UNL     1      -1.501  -2.081  -0.414  0.00  0.00    +0.018 C 
ATOM     11  C   UNL     1      -0.512  -2.737   0.540  0.00  0.00    -0.027 A 
ATOM     12  C   UNL     1       0.404  -1.981   1.192  0.00  0.00    -0.021 A 
ATOM     13  S   UNL     1       1.322  -3.134   2.173  0.00  0.00    -0.080 S 
ATOM     14  C   UNL     1       0.547  -4.536   1.745  0.00  0.00    +0.080 A 
ATOM     15  C   UNL     1      -0.449  -4.154   0.837  0.00  0.00    +0.067 A 
ATOM     16  C   UNL     1      -1.324  -5.223   0.291  0.00  0.00    +0.220 C 
ATOM     17  N   UNL     1      -0.962  -6.462   0.487  0.00  0.00    -0.223 NA
ATOM     18  C   UNL     1       0.272  -6.867   1.148  0.00  0.00    +0.224 C 
ATOM     19  N   UNL     1       0.732  -5.850   2.111  0.00  0.00    -0.313 N 
ATOM     20  C   UNL     1       0.571  -0.500   1.076  0.00  0.00    -0.036 C 
ATOM     21  H   UNL     1       1.142  -6.094   2.955  0.00  0.00    +0.149 HD
ATOM     22  H   UNL     1       0.333  -0.373  -0.952  0.00  0.00    -0.082 HD
BRANCH  16  23
ATOM     23  O   UNL     1      -2.457  -4.923  -0.386  0.00  0.00    -0.492 OA
ATOM     24  H   UNL     1      -2.947  -5.697  -0.695  0.00  0.00    +0.294 HD
ENDBRANCH  16  23
ENDBRANCH   1  18
BRANCH   5  25
ATOM     25  O   UNL     1       1.635  -8.083  -3.378  0.00  0.00    -0.491 OA
ATOM     26  C   UNL     1       0.245  -8.288  -3.638  0.00  0.00    +0.277 C 
ENDBRANCH   5  25
BRANCH   4  27
ATOM     27  O   UNL     1       4.279  -7.650  -2.737  0.00  0.00    -0.419 OA
BRANCH  27  28
ATOM     28  C   UNL     1       4.499  -6.662  -3.627  0.00  0.00    +0.346 C 
ATOM     29  O   UNL     1       3.911  -5.605  -3.519  0.00  0.00    -0.244 OA
BRANCH  28  30
ATOM     30  C   UNL     1       5.453  -6.866  -4.735  0.00  0.00    +0.078 A 
ATOM     31  C   UNL     1       6.126  -8.083  -4.866  0.00  0.00    +0.018 A 
ATOM     32  C   UNL     1       7.016  -8.267  -5.902  0.00  0.00    +0.021 A 
ATOM     33  C   UNL     1       7.244  -7.248  -6.814  0.00  0.00    +0.042 A 
ATOM     34  C   UNL     1       6.582  -6.039  -6.690  0.00  0.00    +0.040 A 
ATOM     35  C   UNL     1       5.683  -5.843  -5.660  0.00  0.00    +0.056 A 
ATOM     36 CL   UNL     1       4.846  -4.330  -5.511  0.00  0.00    -0.083 Cl
ATOM     37 CL   UNL     1       8.367  -7.488  -8.116  0.00  0.00    -0.083 Cl
ENDBRANCH  28  30
ENDBRANCH  27  28
ENDBRANCH   4  27
TORSDOF 6
