REMARK  Name = ZINC61812656
REMARK  4 active torsions:
REMARK  status: ('A' for Active; 'I' for Inactive)
REMARK    1  A    between atoms: C_4  and  C_16
REMARK    2  A    between atoms: C_6  and  N_7
REMARK    3  A    between atoms: N_7  and  C_8
REMARK    4  A    between atoms: C_16  and  N_18
REMARK                            x       y       z     vdW  Elec       q    Type
REMARK                         _______ _______ _______ _____ _____    ______ ____
ROOT
ATOM      1  C   UNL     1      -0.017   1.390   0.010  0.00  0.00    +0.040 A 
ATOM      2  C   UNL     1       1.179   2.083   0.002  0.00  0.00    +0.085 A 
ATOM      3  N   UNL     1       2.332   1.446  -0.012  0.00  0.00    -0.359 N 
ATOM      4  C   UNL     1       2.398   0.118  -0.021  0.00  0.00    +0.069 A 
ATOM      5  C   UNL     1       1.238  -0.649  -0.014  0.00  0.00    +0.051 A 
ATOM      6  C   UNL     1       0.002  -0.004   0.002  0.00  0.00    +0.031 A 
ATOM      7  H   UNL     1       3.154   1.959  -0.018  0.00  0.00    +0.165 HD
ENDROOT
BRANCH   6   8
ATOM      8  N   UNL     1      -1.183  -0.734   0.010  0.00  0.00    -0.341 N 
ATOM      9  H   UNL     1      -1.156  -1.703   0.004  0.00  0.00    +0.146 HD
BRANCH   8  10
ATOM     10  C   UNL     1      -2.472  -0.037   0.026  0.00  0.00    +0.073 C 
ATOM     11  C   UNL     1      -2.826   0.332   1.464  0.00  0.00    +0.045 C 
ATOM     12  C   UNL     1      -4.021   1.287   1.480  0.00  0.00    +0.167 C 
ATOM     13  S   UNL     1      -5.466   0.433   0.782  0.00  0.00    -0.031 S 
ATOM     14  O   UNL     1      -6.485   1.393   0.540  0.00  0.00    -0.174 OA
ATOM     15  O   UNL     1      -5.757  -0.697   1.592  0.00  0.00    -0.174 OA
ATOM     16  C   UNL     1      -4.827  -0.147  -0.817  0.00  0.00    +0.167 C 
ATOM     17  C   UNL     1      -3.541  -0.943  -0.577  0.00  0.00    +0.045 C 
ENDBRANCH   8  10
ENDBRANCH   6   8
BRANCH   4  18
ATOM     18  C   UNL     1       3.718  -0.549  -0.038  0.00  0.00    +0.093 C 
ATOM     19  S   UNL     1       3.942  -2.024   0.802  0.00  0.00    -0.034 S 
BRANCH  18  20
ATOM     20  N   UNL     1       4.744   0.004  -0.715  0.00  0.00    -0.351 N 
ATOM     21  H   UNL     1       4.617   0.840  -1.190  0.00  0.00    +0.143 HD
ATOM     22  H   UNL     1       5.609  -0.434  -0.726  0.00  0.00    +0.143 HD
ENDBRANCH  18  20
ENDBRANCH   4  18
TORSDOF 4
