REMARK  Name = ZINC37194510
REMARK  3 active torsions:
REMARK  status: ('A' for Active; 'I' for Inactive)
REMARK    1  A    between atoms: C_3  and  S_9
REMARK    2  A    between atoms: C_6  and  N_7
REMARK    3  A    between atoms: S_9  and  C_10
REMARK                            x       y       z     vdW  Elec       q    Type
REMARK                         _______ _______ _______ _____ _____    ______ ____
ROOT
ATOM      1  C   UNL     1      -0.017   1.384   0.010  0.00  0.00    +0.024 A 
ATOM      2  C   UNL     1       1.170   2.092   0.002  0.00  0.00    +0.019 A 
ATOM      3  C   UNL     1       2.382   1.416  -0.013  0.00  0.00    +0.044 A 
ATOM      4  C   UNL     1       2.401   0.024  -0.021  0.00  0.00    +0.138 A 
ATOM      5  C   UNL     1       1.214  -0.683  -0.013  0.00  0.00    +0.062 A 
ATOM      6  C   UNL     1       0.002  -0.004   0.002  0.00  0.00    +0.027 A 
ATOM      7  F   UNL     1       3.581  -0.635  -0.036  0.00  0.00    -0.204 F 
ENDROOT
BRANCH   6   8
ATOM      8  N   UNL     1      -1.201  -0.720   0.010  0.00  0.00    -0.358 N 
ATOM      9  H   UNL     1      -2.047  -0.246   0.020  0.00  0.00    +0.142 HD
ATOM     10  H   UNL     1      -1.188  -1.690   0.004  0.00  0.00    +0.142 HD
ENDBRANCH   6   8
BRANCH   3  11
ATOM     11  S   UNL     1       3.895   2.318  -0.023  0.00  0.00    -0.108 S 
BRANCH  11  12
ATOM     12  C   UNL     1       3.370   4.055  -0.009  0.00  0.00    +0.163 C 
ATOM     13  C   UNL     1       4.601   4.994   0.060  0.00  0.00    +0.067 C 
ATOM     14  C   UNL     1       4.185   6.091  -0.956  0.00  0.00    +0.234 C 
ATOM     15  O   UNL     1       3.459   5.341  -1.953  0.00  0.00    -0.464 OA
ATOM     16  C   UNL     1       2.701   4.419  -1.321  0.00  0.00    +0.321 C 
ATOM     17  O   UNL     1       1.663   3.958  -1.732  0.00  0.00    -0.250 OA
ENDBRANCH  11  12
ENDBRANCH   3  11
TORSDOF 3
