REMARK  Name = ZINC11027537
REMARK  7 active torsions:
REMARK  status: ('A' for Active; 'I' for Inactive)
REMARK    1  A    between atoms: C_1  and  C_2
REMARK    2  A    between atoms: C_4  and  N_24
REMARK    3  A    between atoms: N_11  and  S_14
REMARK    4  A    between atoms: S_14  and  C_17
REMARK    5  A    between atoms: N_24  and  C_25
REMARK    6  A    between atoms: C_28  and  O_31
REMARK    7  A    between atoms: O_31  and  C_32
REMARK                            x       y       z     vdW  Elec       q    Type
REMARK                         _______ _______ _______ _____ _____    ______ ____
ROOT
ATOM      1  C   UNL     1      -1.331  -4.528  -0.190  0.00  0.00    +0.066 C 
ATOM      2  C   UNL     1      -0.269  -3.818   0.610  0.00  0.00    +0.045 A 
ATOM      3  C   UNL     1       0.418  -4.486   1.606  0.00  0.00    +0.067 A 
ATOM      4  C   UNL     1       1.393  -3.790   2.323  0.00  0.00    +0.128 A 
ATOM      5  N   UNL     1       1.630  -2.517   2.023  0.00  0.00    -0.199 NA
ATOM      6  C   UNL     1       0.946  -1.912   1.064  0.00  0.00    +0.220 A 
ATOM      7  N   UNL     1       0.015  -2.547   0.367  0.00  0.00    -0.219 NA
ATOM      8  N   UNL     1       1.213  -0.585   0.779  0.00  0.00    -0.297 N 
ATOM      9  C   UNL     1       0.360  -0.098  -0.314  0.00  0.00    +0.125 C 
ATOM     10  C   UNL     1       0.556   1.413  -0.476  0.00  0.00    +0.128 C 
ATOM     11  N   UNL     1       1.992   1.682  -0.642  0.00  0.00    -0.174 NA
ATOM     12  C   UNL     1       2.926   1.110   0.340  0.00  0.00    +0.128 C 
ATOM     13  C   UNL     1       2.636  -0.389   0.471  0.00  0.00    +0.125 C 
ENDROOT
BRANCH  11  14
ATOM     14  S   UNL     1       2.544   2.606  -1.901  0.00  0.00    +0.061 S 
ATOM     15  O   UNL     1       3.897   2.231  -2.118  0.00  0.00    -0.153 OA
ATOM     16  O   UNL     1       1.559   2.529  -2.923  0.00  0.00    -0.153 OA
BRANCH  14  17
ATOM     17  C   UNL     1       2.567   4.279  -1.349  0.00  0.00    +0.106 A 
ATOM     18  C   UNL     1       1.455   5.080  -1.525  0.00  0.00    +0.029 A 
ATOM     19  C   UNL     1       1.471   6.391  -1.087  0.00  0.00    +0.017 A 
ATOM     20  C   UNL     1       2.605   6.905  -0.483  0.00  0.00    +0.018 A 
ATOM     21  C   UNL     1       3.720   6.104  -0.312  0.00  0.00    +0.017 A 
ATOM     22  C   UNL     1       3.701   4.792  -0.745  0.00  0.00    +0.029 A 
ATOM     23 BR   UNL     1       2.630   8.700   0.110  0.00  0.00    -0.050 Br
ENDBRANCH  14  17
ENDBRANCH  11  14
BRANCH   4  24
ATOM     24  N   UNL     1       2.107  -4.419   3.331  0.00  0.00    -0.299 N 
ATOM     25  H   UNL     1       1.994  -5.370   3.485  0.00  0.00    +0.154 HD
BRANCH  24  26
ATOM     26  C   UNL     1       2.992  -3.682   4.128  0.00  0.00    +0.033 A 
ATOM     27  C   UNL     1       4.172  -4.262   4.574  0.00  0.00    +0.027 A 
ATOM     28  C   UNL     1       5.046  -3.532   5.356  0.00  0.00    +0.047 A 
ATOM     29  C   UNL     1       4.741  -2.224   5.703  0.00  0.00    +0.120 A 
ATOM     30  C   UNL     1       3.559  -1.647   5.262  0.00  0.00    +0.047 A 
ATOM     31  C   UNL     1       2.687  -2.373   4.476  0.00  0.00    +0.027 A 
BRANCH  29  32
ATOM     32  O   UNL     1       5.600  -1.508   6.477  0.00  0.00    -0.495 OA
ATOM     33  C   UNL     1       6.797  -2.166   6.896  0.00  0.00    +0.277 C 
ENDBRANCH  29  32
ENDBRANCH  24  26
ENDBRANCH   4  24
TORSDOF 5
