REMARK  Name = ZINC05337255
REMARK  7 active torsions:
REMARK  status: ('A' for Active; 'I' for Inactive)
REMARK    1  A    between atoms: C_1  and  C_2
REMARK    2  A    between atoms: C_5  and  N_22
REMARK    3  A    between atoms: C_6  and  C_8
REMARK    4  A    between atoms: C_12  and  O_20
REMARK    5  A    between atoms: C_13  and  O_18
REMARK    6  A    between atoms: O_18  and  C_19
REMARK    7  A    between atoms: O_20  and  C_21
REMARK                            x       y       z     vdW  Elec       q    Type
REMARK                         _______ _______ _______ _____ _____    ______ ____
ROOT
ATOM      1  C   UNL     1      -2.513   0.978   0.019  0.00  0.00    -0.008 C 
ATOM      2  C   UNL     1      -3.010   0.838  -1.396  0.00  0.00    -0.050 A 
ATOM      3  C   UNL     1      -2.926   1.940  -2.236  0.00  0.00    +0.052 A 
ATOM      4  C   UNL     1      -3.373   1.860  -3.542  0.00  0.00    +0.162 A 
ATOM      5  C   UNL     1      -3.911   0.667  -4.016  0.00  0.00    +0.162 A 
ATOM      6  C   UNL     1      -3.992  -0.429  -3.175  0.00  0.00    +0.053 A 
ATOM      7  C   UNL     1      -3.540  -0.345  -1.867  0.00  0.00    -0.044 A 
ATOM      8  C   UNL     1      -3.641  -1.569  -0.993  0.00  0.00    +0.016 C 
ATOM      9  C   UNL     1      -3.494  -1.175   0.477  0.00  0.00    -0.077 C 
ATOM     10  N   UNL     1      -2.285  -0.343   0.621  0.00  0.00    +0.387 N 
ATOM     11  H   UNL     1      -2.066  -0.230   1.617  0.00  0.00    -0.085 HD
ATOM     12  H   UNL     1      -1.498  -0.801   0.147  0.00  0.00    -0.085 HD
ENDROOT
BRANCH   1  18
ATOM     13  C   UNL     1       2.489   1.044  -0.016  0.00  0.00    +0.044 C 
ATOM     14  C   UNL     1       1.176   1.783   0.000  0.00  0.00    -0.050 A 
ATOM     15  C   UNL     1       1.161   3.166   0.008  0.00  0.00    +0.005 A 
ATOM     16  C   UNL     1      -0.040   3.845   0.024  0.00  0.00    +0.023 A 
ATOM     17  C   UNL     1      -1.236   3.138   0.031  0.00  0.00    +0.026 A 
ATOM     18  C   UNL     1      -1.218   1.749   0.017  0.00  0.00    -0.036 A 
ATOM     19  C   UNL     1      -0.013   1.076   0.008  0.00  0.00    +0.007 A 
BRANCH  17  20
ATOM     20  N   UNL     1      -2.454   3.822   0.046  0.00  0.00    -0.358 N 
ATOM     21  H   UNL     1      -2.465   4.792   0.052  0.00  0.00    +0.142 HD
ATOM     22  H   UNL     1      -3.288   3.328   0.051  0.00  0.00    +0.142 HD
ENDBRANCH  17  20
ENDBRANCH   1  18
BRANCH   5  23
ATOM     23  O   UNL     1      -4.355   0.579  -5.298  0.00  0.00    -0.491 OA
ATOM     24  C   UNL     1      -4.894  -0.678  -5.713  0.00  0.00    +0.277 C 
ENDBRANCH   5  23
BRANCH   4  25
ATOM     25  O   UNL     1      -3.287   2.943  -4.361  0.00  0.00    -0.491 OA
ATOM     26  C   UNL     1      -2.723   4.133  -3.805  0.00  0.00    +0.277 C 
ENDBRANCH   4  25
TORSDOF 4
