REMARK  Name = ZINC20477889
REMARK  4 active torsions:
REMARK  status: ('A' for Active; 'I' for Inactive)
REMARK    1  A    between atoms: C_10  and  N_11
REMARK    2  A    between atoms: C_20  and  C_22
REMARK    3  A    between atoms: C_22  and  S_23
REMARK    4  A    between atoms: S_23  and  C_24
REMARK                            x       y       z     vdW  Elec       q    Type
REMARK                         _______ _______ _______ _____ _____    ______ ____
ROOT
ATOM      1  N   UNL     1      -3.607  -0.569  -0.248  0.00  0.00    -0.327 N 
ATOM      2  C   UNL     1      -2.600  -0.079   0.551  0.00  0.00    +0.180 C 
ATOM      3  N   UNL     1      -2.708   1.105   1.082  0.00  0.00    -0.371 N 
ATOM      4  N   UNL     1      -1.475  -0.843   0.790  0.00  0.00    -0.298 N 
ATOM      5  C   UNL     1      -0.469  -0.354   1.588  0.00  0.00    +0.212 A 
ATOM      6  N   UNL     1       0.634  -1.116   1.815  0.00  0.00    -0.175 NA
ATOM      7  C   UNL     1       1.627  -0.642   2.597  0.00  0.00    +0.275 A 
ATOM      8  O   UNL     1       2.624  -1.312   2.811  0.00  0.00    -0.266 OA
ATOM      9  C   UNL     1       1.490   0.639   3.161  0.00  0.00    +0.094 A 
ATOM     10  C   UNL     1       0.360   1.358   2.898  0.00  0.00    +0.034 A 
ATOM     11  N   UNL     1      -0.590   0.846   2.119  0.00  0.00    -0.328 N 
ATOM     12  H   UNL     1      -3.565  -1.606  -0.613  0.00  0.00    +0.169 HD
ATOM     13  H   UNL     1      -1.902   1.497   1.721  0.00  0.00    +0.159 HD
ATOM     14  H   UNL     1      -1.384  -1.843   0.341  0.00  0.00    +0.172 HD
ATOM     15  H   UNL     1      -3.604   1.714   0.892  0.00  0.00    +0.159 HD
ATOM     16  H   UNL     1      -1.491   1.446   1.923  0.00  0.00    +0.168 HD
ENDROOT
BRANCH   1  26
ATOM     17  C   UNL     1      -8.521  -1.337  -1.110  0.00  0.00    +0.001 A 
ATOM     18  C   UNL     1      -7.460  -2.172  -0.763  0.00  0.00    +0.001 A 
ATOM     19  C   UNL     1      -6.205  -1.675  -0.592  0.00  0.00    +0.010 A 
ATOM     20  C   UNL     1      -5.970  -0.302  -0.770  0.00  0.00    +0.006 A 
ATOM     21  C   UNL     1      -7.048   0.548  -1.119  0.00  0.00    -0.016 A 
ATOM     22  C   UNL     1      -8.331  -0.001  -1.288  0.00  0.00    +0.008 A 
ATOM     23  C   UNL     1      -6.816   1.923  -1.293  0.00  0.00    +0.008 A 
ATOM     24  C   UNL     1      -5.563   2.428  -1.123  0.00  0.00    +0.003 A 
ATOM     25  C   UNL     1      -4.497   1.603  -0.776  0.00  0.00    +0.026 A 
ATOM     26  C   UNL     1      -4.683   0.249  -0.595  0.00  0.00    +0.050 A 
ENDBRANCH   1  26
BRANCH  10  27
ATOM     27  C   UNL     1       0.189   2.733   3.489  0.00  0.00    +0.129 C 
BRANCH  27  28
ATOM     28  S   UNL     1       0.455   3.980   2.204  0.00  0.00    -0.093 S 
BRANCH  28  29
ATOM     29  C   UNL     1       0.200   5.448   3.144  0.00  0.00    +0.136 A 
ATOM     30  N   UNL     1       0.260   6.700   2.750  0.00  0.00    -0.233 NA
ATOM     31  C   UNL     1       0.039   7.736   3.589  0.00  0.00    +0.079 A 
ATOM     32  C   UNL     1       0.071   9.119   3.296  0.00  0.00    +0.029 A 
ATOM     33  C   UNL     1      -0.180  10.048   4.272  0.00  0.00    +0.002 A 
ATOM     34  C   UNL     1      -0.472   9.669   5.574  0.00  0.00    +0.001 A 
ATOM     35  C   UNL     1      -0.512   8.325   5.896  0.00  0.00    +0.017 A 
ATOM     36  C   UNL     1      -0.263   7.388   4.926  0.00  0.00    +0.040 A 
ATOM     37  S   UNL     1      -0.213   5.613   4.875  0.00  0.00    -0.061 S 
ENDBRANCH  28  29
ENDBRANCH  27  28
ENDBRANCH  10  27
TORSDOF 4
