REMARK  Name = ZINC62789059
REMARK  3 active torsions:
REMARK  status: ('A' for Active; 'I' for Inactive)
REMARK    1  A    between atoms: C_3  and  O_8
REMARK    2  A    between atoms: O_8  and  C_9
REMARK    3  A    between atoms: C_14  and  C_15
REMARK                            x       y       z     vdW  Elec       q    Type
REMARK                         _______ _______ _______ _____ _____    ______ ____
ROOT
ATOM      1  C   UNL     1       4.716   1.396   0.178  0.00  0.00    +0.140 A 
ATOM      2  C   UNL     1       4.702   0.009   0.157  0.00  0.00    +0.067 A 
ATOM      3  C   UNL     1       5.891  -0.695   0.127  0.00  0.00    +0.044 A 
ATOM      4  C   UNL     1       7.104  -0.022   0.119  0.00  0.00    +0.021 A 
ATOM      5  C   UNL     1       7.134   1.355   0.140  0.00  0.00    +0.016 A 
ATOM      6  C   UNL     1       5.940   2.078   0.164  0.00  0.00    +0.054 A 
ATOM      7 CL   UNL     1       5.866  -2.430   0.102  0.00  0.00    -0.083 Cl
ENDROOT
BRANCH   6   8
ATOM      8  C   UNL     1       5.966   3.554   0.179  0.00  0.00    +0.098 C 
ATOM      9  N   UNL     1       6.647   4.199   1.127  0.00  0.00    -0.387 N 
ATOM     10  N   UNL     1       5.310   4.243  -0.754  0.00  0.00    -0.344 N 
ATOM     11  H   UNL     1       6.731   5.164   1.093  0.00  0.00    +0.157 HD
ATOM     12  H   UNL     1       4.815   3.774  -1.444  0.00  0.00    +0.144 HD
ATOM     13  H   UNL     1       5.327   5.212  -0.744  0.00  0.00    +0.144 HD
ATOM     14  H   UNL     1       7.058   3.702   1.852  0.00  0.00    +0.157 HD
ENDBRANCH   6   8
BRANCH   1  15
ATOM     15  O   UNL     1       3.550   2.088   0.206  0.00  0.00    -0.455 OA
BRANCH  15  18
ATOM     16  C   UNL     1       0.738   0.117  -0.995  0.00  0.00    +0.005 A 
ATOM     17  C   UNL     1       1.919   0.834  -0.987  0.00  0.00    +0.046 A 
ATOM     18  C   UNL     1       2.389   1.383   0.197  0.00  0.00    +0.130 A 
ATOM     19  C   UNL     1       1.671   1.210   1.372  0.00  0.00    +0.061 A 
ATOM     20  C   UNL     1       0.490   0.492   1.360  0.00  0.00    +0.021 A 
ATOM     21  C   UNL     1       0.024  -0.054   0.177  0.00  0.00    +0.015 A 
ATOM     22 BR   UNL     1      -0.489   0.256   2.960  0.00  0.00    -0.050 Br
ENDBRANCH  15  18
ENDBRANCH   1  15
TORSDOF 3
