REMARK  Name = ZINC31934787
REMARK  5 active torsions:
REMARK  status: ('A' for Active; 'I' for Inactive)
REMARK    1  A    between atoms: C_1  and  C_2
REMARK    2  A    between atoms: C_15  and  C_17
REMARK    3  A    between atoms: C_17  and  N_18
REMARK    4  A    between atoms: N_18  and  C_19
REMARK    5  A    between atoms: C_19  and  C_20
REMARK                            x       y       z     vdW  Elec       q    Type
REMARK                         _______ _______ _______ _____ _____    ______ ____
ROOT
ATOM      1  C   UNL     1      -3.681  -0.947  -0.055  0.00  0.00    +0.008 C 
ATOM      2  C   UNL     1      -2.430  -0.117  -0.353  0.00  0.00    -0.009 C 
ATOM      3  C   UNL     1      -2.447   1.159   0.493  0.00  0.00    +0.008 C 
ATOM      4  C   UNL     1      -1.342   2.106   0.020  0.00  0.00    +0.037 C 
ATOM      5  C   UNL     1      -0.016   1.350   0.009  0.00  0.00    -0.023 A 
ATOM      6  C   UNL     1       0.002  -0.004   0.002  0.00  0.00    -0.004 A 
ATOM      7  S   UNL     1       1.722  -0.445  -0.016  0.00  0.00    -0.073 S 
ATOM      8  C   UNL     1       2.409   1.180  -0.015  0.00  0.00    +0.116 A 
ATOM      9  C   UNL     1       1.272   2.018   0.001  0.00  0.00    +0.075 A 
ATOM     10  C   UNL     1       1.508   3.434   0.006  0.00  0.00    +0.260 A 
ATOM     11  O   UNL     1       0.596   4.243   0.019  0.00  0.00    -0.267 OA
ATOM     12  N   UNL     1       2.807   3.814  -0.005  0.00  0.00    -0.312 N 
ATOM     13  H   UNL     1       3.068   4.883  -0.001  0.00  0.00    +0.170 HD
ATOM     14  C   UNL     1       3.835   2.932  -0.020  0.00  0.00    +0.094 A 
ATOM     15  N   UNL     1       3.661   1.629  -0.025  0.00  0.00    -0.229 NA
ATOM     16  C   UNL     1      -1.177  -0.927   0.007  0.00  0.00    +0.046 C 
ENDROOT
BRANCH  14  17
ATOM     17  C   UNL     1       5.244   3.469  -0.032  0.00  0.00    -0.007 C 
BRANCH  17  18
ATOM     18  N   UNL     1       6.194   2.349  -0.047  0.00  0.00    +0.385 N 
ATOM     19  H   UNL     1       6.045   1.730   0.850  0.00  0.00    -0.085 HD
ATOM     20  H   UNL     1       6.027   1.738  -0.946  0.00  0.00    -0.085 HD
BRANCH  18  21
ATOM     21  C   UNL     1       7.580   2.836  -0.058  0.00  0.00    -0.050 C 
BRANCH  21  22
ATOM     22  C   UNL     1       8.539   1.643  -0.074  0.00  0.00    +0.101 C 
ATOM     23  C   UNL     1      10.002   2.128   0.040  0.00  0.00    +0.032 C 
ATOM     24  C   UNL     1      10.788   1.168  -0.880  0.00  0.00    +0.030 C 
ATOM     25  C   UNL     1       9.708   0.217  -1.442  0.00  0.00    +0.160 C 
ATOM     26  O   UNL     1       8.474   0.962  -1.346  0.00  0.00    -0.378 OA
ENDBRANCH  21  22
ENDBRANCH  18  21
ENDBRANCH  17  18
ENDBRANCH  14  17
TORSDOF 4
