REMARK  Name = ZINC65403960
REMARK  8 active torsions:
REMARK  status: ('A' for Active; 'I' for Inactive)
REMARK    1  A    between atoms: C_1  and  C_2
REMARK    2  A    between atoms: C_5  and  C_25
REMARK    3  A    between atoms: C_6  and  C_14
REMARK    4  A    between atoms: C_11  and  C_13
REMARK    5  A    between atoms: N_16  and  C_17
REMARK    6  A    between atoms: C_17  and  C_18
REMARK    7  A    between atoms: C_18  and  S_19
REMARK    8  A    between atoms: S_19  and  C_20
REMARK                            x       y       z     vdW  Elec       q    Type
REMARK                         _______ _______ _______ _____ _____    ______ ____
ROOT
ATOM      1  C   UNL     1      -0.018   1.503   0.010  0.00  0.00    +0.044 C 
ATOM      2  C   UNL     1       0.002  -0.004   0.002  0.00  0.00    -0.050 C 
ATOM      3  C   UNL     1      -1.171  -0.703   0.004  0.00  0.00    +0.005 C 
ATOM      4  C   UNL     1      -0.990  -2.165   0.049  0.00  0.00    -0.059 C 
ATOM      5  C   UNL     1      -1.707  -3.128  -0.487  0.00  0.00    -0.076 C 
ATOM      6  C   UNL     1      -1.029  -4.456  -0.255  0.00  0.00    +0.044 C 
ATOM      7  N   UNL     1       0.234  -4.181   0.460  0.00  0.00    +0.396 N 
ATOM      8  C   UNL     1       0.189  -2.760   0.800  0.00  0.00    -0.013 C 
ATOM      9  C   UNL     1       1.407  -1.996   0.358  0.00  0.00    -0.082 C 
ATOM     10  C   UNL     1       1.278  -0.719  -0.014  0.00  0.00    +0.001 C 
ATOM     11  C   UNL     1       2.757  -2.665   0.328  0.00  0.00    +0.037 C 
ATOM     12  C   UNL     1      -3.009  -2.934  -1.222  0.00  0.00    +0.038 C 
ATOM     13  H   UNL     1       0.289  -4.739   1.299  0.00  0.00    -0.083 HD
ATOM     14  H   UNL     1       1.023  -4.372  -0.140  0.00  0.00    -0.083 HD
ENDROOT
BRANCH   6  15
ATOM     15  C   UNL     1      -0.742  -5.124  -1.575  0.00  0.00    +0.203 C 
ATOM     16  O   UNL     1       0.403  -5.367  -1.895  0.00  0.00    -0.277 OA
ATOM     17  N   UNL     1      -1.756  -5.450  -2.400  0.00  0.00    -0.316 N 
ATOM     18  H   UNL     1      -2.671  -5.256  -2.144  0.00  0.00    +0.149 HD
BRANCH  17  19
ATOM     19  C   UNL     1      -1.476  -6.099  -3.683  0.00  0.00    +0.115 C 
BRANCH  19  20
ATOM     20  C   UNL     1      -2.791  -6.360  -4.420  0.00  0.00    +0.094 C 
BRANCH  20  21
ATOM     21  S   UNL     1      -2.445  -7.163  -6.010  0.00  0.00    -0.101 S 
BRANCH  21  22
ATOM     22  C   UNL     1      -4.037  -7.394  -6.727  0.00  0.00    +0.138 A 
ATOM     23  C   UNL     1      -4.314  -7.966  -7.928  0.00  0.00    +0.141 A 
ATOM     24  N   UNL     1      -5.670  -7.925  -8.059  0.00  0.00    -0.264 N 
ATOM     25  N   UNL     1      -6.158  -7.366  -7.008  0.00  0.00    -0.067 NA
ATOM     26  N   UNL     1      -5.216  -7.044  -6.194  0.00  0.00    -0.123 NA
ATOM     27  H   UNL     1      -6.179  -8.258  -8.815  0.00  0.00    +0.190 HD
ENDBRANCH  21  22
ENDBRANCH  20  21
ENDBRANCH  19  20
ENDBRANCH  17  19
ENDBRANCH   6  15
TORSDOF 5
