REMARK  Name = ZINC39638824
REMARK  5 active torsions:
REMARK  status: ('A' for Active; 'I' for Inactive)
REMARK    1  A    between atoms: C_5  and  C_7
REMARK    2  A    between atoms: C_7  and  C_8
REMARK    3  A    between atoms: C_8  and  N_9
REMARK    4  A    between atoms: C_10  and  C_12
REMARK    5  A    between atoms: C_23  and  C_25
REMARK                            x       y       z     vdW  Elec       q    Type
REMARK                         _______ _______ _______ _____ _____    ______ ____
ROOT
ATOM      1  C   UNL     1       1.508  -6.590   2.412  0.00  0.00    +0.100 C 
ATOM      2  C   UNL     1       2.726  -7.048   1.579  0.00  0.00    +0.121 C 
ATOM      3  N   UNL     1       3.822  -7.192   2.566  0.00  0.00    -0.296 N 
ATOM      4  C   UNL     1       3.169  -7.785   3.758  0.00  0.00    +0.115 C 
ATOM      5  C   UNL     1       1.800  -7.079   3.841  0.00  0.00    -0.004 C 
ATOM      6  C   UNL     1       0.725  -8.063   4.293  0.00  0.00    -0.010 C 
ATOM      7  C   UNL     1       1.005  -8.490   5.737  0.00  0.00    -0.082 C 
ATOM      8  N   UNL     1       1.012  -7.308   6.606  0.00  0.00    +0.379 N 
ATOM      9  C   UNL     1       2.109  -6.410   6.223  0.00  0.00    -0.082 C 
ATOM     10  C   UNL     1       1.876  -5.895   4.800  0.00  0.00    -0.010 C 
ATOM     11  C   UNL     1       5.120  -6.861   2.415  0.00  0.00    +0.247 C 
ATOM     12  O   UNL     1       5.920  -7.123   3.291  0.00  0.00    -0.270 OA
ATOM     13  H   UNL     1       0.134  -6.820   6.516  0.00  0.00    -0.086 HD
ATOM     14  H   UNL     1       1.136  -7.597   7.565  0.00  0.00    -0.086 HD
ENDROOT
BRANCH  11  15
ATOM     15  C   UNL     1       5.569  -6.179   1.184  0.00  0.00    +0.045 A 
ATOM     16  C   UNL     1       5.226  -6.695  -0.071  0.00  0.00    +0.014 A 
ATOM     17  C   UNL     1       5.643  -6.061  -1.221  0.00  0.00    +0.001 A 
ATOM     18  C   UNL     1       6.406  -4.906  -1.148  0.00  0.00    +0.012 A 
ATOM     19  C   UNL     1       6.758  -4.377   0.088  0.00  0.00    +0.031 A 
ATOM     20  C   UNL     1       6.335  -5.009   1.268  0.00  0.00    +0.006 A 
ATOM     21  C   UNL     1       6.840  -4.237   2.430  0.00  0.00    -0.006 A 
ATOM     22  C   UNL     1       6.711  -4.431   3.799  0.00  0.00    +0.009 A 
ATOM     23  C   UNL     1       7.295  -3.539   4.684  0.00  0.00    +0.001 A 
ATOM     24  C   UNL     1       8.007  -2.452   4.215  0.00  0.00    +0.001 A 
ATOM     25  C   UNL     1       8.145  -2.244   2.852  0.00  0.00    +0.012 A 
ATOM     26  C   UNL     1       7.566  -3.131   1.954  0.00  0.00    +0.030 A 
ATOM     27  C   UNL     1       7.549  -3.183   0.472  0.00  0.00    +0.194 C 
ATOM     28  O   UNL     1       8.072  -2.390  -0.284  0.00  0.00    -0.287 OA
ENDBRANCH  11  15
BRANCH   1  30
ATOM     29  N   UNL     1       0.178  -4.506   2.495  0.00  0.00    -0.315 N 
ATOM     30  C   UNL     1       1.389  -5.088   2.386  0.00  0.00    +0.218 C 
ATOM     31  O   UNL     1       2.382  -4.403   2.268  0.00  0.00    -0.275 OA
ATOM     32  H   UNL     1      -0.617  -5.054   2.590  0.00  0.00    +0.149 HD
BRANCH  29  33
ATOM     33  C   UNL     1       0.062  -3.046   2.470  0.00  0.00    +0.109 C 
BRANCH  33  34
ATOM     34  C   UNL     1      -1.409  -2.649   2.609  0.00  0.00    +0.056 C 
BRANCH  34  39
ATOM     35  C   UNL     1      -1.676   0.942   3.744  0.00  0.00    +0.000 A 
ATOM     36  C   UNL     1      -1.748   1.610   2.536  0.00  0.00    +0.003 A 
ATOM     37  C   UNL     1      -1.711   0.901   1.351  0.00  0.00    +0.038 A 
ATOM     38  C   UNL     1      -1.601  -0.479   1.373  0.00  0.00    +0.127 A 
ATOM     39  C   UNL     1      -1.528  -1.147   2.583  0.00  0.00    -0.011 A 
ATOM     40  C   UNL     1      -1.566  -0.436   3.768  0.00  0.00    +0.006 A 
ATOM     41  F   UNL     1      -1.564  -1.173   0.214  0.00  0.00    -0.205 F 
ENDBRANCH  34  39
ENDBRANCH  33  34
ENDBRANCH  29  33
ENDBRANCH   1  30
TORSDOF 5
