REMARK  Name = ZINC39674576
REMARK  9 active torsions:
REMARK  status: ('A' for Active; 'I' for Inactive)
REMARK    1  A    between atoms: C_1  and  C_2
REMARK    2  A    between atoms: C_4  and  C_9
REMARK    3  A    between atoms: C_5  and  C_8
REMARK    4  A    between atoms: C_9  and  C_11
REMARK    5  A    between atoms: C_9  and  N_12
REMARK    6  A    between atoms: C_13  and  C_15
REMARK    7  A    between atoms: C_26  and  C_28
REMARK    8  A    between atoms: C_31  and  C_35
REMARK    9  A    between atoms: N_32  and  C_34
REMARK                            x       y       z     vdW  Elec       q    Type
REMARK                         _______ _______ _______ _____ _____    ______ ____
ROOT
ATOM      1  C   UNL     1      -2.957  -1.302  -4.401  0.00  0.00    +0.100 C 
ATOM      2  C   UNL     1      -2.449  -0.042  -5.138  0.00  0.00    +0.121 C 
ATOM      3  N   UNL     1      -3.004  -0.160  -6.507  0.00  0.00    -0.299 N 
ATOM      4  C   UNL     1      -4.371  -0.696  -6.306  0.00  0.00    +0.115 C 
ATOM      5  C   UNL     1      -4.219  -1.728  -5.170  0.00  0.00    -0.004 C 
ATOM      6  C   UNL     1      -4.037  -3.127  -5.750  0.00  0.00    -0.010 C 
ATOM      7  C   UNL     1      -5.326  -3.550  -6.462  0.00  0.00    -0.082 C 
ATOM      8  N   UNL     1      -6.441  -3.535  -5.508  0.00  0.00    +0.379 N 
ATOM      9  C   UNL     1      -6.668  -2.167  -5.025  0.00  0.00    -0.082 C 
ATOM     10  C   UNL     1      -5.437  -1.685  -4.253  0.00  0.00    -0.010 C 
ATOM     11  C   UNL     1      -2.401   0.151  -7.671  0.00  0.00    +0.238 C 
ATOM     12  O   UNL     1      -2.992  -0.002  -8.720  0.00  0.00    -0.273 OA
ATOM     13  H   UNL     1      -7.276  -3.872  -5.963  0.00  0.00    -0.086 HD
ATOM     14  H   UNL     1      -6.222  -4.134  -4.726  0.00  0.00    -0.086 HD
ENDROOT
BRANCH  11  15
ATOM     15  C   UNL     1      -0.993   0.688  -7.672  0.00  0.00    +0.183 C 
ATOM     16  C   UNL     1      -0.934   2.018  -6.953  0.00  0.00    +0.022 C 
ATOM     17  C   UNL     1      -0.524   2.909  -7.833  0.00  0.00    +0.017 C 
ATOM     18  N   UNL     1      -0.297   2.339  -9.070  0.00  0.00    -0.274 N 
ATOM     19  N   UNL     1      -0.558   0.996  -9.049  0.00  0.00    -0.225 NA
ATOM     20  C   UNL     1       0.164   3.075 -10.250  0.00  0.00    +0.149 C 
ATOM     21  C   UNL     1      -0.327   4.372  -7.527  0.00  0.00    +0.061 C 
ATOM     22  H   UNL     1      -1.275   0.756  -9.717  0.00  0.00    +0.146 HD
ENDBRANCH  11  15
BRANCH   1  24
ATOM     23  N   UNL     1      -3.221  -1.924  -2.022  0.00  0.00    -0.309 N 
ATOM     24  C   UNL     1      -3.300  -0.972  -2.971  0.00  0.00    +0.219 C 
ATOM     25  O   UNL     1      -3.648   0.152  -2.676  0.00  0.00    -0.275 OA
ATOM     26  H   UNL     1      -2.942  -2.823  -2.258  0.00  0.00    +0.149 HD
BRANCH  23  27
ATOM     27  C   UNL     1      -3.555  -1.603  -0.632  0.00  0.00    +0.100 C 
ATOM     28  C   UNL     1      -2.327  -1.013   0.064  0.00  0.00    +0.033 C 
BRANCH  27  31
ATOM     29  C   UNL     1      -1.899  -3.985   0.903  0.00  0.00    +0.039 C 
ATOM     30  C   UNL     1      -3.239  -4.176   0.190  0.00  0.00    +0.154 C 
ATOM     31  C   UNL     1      -3.984  -2.857   0.084  0.00  0.00    -0.001 C 
ATOM     32  C   UNL     1      -5.108  -3.067   0.774  0.00  0.00    +0.063 C 
ATOM     33  N   UNL     1      -5.137  -4.322   1.274  0.00  0.00    -0.159 NA
ATOM     34  N   UNL     1      -4.145  -5.009   1.000  0.00  0.00    -0.180 NA
ATOM     35  C   UNL     1      -6.197  -2.043   0.968  0.00  0.00    +0.067 C 
ENDBRANCH  27  31
ENDBRANCH  23  27
ENDBRANCH   1  24
TORSDOF 4
