REMARK  Name = ZINC66115402
REMARK  13 active torsions:
REMARK  status: ('A' for Active; 'I' for Inactive)
REMARK    1  A    between atoms: C_1  and  C_2
REMARK    2  A    between atoms: C_2  and  C_3
REMARK    3  A    between atoms: C_3  and  C_4
REMARK    4  A    between atoms: C_4  and  C_5
REMARK    5  A    between atoms: C_5  and  O_6
REMARK    6  A    between atoms: O_6  and  C_7
REMARK    7  A    between atoms: C_10  and  C_15
REMARK    8  A    between atoms: C_12  and  O_13
REMARK    9  A    between atoms: O_13  and  C_14
REMARK   10  A    between atoms: C_15  and  N_16
REMARK   11  A    between atoms: C_22  and  C_24
REMARK   12  A    between atoms: C_24  and  C_25
REMARK   13  A    between atoms: N_27  and  N_28
REMARK                            x       y       z     vdW  Elec       q    Type
REMARK                         _______ _______ _______ _____ _____    ______ ____
ROOT
ATOM      1  N   UNL     1       5.090  -6.624  -6.772  0.00  0.00    +0.391 N 
ATOM      2  C   UNL     1       5.690  -5.282  -6.711  0.00  0.00    -0.058 C 
ATOM      3  C   UNL     1       6.983  -5.356  -5.896  0.00  0.00    +0.085 C 
ATOM      4  N   UNL     1       7.828  -6.435  -6.403  0.00  0.00    -0.318 N 
ATOM      5  C   UNL     1       7.357  -7.415  -7.181  0.00  0.00    +0.200 C 
ATOM      6  O   UNL     1       8.117  -8.289  -7.542  0.00  0.00    -0.278 OA
ATOM      7  C   UNL     1       5.923  -7.479  -7.626  0.00  0.00    +0.028 C 
ATOM      8  H   UNL     1       8.769  -6.440  -6.165  0.00  0.00    +0.149 HD
ATOM      9  H   UNL     1       5.043  -7.017  -5.844  0.00  0.00    -0.080 HD
ENDROOT
BRANCH   1  10
ATOM     10  C   UNL     1       3.737  -6.533  -7.337  0.00  0.00    -0.042 C 
BRANCH  10  14
ATOM     11  C   UNL     1       1.207  -4.386  -4.639  0.00  0.00    +0.162 A 
ATOM     12  C   UNL     1       1.914  -3.708  -5.619  0.00  0.00    +0.049 A 
ATOM     13  C   UNL     1       2.731  -4.405  -6.489  0.00  0.00    +0.005 A 
ATOM     14  C   UNL     1       2.845  -5.779  -6.385  0.00  0.00    -0.060 A 
ATOM     15  C   UNL     1       2.142  -6.462  -5.410  0.00  0.00    +0.051 A 
ATOM     16  C   UNL     1       1.326  -5.769  -4.531  0.00  0.00    +0.162 A 
BRANCH  16  17
ATOM     17  O   UNL     1       0.638  -6.438  -3.567  0.00  0.00    -0.491 OA
ATOM     18  C   UNL     1       0.809  -7.856  -3.515  0.00  0.00    +0.277 C 
ENDBRANCH  16  17
BRANCH  11  19
ATOM     19  O   UNL     1       0.403  -3.702  -3.782  0.00  0.00    -0.488 OA
BRANCH  19  20
ATOM     20  C   UNL     1       0.329  -2.285  -3.952  0.00  0.00    +0.229 C 
BRANCH  20  21
ATOM     21  C   UNL     1      -0.616  -1.694  -2.905  0.00  0.00    +0.041 C 
BRANCH  21  22
ATOM     22  C   UNL     1      -0.695  -0.177  -3.087  0.00  0.00    +0.003 C 
BRANCH  22  24
ATOM     23  C   UNL     1      -1.719   1.931  -2.222  0.00  0.00    +0.004 C 
ATOM     24  C   UNL     1      -1.641   0.414  -2.040  0.00  0.00    -0.003 C 
ENDBRANCH  22  24
ENDBRANCH  21  22
ENDBRANCH  20  21
ENDBRANCH  19  20
ENDBRANCH  11  19
ENDBRANCH  10  14
ENDBRANCH   1  10
BRANCH   7  25
ATOM     25  C   UNL     1       5.428  -8.924  -7.535  0.00  0.00    +0.091 C 
BRANCH  25  26
ATOM     26  C   UNL     1       5.632  -9.438  -6.133  0.00  0.00    +0.225 C 
ATOM     27  O   UNL     1       6.100  -8.710  -5.283  0.00  0.00    -0.275 OA
ATOM     28  N   UNL     1       5.293 -10.705  -5.824  0.00  0.00    -0.254 N 
ATOM     29  H   UNL     1       4.919 -11.287  -6.504  0.00  0.00    +0.169 HD
BRANCH  28  30
ATOM     30  N   UNL     1       5.478 -11.171  -4.553  0.00  0.00    -0.254 NA
ATOM     31  H   UNL     1       5.002 -10.588  -3.882  0.00  0.00    +0.140 HD
ATOM     32  H   UNL     1       5.180 -12.132  -4.474  0.00  0.00    +0.140 HD
ENDBRANCH  28  30
ENDBRANCH  25  26
ENDBRANCH   7  25
TORSDOF 11
