REMARK  Name = ZINC64055381
REMARK  13 active torsions:
REMARK  status: ('A' for Active; 'I' for Inactive)
REMARK    1  A    between atoms: C_1  and  C_2
REMARK    2  A    between atoms: C_2  and  C_3
REMARK    3  A    between atoms: C_3  and  C_4
REMARK    4  A    between atoms: C_4  and  N_5
REMARK    5  A    between atoms: N_5  and  C_6
REMARK    6  A    between atoms: C_7  and  N_18
REMARK    7  A    between atoms: N_8  and  C_15
REMARK    8  A    between atoms: C_15  and  C_16
REMARK    9  A    between atoms: C_16  and  C_17
REMARK   10  A    between atoms: C_19  and  C_21
REMARK   11  A    between atoms: C_21  and  S_22
REMARK   12  A    between atoms: S_22  and  C_23
REMARK   13  A    between atoms: C_27  and  C_29
REMARK                            x       y       z     vdW  Elec       q    Type
REMARK                         _______ _______ _______ _____ _____    ______ ____
ROOT
ATOM      1  N   UNL     1      -2.780  -2.572   0.017  0.00  0.00    -0.264 N 
ATOM      2  C   UNL     1      -3.279  -2.904   1.226  0.00  0.00    +0.230 C 
ATOM      3  O   UNL     1      -4.371  -3.425   1.309  0.00  0.00    -0.274 OA
ENDROOT
BRANCH   1   4
ATOM      4  C   UNL     1      -3.572  -2.728  -1.141  0.00  0.00    +0.140 A 
ATOM      5  C   UNL     1      -3.224  -3.645  -2.111  0.00  0.00    +0.127 A 
ATOM      6  N   UNL     1      -4.017  -3.773  -3.228  0.00  0.00    -0.280 N 
ATOM      7  C   UNL     1      -5.118  -3.014  -3.373  0.00  0.00    +0.331 A 
ATOM      8  O   UNL     1      -5.805  -3.143  -4.368  0.00  0.00    -0.246 OA
ATOM      9  N   UNL     1      -5.473  -2.116  -2.437  0.00  0.00    -0.273 N 
ATOM     10  H   UNL     1      -6.271  -1.580  -2.565  0.00  0.00    +0.173 HD
ATOM     11  C   UNL     1      -4.734  -1.954  -1.322  0.00  0.00    +0.277 A 
ATOM     12  O   UNL     1      -5.067  -1.141  -0.477  0.00  0.00    -0.266 OA
BRANCH   5  13
ATOM     13  N   UNL     1      -2.099  -4.420  -1.964  0.00  0.00    -0.343 N 
ATOM     14  H   UNL     1      -1.505  -4.275  -1.211  0.00  0.00    +0.144 HD
ATOM     15  H   UNL     1      -1.898  -5.112  -2.614  0.00  0.00    +0.144 HD
ENDBRANCH   5  13
BRANCH   6  16
ATOM     16  C   UNL     1      -3.659  -4.743  -4.267  0.00  0.00    +0.128 C 
BRANCH  16  17
ATOM     17  C   UNL     1      -4.318  -6.088  -3.957  0.00  0.00    +0.018 C 
ATOM     18  C   UNL     1      -3.945  -7.101  -5.042  0.00  0.00    +0.005 C 
ENDBRANCH  16  17
ENDBRANCH   6  16
ENDBRANCH   1   4
BRANCH   1  19
ATOM     19  C   UNL     1      -1.415  -2.051  -0.095  0.00  0.00    +0.114 C 
BRANCH  19  20
ATOM     20  C   UNL     1      -1.452  -0.521  -0.090  0.00  0.00    +0.019 C 
BRANCH  20  22
ATOM     21  C   UNL     1      -0.063   1.553  -0.201  0.00  0.00    +0.004 C 
ATOM     22  C   UNL     1      -0.026   0.023  -0.206  0.00  0.00    -0.002 C 
ENDBRANCH  20  22
ENDBRANCH  19  20
ENDBRANCH   1  19
BRANCH   2  23
ATOM     23  C   UNL     1      -2.479  -2.627   2.473  0.00  0.00    +0.170 C 
BRANCH  23  24
ATOM     24  S   UNL     1      -3.412  -3.182   3.925  0.00  0.00    -0.087 S 
BRANCH  24  25
ATOM     25  C   UNL     1      -2.328  -2.783   5.323  0.00  0.00    +0.339 C 
ATOM     26  N   UNL     1      -1.028  -3.460   5.176  0.00  0.00    -0.219 N 
ATOM     27  N   UNL     1      -0.075  -2.433   5.103  0.00  0.00    -0.145 NA
ATOM     28  C   UNL     1      -0.662  -1.269   5.190  0.00  0.00    +0.238 C 
ATOM     29  O   UNL     1      -2.008  -1.384   5.325  0.00  0.00    -0.443 OA
ATOM     30  H   UNL     1      -0.865  -4.415   5.137  0.00  0.00    +0.173 HD
BRANCH  28  31
ATOM     31  C   UNL     1       0.019  -0.044   5.150  0.00  0.00    +0.043 C 
ATOM     32  C   UNL     1       1.393   0.154   5.009  0.00  0.00    +0.008 A 
ATOM     33  C   UNL     1       2.475  -0.741   4.871  0.00  0.00    +0.010 A 
ATOM     34  C   UNL     1       3.739  -0.257   4.750  0.00  0.00    +0.001 A 
ATOM     35  C   UNL     1       4.000   1.115   4.757  0.00  0.00    +0.002 A 
ATOM     36  C   UNL     1       3.009   2.031   4.886  0.00  0.00    +0.026 A 
ATOM     37  C   UNL     1       1.663   1.601   5.017  0.00  0.00    +0.043 A 
ATOM     38  N   UNL     1       0.540   2.278   5.154  0.00  0.00    -0.380 N 
ATOM     39  C   UNL     1      -0.584   1.341   5.243  0.00  0.00    +0.154 C 
ATOM     40  H   UNL     1       0.468   3.245   5.186  0.00  0.00    +0.160 HD
ENDBRANCH  28  31
ENDBRANCH  24  25
ENDBRANCH  23  24
ENDBRANCH   2  23
TORSDOF 11
