REMARK  Name = ZINC63374961
REMARK  9 active torsions:
REMARK  status: ('A' for Active; 'I' for Inactive)
REMARK    1  A    between atoms: C_1  and  C_2
REMARK    2  A    between atoms: C_2  and  C_3
REMARK    3  A    between atoms: C_6  and  C_9
REMARK    4  A    between atoms: N_16  and  C_31
REMARK    5  A    between atoms: C_19  and  C_30
REMARK    6  A    between atoms: C_31  and  C_32
REMARK    7  A    between atoms: C_32  and  C_33
REMARK    8  A    between atoms: C_36  and  O_39
REMARK    9  A    between atoms: O_39  and  C_40
REMARK                            x       y       z     vdW  Elec       q    Type
REMARK                         _______ _______ _______ _____ _____    ______ ____
ROOT
ATOM      1  C   UNL     1       2.698  -1.916  -4.729  0.00  0.00    +0.065 C 
ATOM      2  C   UNL     1       3.680  -0.848  -5.215  0.00  0.00    +0.121 C 
ATOM      3  N   UNL     1       4.934  -0.837  -4.482  0.00  0.00    -0.283 N 
ATOM      4  C   UNL     1       5.737   0.268  -4.636  0.00  0.00    +0.234 C 
ATOM      5  O   UNL     1       5.358   1.250  -5.239  0.00  0.00    -0.274 OA
ATOM      6  C   UNL     1       7.117   0.202  -4.017  0.00  0.00    +0.203 C 
ATOM      7  N   UNL     1       7.699  -1.122  -4.307  0.00  0.00    -0.291 N 
ATOM      8  C   UNL     1       6.889  -2.203  -4.096  0.00  0.00    +0.242 C 
ATOM      9  O   UNL     1       7.270  -3.342  -4.264  0.00  0.00    -0.273 OA
ATOM     10  C   UNL     1       5.489  -1.881  -3.639  0.00  0.00    +0.135 C 
ATOM     11  C   UNL     1       4.637  -3.085  -3.388  0.00  0.00    +0.139 C 
ATOM     12  C   UNL     1       3.525  -3.141  -4.426  0.00  0.00    -0.027 C 
ATOM     13  C   UNL     1       3.522  -4.372  -4.915  0.00  0.00    -0.000 A 
ATOM     14  C   UNL     1       2.627  -5.053  -5.864  0.00  0.00    +0.010 A 
ATOM     15  C   UNL     1       2.939  -6.340  -6.167  0.00  0.00    +0.001 A 
ATOM     16  C   UNL     1       4.041  -7.012  -5.627  0.00  0.00    +0.002 A 
ATOM     17  C   UNL     1       4.912  -6.466  -4.741  0.00  0.00    +0.026 A 
ATOM     18  C   UNL     1       4.682  -5.119  -4.338  0.00  0.00    +0.043 A 
ATOM     19  N   UNL     1       5.335  -4.364  -3.512  0.00  0.00    -0.375 N 
ATOM     20  C   UNL     1       5.661  -1.235  -2.262  0.00  0.00    +0.044 C 
ATOM     21  H   UNL     1       6.150  -4.615  -3.049  0.00  0.00    +0.160 HD
ENDROOT
BRANCH   1  25
ATOM     22  C   UNL     1       0.705  -0.582  -1.194  0.00  0.00    -0.048 A 
ATOM     23  C   UNL     1       0.054  -1.421  -2.079  0.00  0.00    +0.004 A 
ATOM     24  C   UNL     1       0.699  -1.853  -3.223  0.00  0.00    +0.004 A 
ATOM     25  C   UNL     1       1.994  -1.445  -3.482  0.00  0.00    -0.039 A 
ATOM     26  C   UNL     1       2.644  -0.605  -2.597  0.00  0.00    +0.004 A 
ATOM     27  C   UNL     1       1.998  -0.170  -1.455  0.00  0.00    +0.004 A 
BRANCH  22  29
ATOM     28  C   UNL     1      -0.745   1.190  -0.242  0.00  0.00    +0.009 C 
ATOM     29  C   UNL     1       0.002  -0.112   0.054  0.00  0.00    +0.032 C 
ENDBRANCH  22  29
ENDBRANCH   1  25
BRANCH   7  30
ATOM     30  C   UNL     1       9.071  -1.271  -4.797  0.00  0.00    +0.113 C 
BRANCH  30  31
ATOM     31  C   UNL     1      10.024  -1.412  -3.608  0.00  0.00    +0.054 C 
BRANCH  31  32
ATOM     32  C   UNL     1      11.436  -1.565  -4.112  0.00  0.00    -0.046 A 
ATOM     33  C   UNL     1      11.942  -2.825  -4.377  0.00  0.00    +0.007 A 
ATOM     34  C   UNL     1      13.236  -2.968  -4.838  0.00  0.00    +0.046 A 
ATOM     35  C   UNL     1      14.029  -1.847  -5.035  0.00  0.00    +0.120 A 
ATOM     36  C   UNL     1      13.519  -0.584  -4.769  0.00  0.00    +0.046 A 
ATOM     37  C   UNL     1      12.222  -0.446  -4.313  0.00  0.00    +0.007 A 
BRANCH  35  38
ATOM     38  O   UNL     1      15.302  -1.985  -5.489  0.00  0.00    -0.495 OA
ATOM     39  C   UNL     1      16.061  -0.787  -5.669  0.00  0.00    +0.277 C 
ENDBRANCH  35  38
ENDBRANCH  31  32
ENDBRANCH  30  31
ENDBRANCH   7  30
TORSDOF 6
