REMARK  Name = ZINC06386860
REMARK  8 active torsions:
REMARK  status: ('A' for Active; 'I' for Inactive)
REMARK    1  A    between atoms: C_1  and  C_2
REMARK    2  A    between atoms: C_4  and  C_28
REMARK    3  A    between atoms: C_8  and  N_27
REMARK    4  A    between atoms: C_9  and  C_11
REMARK    5  A    between atoms: C_14  and  S_22
REMARK    6  A    between atoms: N_15  and  C_16
REMARK    7  A    between atoms: S_22  and  C_23
REMARK    8  A    between atoms: C_23  and  C_24
REMARK                            x       y       z     vdW  Elec       q    Type
REMARK                         _______ _______ _______ _____ _____    ______ ____
ROOT
ATOM      1  C   UNL     1       0.075   1.328  -0.755  0.00  0.00    +0.178 A 
ATOM      2  N   UNL     1       0.101   0.014  -0.824  0.00  0.00    -0.127 NA
ATOM      3  N   UNL     1       1.315  -0.404  -0.804  0.00  0.00    -0.122 NA
ATOM      4  C   UNL     1       2.144   0.612  -0.722  0.00  0.00    +0.197 A 
ATOM      5  N   UNL     1       1.386   1.753  -0.687  0.00  0.00    -0.270 N 
ENDROOT
BRANCH   1  14
ATOM      6  C   UNL     1      -5.481   1.306  -0.971  0.00  0.00    +0.044 C 
ATOM      7  C   UNL     1      -4.863   2.677  -0.873  0.00  0.00    -0.037 A 
ATOM      8  C   UNL     1      -5.656   3.801  -0.843  0.00  0.00    +0.027 A 
ATOM      9  C   UNL     1      -5.085   5.061  -0.754  0.00  0.00    +0.040 A 
ATOM     10  N   UNL     1      -3.773   5.198  -0.697  0.00  0.00    -0.245 NA
ATOM     11  C   UNL     1      -2.974   4.156  -0.722  0.00  0.00    +0.111 A 
ATOM     12  C   UNL     1      -3.456   2.829  -0.811  0.00  0.00    +0.032 A 
ATOM     13  C   UNL     1      -2.427   1.801  -0.827  0.00  0.00    +0.052 A 
ATOM     14  C   UNL     1      -1.121   2.181  -0.756  0.00  0.00    +0.080 A 
ATOM     15  S   UNL     1      -1.210   3.958  -0.658  0.00  0.00    -0.064 S 
ATOM     16  C   UNL     1      -5.967   6.282  -0.722  0.00  0.00    +0.065 C 
BRANCH  13  17
ATOM     17  N   UNL     1      -2.773   0.446  -0.913  0.00  0.00    -0.356 N 
ATOM     18  H   UNL     1      -2.141  -0.194  -1.276  0.00  0.00    +0.142 HD
ATOM     19  H   UNL     1      -3.644   0.148  -0.608  0.00  0.00    +0.142 HD
ENDBRANCH  13  17
ENDBRANCH   1  14
BRANCH   5  20
ATOM     20  C   UNL     1       1.846   3.075  -0.602  0.00  0.00    +0.051 A 
ATOM     21  C   UNL     1       1.637   3.953  -1.657  0.00  0.00    +0.026 A 
ATOM     22  C   UNL     1       2.087   5.256  -1.567  0.00  0.00    +0.002 A 
ATOM     23  C   UNL     1       2.754   5.683  -0.434  0.00  0.00    +0.000 A 
ATOM     24  C   UNL     1       2.968   4.808   0.616  0.00  0.00    +0.002 A 
ATOM     25  C   UNL     1       2.516   3.506   0.535  0.00  0.00    +0.026 A 
ENDBRANCH   5  20
BRANCH   4  26
ATOM     26  S   UNL     1       3.903   0.523  -0.666  0.00  0.00    -0.076 S 
BRANCH  26  27
ATOM     27  C   UNL     1       4.130  -1.270  -0.753  0.00  0.00    +0.172 C 
BRANCH  27  28
ATOM     28  C   UNL     1       5.602  -1.592  -0.720  0.00  0.00    +0.221 C 
ATOM     29  O   UNL     1       6.417  -0.697  -0.645  0.00  0.00    -0.275 OA
ATOM     30  N   UNL     1       6.013  -2.874  -0.774  0.00  0.00    -0.329 N 
ATOM     31  H   UNL     1       5.361  -3.590  -0.834  0.00  0.00    +0.145 HD
ATOM     32  H   UNL     1       6.960  -3.082  -0.753  0.00  0.00    +0.145 HD
ENDBRANCH  27  28
ENDBRANCH  26  27
ENDBRANCH   4  26
TORSDOF 6
