REMARK  Name = ZINC14162382
REMARK  6 active torsions:
REMARK  status: ('A' for Active; 'I' for Inactive)
REMARK    1  A    between atoms: C_1  and  C_2
REMARK    2  A    between atoms: C_2  and  O_3
REMARK    3  A    between atoms: O_3  and  C_4
REMARK    4  A    between atoms: C_4  and  C_6
REMARK    5  A    between atoms: C_7  and  N_36
REMARK    6  A    between atoms: C_27  and  C_29
REMARK                            x       y       z     vdW  Elec       q    Type
REMARK                         _______ _______ _______ _____ _____    ______ ____
ROOT
ATOM      1  C   UNL     1      -1.248   1.879   0.119  0.00  0.00    +0.117 C 
ATOM      2  C   UNL     1      -2.395   1.165   0.274  0.00  0.00    +0.195 C 
ATOM      3  O   UNL     1      -3.585   1.773   0.385  0.00  0.00    -0.446 OA
ATOM      4  C   UNL     1      -3.654   3.062   0.766  0.00  0.00    +0.115 C 
ATOM      5  C   UNL     1      -2.595   3.886   0.646  0.00  0.00    +0.057 C 
ATOM      6  C   UNL     1      -1.294   3.378   0.083  0.00  0.00    +0.142 C 
ATOM      7  C   UNL     1      -1.083   3.894  -1.303  0.00  0.00    +0.001 A 
ATOM      8  C   UNL     1      -1.754   3.752  -2.499  0.00  0.00    +0.045 A 
ATOM      9  C   UNL     1      -1.220   4.411  -3.607  0.00  0.00    +0.124 A 
ATOM     10  C   UNL     1      -0.067   5.183  -3.530  0.00  0.00    +0.044 A 
ATOM     11  C   UNL     1       0.603   5.327  -2.338  0.00  0.00    -0.020 A 
ATOM     12  C   UNL     1       0.070   4.664  -1.234  0.00  0.00    +0.045 A 
ATOM     13  N   UNL     1       0.614   4.683   0.051  0.00  0.00    -0.263 N 
ATOM     14  C   UNL     1      -0.137   3.949   0.887  0.00  0.00    +0.240 C 
ATOM     15  O   UNL     1       0.071   3.773   2.069  0.00  0.00    -0.274 OA
ATOM     16  C   UNL     1       1.843   5.439   0.310  0.00  0.00    +0.043 C 
ATOM     17  C   UNL     1       2.666   4.751   1.417  0.00  0.00    +0.026 C 
ATOM     18  C   UNL     1       1.985   5.258   2.714  0.00  0.00    +0.002 C 
ATOM     19  C   UNL     1       1.609   6.721   2.400  0.00  0.00    +0.002 C 
ATOM     20  C   UNL     1       1.511   6.830   0.867  0.00  0.00    +0.026 C 
ATOM     21  C   UNL     1       2.664   5.551  -0.971  0.00  0.00    +0.034 C 
ATOM     22  C   UNL     1       1.846   6.140  -2.125  0.00  0.00    +0.020 C 
ATOM     23  C   UNL     1       2.687   6.128  -3.403  0.00  0.00    +0.012 C 
ATOM     24  F   UNL     1      -1.847   4.295  -4.797  0.00  0.00    -0.205 F 
ATOM     25  C   UNL     1      -2.667   5.233   1.049  0.00  0.00    +0.164 C 
ATOM     26  O   UNL     1      -1.698   5.951   0.904  0.00  0.00    -0.292 OA
ATOM     27  C   UNL     1      -3.922   5.800   1.655  0.00  0.00    +0.080 C 
ATOM     28  C   UNL     1      -4.688   4.671   2.353  0.00  0.00    +0.016 C 
ATOM     29  C   UNL     1      -4.961   3.566   1.331  0.00  0.00    +0.075 C 
ENDROOT
BRANCH   2  30
ATOM     30  N   UNL     1      -2.334  -0.202   0.317  0.00  0.00    -0.329 N 
ATOM     31  H   UNL     1      -1.473  -0.649   0.311  0.00  0.00    +0.145 HD
ATOM     32  H   UNL     1      -3.151  -0.723   0.353  0.00  0.00    +0.145 HD
ENDBRANCH   2  30
BRANCH   1  33
ATOM     33  C   UNL     1      -0.019   1.212  -0.002  0.00  0.00    +0.342 C 
ATOM     34  O   UNL     1       0.493   1.073  -1.099  0.00  0.00    -0.245 OA
BRANCH  33  35
ATOM     35  O   UNL     1       0.599   0.730   1.098  0.00  0.00    -0.462 OA
BRANCH  35  37
ATOM     36  C   UNL     1       2.279  -0.588   2.230  0.00  0.00    +0.048 C 
ATOM     37  C   UNL     1       1.792  -0.029   0.891  0.00  0.00    +0.229 C 
ENDBRANCH  35  37
ENDBRANCH  33  35
ENDBRANCH   1  33
TORSDOF 4
