REMARK  Name = ZINC34676779
REMARK  6 active torsions:
REMARK  status: ('A' for Active; 'I' for Inactive)
REMARK    1  A    between atoms: C_1  and  C_2
REMARK    2  A    between atoms: C_2  and  N_3
REMARK    3  A    between atoms: N_3  and  C_4
REMARK    4  A    between atoms: N_14  and  C_17
REMARK    5  A    between atoms: C_27  and  C_29
REMARK    6  A    between atoms: C_33  and  C_35
REMARK                            x       y       z     vdW  Elec       q    Type
REMARK                         _______ _______ _______ _____ _____    ______ ____
ROOT
ATOM      1  N   UNL     1      -0.110  -1.325  -1.281  0.00  0.00    -0.318 N 
ATOM      2  C   UNL     1       0.166   0.063  -0.901  0.00  0.00    +0.130 C 
ATOM      3  C   UNL     1      -0.673  -1.606  -2.515  0.00  0.00    +0.131 A 
ATOM      4  C   UNL     1       0.141  -1.933  -3.607  0.00  0.00    +0.029 A 
ATOM      5  C   UNL     1      -0.454  -2.211  -4.813  0.00  0.00    +0.028 A 
ATOM      6  N   UNL     1      -1.781  -2.147  -4.905  0.00  0.00    -0.331 N 
ATOM      7  C   UNL     1      -2.527  -1.833  -3.859  0.00  0.00    +0.198 A 
ATOM      8  N   UNL     1      -1.991  -1.573  -2.676  0.00  0.00    -0.201 NA
ATOM      9  N   UNL     1      -3.903  -1.780  -4.003  0.00  0.00    -0.298 N 
ATOM     10  C   UNL     1      -4.540  -2.194  -5.261  0.00  0.00    +0.127 C 
ATOM     11  C   UNL     1      -5.583  -3.275  -4.949  0.00  0.00    +0.124 C 
ATOM     12  N   UNL     1      -6.432  -2.805  -3.846  0.00  0.00    -0.327 N 
ATOM     13  C   UNL     1      -5.795  -2.391  -2.588  0.00  0.00    +0.124 C 
ATOM     14  C   UNL     1      -4.753  -1.315  -2.897  0.00  0.00    +0.127 C 
ATOM     15  C   UNL     1       0.326  -2.603  -6.038  0.00  0.00    +0.072 C 
ATOM     16  C   UNL     1       1.786  -2.171  -5.912  0.00  0.00    +0.114 C 
ATOM     17  N   UNL     1       2.269  -2.579  -4.582  0.00  0.00    -0.293 N 
ATOM     18  C   UNL     1       1.633  -1.959  -3.414  0.00  0.00    +0.148 C 
ATOM     19  C   UNL     1       3.255  -3.487  -4.443  0.00  0.00    +0.247 C 
ATOM     20  O   UNL     1       3.814  -3.933  -5.426  0.00  0.00    -0.270 OA
ATOM     21  H   UNL     1      -2.209  -2.333  -5.755  0.00  0.00    +0.168 HD
ENDROOT
BRANCH  12  22
ATOM     22  C   UNL     1      -7.820  -2.751  -3.991  0.00  0.00    +0.030 A 
ATOM     23  C   UNL     1      -8.403  -3.035  -5.220  0.00  0.00    +0.023 A 
ATOM     24  C   UNL     1      -9.777  -2.982  -5.359  0.00  0.00    +0.002 A 
ATOM     25  C   UNL     1     -10.570  -2.646  -4.278  0.00  0.00    +0.000 A 
ATOM     26  C   UNL     1      -9.993  -2.363  -3.053  0.00  0.00    +0.002 A 
ATOM     27  C   UNL     1      -8.621  -2.420  -2.905  0.00  0.00    +0.023 A 
ENDBRANCH  12  22
BRANCH  19  28
ATOM     28  C   UNL     1       3.658  -3.941  -3.095  0.00  0.00    +0.037 A 
ATOM     29  C   UNL     1       3.683  -3.039  -2.030  0.00  0.00    +0.013 A 
ATOM     30  C   UNL     1       4.058  -3.469  -0.774  0.00  0.00    +0.001 A 
ATOM     31  C   UNL     1       4.411  -4.792  -0.569  0.00  0.00    +0.012 A 
ATOM     32  C   UNL     1       4.388  -5.691  -1.620  0.00  0.00    +0.056 A 
ATOM     33  C   UNL     1       4.008  -5.275  -2.880  0.00  0.00    +0.025 A 
BRANCH  32  34
ATOM     34  C   UNL     1       4.774  -7.129  -1.388  0.00  0.00    +0.417 C 
ATOM     35  F   UNL     1       5.112  -7.309  -0.042  0.00  0.00    -0.166 F 
ATOM     36  F   UNL     1       3.695  -7.959  -1.713  0.00  0.00    -0.166 F 
ATOM     37  F   UNL     1       5.871  -7.453  -2.192  0.00  0.00    -0.166 F 
ENDBRANCH  32  34
ENDBRANCH  19  28
BRANCH   1  39
ATOM     38  C   UNL     1      -0.998  -2.691   0.543  0.00  0.00    +0.024 C 
ATOM     39  C   UNL     1       0.209  -2.415  -0.356  0.00  0.00    +0.103 C 
ENDBRANCH   1  39
TORSDOF 4
