REMARK  Name = ZINC63746564
REMARK  7 active torsions:
REMARK  status: ('A' for Active; 'I' for Inactive)
REMARK    1  A    between atoms: C_1  and  C_2
REMARK    2  A    between atoms: C_2  and  C_3
REMARK    3  A    between atoms: C_6  and  N_9
REMARK    4  A    between atoms: N_12  and  C_13
REMARK    5  A    between atoms: C_15  and  C_37
REMARK    6  A    between atoms: C_18  and  C_31
REMARK    7  A    between atoms: C_19  and  C_23
REMARK                            x       y       z     vdW  Elec       q    Type
REMARK                         _______ _______ _______ _____ _____    ______ ____
ROOT
ATOM      1  C   UNL     1       6.021  -2.501  -5.693  0.00  0.00    +0.059 A 
ATOM      2  C   UNL     1       6.744  -2.283  -4.561  0.00  0.00    +0.028 A 
ATOM      3  C   UNL     1       8.126  -2.490  -4.518  0.00  0.00    -0.048 A 
ATOM      4  C   UNL     1       8.829  -2.918  -5.592  0.00  0.00    +0.013 A 
ATOM      5  C   UNL     1       8.173  -3.176  -6.821  0.00  0.00    +0.006 A 
ATOM      6  C   UNL     1       8.628  -3.612  -8.053  0.00  0.00    -0.000 C 
ATOM      7  C   UNL     1       7.405  -3.679  -8.940  0.00  0.00    +0.198 C 
ATOM      8  N   UNL     1       6.277  -3.254  -8.106  0.00  0.00    -0.368 N 
ATOM      9  C   UNL     1       6.713  -2.975  -6.902  0.00  0.00    +0.065 A 
ATOM     10  C   UNL     1       8.859  -2.227  -3.228  0.00  0.00    +0.044 C 
ATOM     11  H   UNL     1       5.353  -3.193  -8.398  0.00  0.00    +0.161 HD
ENDROOT
BRANCH   7  12
ATOM     12  C   UNL     1       7.564  -2.748 -10.115  0.00  0.00    +0.243 C 
ATOM     13  O   UNL     1       7.103  -1.627 -10.067  0.00  0.00    -0.273 OA
ATOM     14  N   UNL     1       8.219  -3.161 -11.218  0.00  0.00    -0.295 N 
ATOM     15  C   UNL     1       8.685  -4.551 -11.347  0.00  0.00    +0.136 C 
ATOM     16  C   UNL     1       8.209  -5.098 -12.697  0.00  0.00    +0.179 C 
ATOM     17  O   UNL     1       8.603  -4.197 -13.735  0.00  0.00    -0.377 OA
ATOM     18  C   UNL     1       8.022  -2.895 -13.632  0.00  0.00    +0.179 C 
ATOM     19  C   UNL     1       8.484  -2.237 -12.332  0.00  0.00    +0.136 C 
ENDBRANCH   7  12
BRANCH   1  23
ATOM     20  N   UNL     1       2.565  -2.425  -4.644  0.00  0.00    -0.269 N 
ATOM     21  C   UNL     1       3.907  -2.546  -4.604  0.00  0.00    +0.308 C 
ATOM     22  O   UNL     1       4.457  -2.890  -3.576  0.00  0.00    -0.252 OA
ATOM     23  N   UNL     1       4.640  -2.285  -5.705  0.00  0.00    -0.267 N 
ATOM     24  H   UNL     1       2.120  -2.236  -5.485  0.00  0.00    +0.156 HD
ATOM     25  H   UNL     1       4.209  -1.947  -6.506  0.00  0.00    +0.156 HD
BRANCH  20  29
ATOM     26  C   UNL     1       0.330  -2.865  -1.156  0.00  0.00    -0.048 A 
ATOM     27  C   UNL     1       1.647  -2.451  -1.083  0.00  0.00    +0.005 A 
ATOM     28  C   UNL     1       2.391  -2.304  -2.238  0.00  0.00    +0.023 A 
ATOM     29  C   UNL     1       1.815  -2.573  -3.473  0.00  0.00    +0.035 A 
ATOM     30  C   UNL     1       0.492  -2.989  -3.542  0.00  0.00    +0.023 A 
ATOM     31  C   UNL     1      -0.245  -3.139  -2.383  0.00  0.00    +0.005 A 
BRANCH  26  33
ATOM     32  C   UNL     1      -0.321  -4.449   0.637  0.00  0.00    +0.009 C 
ATOM     33  C   UNL     1      -0.479  -3.023   0.106  0.00  0.00    +0.032 C 
ENDBRANCH  26  33
ENDBRANCH  20  29
ENDBRANCH   1  23
BRANCH   6  34
ATOM     34  C   UNL     1      10.008  -3.939  -8.421  0.00  0.00    -0.019 A 
ATOM     35  C   UNL     1      10.887  -2.928  -8.832  0.00  0.00    +0.008 A 
ATOM     36  C   UNL     1      12.183  -3.245  -9.177  0.00  0.00    +0.001 A 
ATOM     37  C   UNL     1      12.617  -4.559  -9.118  0.00  0.00    +0.000 A 
ATOM     38  C   UNL     1      11.756  -5.565  -8.712  0.00  0.00    +0.001 A 
ATOM     39  C   UNL     1      10.459  -5.266  -8.358  0.00  0.00    +0.008 A 
ENDBRANCH   6  34
TORSDOF 5
