REMARK  Name = ZINC49502482
REMARK  8 active torsions:
REMARK  status: ('A' for Active; 'I' for Inactive)
REMARK    1  A    between atoms: C_1  and  C_2
REMARK    2  A    between atoms: C_4  and  C_22
REMARK    3  A    between atoms: C_7  and  C_8
REMARK    4  A    between atoms: C_8  and  N_10
REMARK    5  A    between atoms: N_11  and  C_12
REMARK    6  A    between atoms: C_12  and  C_14
REMARK    7  A    between atoms: C_12  and  C_15
REMARK    8  A    between atoms: C_15  and  N_16
REMARK                            x       y       z     vdW  Elec       q    Type
REMARK                         _______ _______ _______ _____ _____    ______ ____
ROOT
ATOM      1  C   UNL     1      -0.402   1.119  -0.603  0.00  0.00    +0.044 C 
ATOM      2  C   UNL     1      -0.253  -0.375  -0.471  0.00  0.00    -0.036 A 
ATOM      3  C   UNL     1      -0.228  -1.187  -1.592  0.00  0.00    +0.027 A 
ATOM      4  C   UNL     1      -0.090  -2.554  -1.439  0.00  0.00    +0.041 A 
ATOM      5  N   UNL     1       0.019  -3.102  -0.244  0.00  0.00    -0.237 NA
ATOM      6  C   UNL     1       0.001  -2.373   0.861  0.00  0.00    +0.129 A 
ATOM      7  C   UNL     1      -0.130  -0.975   0.787  0.00  0.00    +0.046 A 
ATOM      8  N   UNL     1       0.118  -2.990   2.094  0.00  0.00    -0.328 N 
ATOM      9  C   UNL     1      -0.063  -3.436  -2.662  0.00  0.00    +0.065 C 
ATOM     10  H   UNL     1       0.036  -2.467   2.907  0.00  0.00    +0.148 HD
ENDROOT
BRANCH   7  11
ATOM     11  C   UNL     1      -0.144  -0.158   2.012  0.00  0.00    +0.080 C 
ATOM     12  S   UNL     1       1.304   0.559   2.579  0.00  0.00    -0.035 S 
BRANCH  11  13
ATOM     13  N   UNL     1      -1.296   0.026   2.687  0.00  0.00    -0.352 N 
ATOM     14  H   UNL     1      -2.128  -0.319   2.328  0.00  0.00    +0.143 HD
ATOM     15  H   UNL     1      -1.293   0.502   3.531  0.00  0.00    +0.143 HD
ENDBRANCH  11  13
ENDBRANCH   7  11
BRANCH   8  16
ATOM     16  C   UNL     1       0.365  -4.431   2.171  0.00  0.00    +0.052 C 
ATOM     17  C   UNL     1       1.872  -4.693   2.143  0.00  0.00    +0.026 C 
BRANCH  16  18
ATOM     18  C   UNL     1      -0.224  -4.981   3.472  0.00  0.00    -0.057 C 
BRANCH  18  19
ATOM     19  N   UNL     1      -1.646  -4.621   3.556  0.00  0.00    +0.381 N 
ATOM     20  C   UNL     1      -2.171  -5.014   4.869  0.00  0.00    -0.079 C 
ATOM     21  C   UNL     1      -3.630  -4.569   4.993  0.00  0.00    -0.019 C 
ATOM     22  C   UNL     1      -4.457  -5.237   3.890  0.00  0.00    -0.004 C 
ATOM     23  C   UNL     1      -3.855  -4.880   2.528  0.00  0.00    -0.019 C 
ATOM     24  C   UNL     1      -2.387  -5.313   2.495  0.00  0.00    -0.079 C 
ATOM     25  H   UNL     1      -1.747  -3.624   3.440  0.00  0.00    -0.082 HD
ENDBRANCH  18  19
ENDBRANCH  16  18
ENDBRANCH   8  16
TORSDOF 5
