REMARK  Name = ZINC67633663
REMARK  10 active torsions:
REMARK  status: ('A' for Active; 'I' for Inactive)
REMARK    1  A    between atoms: C_1  and  C_2
REMARK    2  A    between atoms: C_2  and  C_4
REMARK    3  A    between atoms: C_2  and  N_17
REMARK    4  A    between atoms: C_7  and  N_10
REMARK    5  A    between atoms: N_13  and  C_16
REMARK    6  A    between atoms: N_20  and  C_21
REMARK    7  A    between atoms: C_21  and  C_22
REMARK    8  A    between atoms: C_22  and  C_23
REMARK    9  A    between atoms: C_23  and  N_24
REMARK   10  A    between atoms: N_24  and  C_25
REMARK                            x       y       z     vdW  Elec       q    Type
REMARK                         _______ _______ _______ _____ _____    ______ ____
ROOT
ATOM      1  N   UNL     1       0.701  -0.503   1.189  0.00  0.00    -0.293 N 
ATOM      2  C   UNL     1       0.036  -0.647   2.352  0.00  0.00    +0.300 C 
ATOM      3  O   UNL     1      -1.144  -0.363   2.417  0.00  0.00    -0.253 OA
ATOM      4  N   UNL     1       0.679  -1.106   3.444  0.00  0.00    -0.299 N 
ATOM      5  H   UNL     1       1.643  -0.729   1.137  0.00  0.00    +0.151 HD
ATOM      6  H   UNL     1       1.621  -1.332   3.393  0.00  0.00    +0.150 HD
ENDROOT
BRANCH   1   8
ATOM      7  C   UNL     1      -0.004   1.526   0.019  0.00  0.00    +0.033 C 
ATOM      8  C   UNL     1       0.002  -0.004   0.002  0.00  0.00    +0.102 C 
BRANCH   8   9
ATOM      9  C   UNL     1       0.708  -0.490  -1.238  0.00  0.00    -0.027 A 
ATOM     10  C   UNL     1       2.089  -0.523  -1.277  0.00  0.00    +0.007 A 
ATOM     11  C   UNL     1       2.739  -0.968  -2.412  0.00  0.00    +0.023 A 
ATOM     12  C   UNL     1       2.003  -1.382  -3.514  0.00  0.00    +0.030 A 
ATOM     13  C   UNL     1       0.615  -1.348  -3.472  0.00  0.00    +0.023 A 
ATOM     14  C   UNL     1      -0.029  -0.907  -2.332  0.00  0.00    +0.007 A 
BRANCH  12  15
ATOM     15  N   UNL     1       2.656  -1.832  -4.664  0.00  0.00    -0.333 N 
ATOM     16  C   UNL     1       1.899  -2.385  -5.797  0.00  0.00    +0.086 C 
ATOM     17  C   UNL     1       2.360  -1.683  -7.078  0.00  0.00    -0.060 C 
ATOM     18  N   UNL     1       3.818  -1.806  -7.206  0.00  0.00    +0.380 N 
ATOM     19  C   UNL     1       4.478  -1.093  -6.105  0.00  0.00    -0.060 C 
ATOM     20  C   UNL     1       4.121  -1.761  -4.778  0.00  0.00    +0.086 C 
ATOM     21  C   UNL     1       4.246  -1.229  -8.487  0.00  0.00    -0.096 C 
ATOM     22  H   UNL     1       4.075  -2.781  -7.176  0.00  0.00    -0.082 HD
ENDBRANCH  12  15
ENDBRANCH   8   9
ENDBRANCH   1   8
BRANCH   4  23
ATOM     23  C   UNL     1      -0.044  -1.262   4.708  0.00  0.00    +0.107 C 
BRANCH  23  24
ATOM     24  C   UNL     1       0.911  -1.795   5.779  0.00  0.00    +0.037 C 
BRANCH  24  25
ATOM     25  C   UNL     1       0.155  -1.958   7.100  0.00  0.00    +0.103 C 
BRANCH  25  26
ATOM     26  N   UNL     1       1.069  -2.468   8.125  0.00  0.00    -0.344 N 
ATOM     27  H   UNL     1       1.997  -2.645   7.903  0.00  0.00    +0.146 HD
BRANCH  26  28
ATOM     28  C   UNL     1       0.605  -2.700   9.422  0.00  0.00    +0.027 A 
ATOM     29  C   UNL     1      -0.725  -2.452   9.739  0.00  0.00    +0.023 A 
ATOM     30  C   UNL     1      -1.181  -2.683  11.023  0.00  0.00    +0.002 A 
ATOM     31  C   UNL     1      -0.316  -3.159  11.991  0.00  0.00    +0.000 A 
ATOM     32  C   UNL     1       1.009  -3.406  11.678  0.00  0.00    +0.002 A 
ATOM     33  C   UNL     1       1.470  -3.183  10.395  0.00  0.00    +0.023 A 
ENDBRANCH  26  28
ENDBRANCH  25  26
ENDBRANCH  24  25
ENDBRANCH  23  24
ENDBRANCH   4  23
TORSDOF 8
