REMARK  Name = ZINC43639915
REMARK  7 active torsions:
REMARK  status: ('A' for Active; 'I' for Inactive)
REMARK    1  A    between atoms: C_1  and  C_2
REMARK    2  A    between atoms: C_2  and  C_3
REMARK    3  A    between atoms: C_6  and  C_8
REMARK    4  A    between atoms: C_8  and  C_10
REMARK    5  A    between atoms: C_8  and  N_22
REMARK    6  A    between atoms: N_22  and  C_23
REMARK    7  A    between atoms: C_23  and  C_24
REMARK                            x       y       z     vdW  Elec       q    Type
REMARK                         _______ _______ _______ _____ _____    ______ ____
ROOT
ATOM      1  C   UNL     1       1.755  -1.809  -5.073  0.00  0.00    -0.003 C 
ENDROOT
BRANCH   1   2
ATOM      2  C   UNL     1       1.803  -0.612  -5.987  0.00  0.00    -0.055 A 
ATOM      3  C   UNL     1       0.625  -0.005  -6.390  0.00  0.00    +0.004 A 
ATOM      4  C   UNL     1       0.659   1.092  -7.227  0.00  0.00    +0.028 A 
ATOM      5  C   UNL     1       1.877   1.589  -7.666  0.00  0.00    +0.067 A 
ATOM      6  C   UNL     1       3.064   0.977  -7.260  0.00  0.00    +0.067 A 
ATOM      7  C   UNL     1       3.021  -0.121  -6.415  0.00  0.00    +0.030 A 
ATOM      8  N   UNL     1       4.106   1.687  -7.852  0.00  0.00    -0.306 N 
ATOM      9  H   UNL     1       5.052   1.495  -7.753  0.00  0.00    +0.170 HD
ATOM     10  C   UNL     1       3.577   2.685  -8.585  0.00  0.00    +0.325 A 
ATOM     11  O   UNL     1       4.215   3.494  -9.232  0.00  0.00    -0.247 OA
ATOM     12  N   UNL     1       2.234   2.652  -8.493  0.00  0.00    -0.306 N 
ATOM     13  H   UNL     1       1.620   3.264  -8.928  0.00  0.00    +0.170 HD
ENDBRANCH   1   2
BRANCH   1  17
ATOM     14  C   UNL     1       0.707  -0.490  -1.238  0.00  0.00    -0.010 A 
ATOM     15  C   UNL     1       2.023  -0.761  -1.421  0.00  0.00    +0.011 A 
ATOM     16  C   UNL     1       2.451  -1.202  -2.659  0.00  0.00    +0.010 A 
ATOM     17  C   UNL     1       1.542  -1.350  -3.654  0.00  0.00    -0.020 A 
ATOM     18  S   UNL     1       0.026  -0.866  -2.845  0.00  0.00    -0.099 S 
BRANCH  14  20
ATOM     19  C   UNL     1      -0.019   1.526   0.010  0.00  0.00    +0.009 C 
ATOM     20  C   UNL     1       0.002  -0.004   0.002  0.00  0.00    +0.039 C 
ENDBRANCH  14  20
ENDBRANCH   1  17
BRANCH   1  21
ATOM     21  N   UNL     1       0.649  -2.688  -5.475  0.00  0.00    +0.386 N 
ATOM     22  H   UNL     1       0.565  -3.447  -4.815  0.00  0.00    -0.085 HD
ATOM     23  H   UNL     1      -0.211  -2.160  -5.492  0.00  0.00    -0.085 HD
BRANCH  21  24
ATOM     24  C   UNL     1       0.916  -3.231  -6.813  0.00  0.00    -0.085 C 
ATOM     25  C   UNL     1      -0.237  -4.147  -7.232  0.00  0.00    -0.017 C 
ENDBRANCH  21  24
ENDBRANCH   1  21
TORSDOF 5
