REMARK  Name = ZINC14968673
REMARK  9 active torsions:
REMARK  status: ('A' for Active; 'I' for Inactive)
REMARK    1  A    between atoms: C_1  and  C_2
REMARK    2  A    between atoms: C_7  and  C_10
REMARK    3  A    between atoms: C_11  and  C_13
REMARK    4  A    between atoms: C_17  and  C_22
REMARK    5  A    between atoms: C_22  and  O_37
REMARK    6  A    between atoms: C_27  and  C_28
REMARK    7  A    between atoms: C_27  and  N_72
REMARK    8  A    between atoms: C_28  and  C_36
REMARK    9  A    between atoms: C_29  and  C_30
REMARK                            x       y       z     vdW  Elec       q    Type
REMARK                         _______ _______ _______ _____ _____    ______ ____
ROOT
ATOM      1  C   UNL     1      -5.819   3.270   9.586  0.00  0.00    +0.191 A 
ATOM      2  C   UNL     1      -5.841   3.862   8.364  0.00  0.00    +0.063 A 
ATOM      3  C   UNL     1      -5.263   2.892   7.434  0.00  0.00    +0.021 A 
ATOM      4  C   UNL     1      -5.004   2.894   6.061  0.00  0.00    +0.018 A 
ATOM      5  C   UNL     1      -4.441   1.795   5.477  0.00  0.00    -0.015 A 
ATOM      6  C   UNL     1      -4.116   0.682   6.240  0.00  0.00    +0.010 A 
ATOM      7  C   UNL     1      -4.359   0.661   7.596  0.00  0.00    +0.047 A 
ATOM      8  C   UNL     1      -4.935   1.766   8.212  0.00  0.00    +0.136 A 
ATOM      9  O   UNL     1      -5.284   2.035   9.486  0.00  0.00    -0.450 OA
ENDROOT
BRANCH   1  18
ATOM     10  C   UNL     1      -6.186   4.244  15.662  0.00  0.00    +0.039 C 
ATOM     11  C   UNL     1      -5.578   3.880  14.306  0.00  0.00    +0.133 C 
ATOM     12  C   UNL     1      -6.684   3.793  13.254  0.00  0.00    +0.139 C 
ATOM     13  N   UNL     1      -6.108   3.259  12.010  0.00  0.00    -0.290 N 
ATOM     14  C   UNL     1      -5.306   2.028  12.091  0.00  0.00    +0.139 C 
ATOM     15  C   UNL     1      -4.263   2.204  13.201  0.00  0.00    +0.133 C 
ATOM     16  O   UNL     1      -4.918   2.615  14.403  0.00  0.00    -0.371 OA
ATOM     17  C   UNL     1      -3.542   0.875  13.439  0.00  0.00    +0.039 C 
ATOM     18  C   UNL     1      -6.305   3.882  10.831  0.00  0.00    +0.282 C 
ATOM     19  O   UNL     1      -6.885   4.951  10.797  0.00  0.00    -0.267 OA
ENDBRANCH   1  18
BRANCH   5  20
ATOM     20  C   UNL     1      -4.167   1.793   3.995  0.00  0.00    +0.088 C 
ATOM     21  C   UNL     1      -4.262   0.362   3.459  0.00  0.00    +0.021 C 
ATOM     22  C   UNL     1      -3.925   0.359   1.966  0.00  0.00    -0.075 C 
ATOM     23  C   UNL     1      -2.465   2.275   2.233  0.00  0.00    -0.075 C 
ATOM     24  C   UNL     1      -2.759   2.336   3.733  0.00  0.00    +0.021 C 
ATOM     25  N   UNL     1      -2.549   0.869   1.784  0.00  0.00    +0.382 N 
ATOM     26  H   UNL     1      -1.906   0.300   2.348  0.00  0.00    -0.081 HD
BRANCH  20  27
ATOM     27  O   UNL     1      -5.127   2.617   3.331  0.00  0.00    -0.384 OA
ATOM     28  H   UNL     1      -5.123   3.539   3.622  0.00  0.00    +0.211 HD
ENDBRANCH  20  27
BRANCH  25  29
ATOM     29  C   UNL     1      -2.158   0.768   0.363  0.00  0.00    -0.048 C 
BRANCH  29  30
ATOM     30  C   UNL     1      -0.876   1.532   0.148  0.00  0.00    -0.089 C 
ATOM     31  C   UNL     1       0.289   0.904   0.212  0.00  0.00    +0.005 C 
ATOM     32  C   UNL     1      -0.920   3.011  -0.138  0.00  0.00    +0.037 C 
BRANCH  31  33
ATOM     33  C   UNL     1       1.525   1.593  -0.215  0.00  0.00    -0.025 A 
ATOM     34  C   UNL     1       1.485   2.522  -1.255  0.00  0.00    +0.008 A 
ATOM     35  C   UNL     1       2.642   3.166  -1.645  0.00  0.00    +0.001 A 
ATOM     36  C   UNL     1       3.841   2.884  -1.015  0.00  0.00    +0.000 A 
ATOM     37  C   UNL     1       3.887   1.959   0.013  0.00  0.00    +0.001 A 
ATOM     38  C   UNL     1       2.737   1.313   0.416  0.00  0.00    +0.008 A 
ENDBRANCH  31  33
ENDBRANCH  29  30
ENDBRANCH  25  29
ENDBRANCH   5  20
TORSDOF 6
