REMARK  Name = ZINC57938049
REMARK  4 active torsions:
REMARK  status: ('A' for Active; 'I' for Inactive)
REMARK    1  A    between atoms: C_1  and  C_2
REMARK    2  A    between atoms: C_2  and  C_3
REMARK    3  A    between atoms: C_2  and  C_4
REMARK    4  A    between atoms: C_14  and  N_16
REMARK                            x       y       z     vdW  Elec       q    Type
REMARK                         _______ _______ _______ _____ _____    ______ ____
ROOT
ATOM      1  C   UNL     1       0.707  -0.490  -1.238  0.00  0.00    -0.043 A 
ATOM      2  C   UNL     1       0.221  -0.150  -2.487  0.00  0.00    +0.004 A 
ATOM      3  C   UNL     1       0.862  -0.600  -3.627  0.00  0.00    +0.004 A 
ATOM      4  C   UNL     1       1.992  -1.386  -3.520  0.00  0.00    -0.040 A 
ATOM      5  C   UNL     1       2.490  -1.719  -2.269  0.00  0.00    +0.035 A 
ATOM      6  C   UNL     1       1.842  -1.269  -1.125  0.00  0.00    +0.027 A 
ATOM      7  N   UNL     1       3.655  -2.484  -2.155  0.00  0.00    -0.285 N 
ATOM      8  C   UNL     1       4.454  -2.680  -3.218  0.00  0.00    +0.216 C 
ATOM      9  O   UNL     1       5.401  -3.432  -3.126  0.00  0.00    -0.276 OA
ATOM     10  C   UNL     1       4.186  -1.976  -4.521  0.00  0.00    +0.084 C 
ATOM     11  C   UNL     1       2.678  -1.891  -4.764  0.00  0.00    -0.034 C 
ATOM     12  H   UNL     1       3.889  -2.877  -1.300  0.00  0.00    +0.155 HD
ENDROOT
BRANCH  11  13
ATOM     13  N   UNL     1       2.161  -3.224  -5.101  0.00  0.00    +0.383 N 
ATOM     14  H   UNL     1       1.167  -3.167  -5.265  0.00  0.00    -0.089 HD
ATOM     15  H   UNL     1       2.620  -3.562  -5.934  0.00  0.00    -0.089 HD
ATOM     16  H   UNL     1       2.341  -3.857  -4.337  0.00  0.00    -0.089 HD
ENDBRANCH  11  13
BRANCH   1  18
ATOM     17  C   UNL     1      -0.019   1.526   0.010  0.00  0.00    +0.012 C 
ATOM     18  C   UNL     1       0.002  -0.004   0.002  0.00  0.00    +0.013 C 
ATOM     19  C   UNL     1      -1.433  -0.534   0.013  0.00  0.00    +0.012 C 
ENDBRANCH   1  18
TORSDOF 2
