REMARK  Name = ZINC39964303
REMARK  7 active torsions:
REMARK  status: ('A' for Active; 'I' for Inactive)
REMARK    1  A    between atoms: C_4  and  C_7
REMARK    2  A    between atoms: C_8  and  C_16
REMARK    3  A    between atoms: N_10  and  C_12
REMARK    4  A    between atoms: C_12  and  C_13
REMARK    5  A    between atoms: C_20  and  C_32
REMARK    6  A    between atoms: C_27  and  N_31
REMARK    7  A    between atoms: C_28  and  C_29
REMARK                            x       y       z     vdW  Elec       q    Type
REMARK                         _______ _______ _______ _____ _____    ______ ____
ROOT
ATOM      1  C   UNL     1       3.004  -2.723   1.424  0.00  0.00    +0.079 C 
ATOM      2  C   UNL     1       3.546  -2.914   2.834  0.00  0.00    +0.095 C 
ATOM      3  C   UNL     1       3.292  -1.744   3.802  0.00  0.00    +0.138 C 
ATOM      4  N   UNL     1       3.119  -2.464   5.090  0.00  0.00    -0.302 N 
ATOM      5  N   UNL     1       2.739  -3.644   4.915  0.00  0.00    -0.170 NA
ATOM      6  C   UNL     1       2.569  -3.938   3.500  0.00  0.00    +0.316 C 
ATOM      7  O   UNL     1       2.880  -5.200   2.959  0.00  0.00    -0.452 OA
ATOM      8  C   UNL     1       2.826  -5.231   1.597  0.00  0.00    +0.194 C 
ATOM      9  C   UNL     1       2.852  -4.111   0.832  0.00  0.00    +0.094 C 
ATOM     10  H   UNL     1       3.281  -2.068   5.960  0.00  0.00    +0.183 HD
ENDROOT
BRANCH   3  11
ATOM     11  C   UNL     1       4.479  -0.817   3.854  0.00  0.00    -0.023 A 
ATOM     12  C   UNL     1       5.585  -1.160   4.630  0.00  0.00    +0.006 A 
ATOM     13  C   UNL     1       6.672  -0.345   4.699  0.00  0.00    +0.009 A 
ATOM     14  C   UNL     1       6.684   0.862   3.978  0.00  0.00    -0.018 A 
ATOM     15  C   UNL     1       7.790   1.728   4.025  0.00  0.00    +0.008 A 
ATOM     16  C   UNL     1       7.766   2.888   3.313  0.00  0.00    +0.001 A 
ATOM     17  C   UNL     1       6.660   3.231   2.537  0.00  0.00    +0.001 A 
ATOM     18  C   UNL     1       5.572   2.416   2.468  0.00  0.00    +0.008 A 
ATOM     19  C   UNL     1       5.560   1.210   3.189  0.00  0.00    -0.018 A 
ATOM     20  C   UNL     1       4.457   0.341   3.138  0.00  0.00    +0.014 A 
ENDBRANCH   3  11
BRANCH   1  22
ATOM     21  C   UNL     1       3.699  -0.689  -0.037  0.00  0.00    +0.097 A 
ATOM     22  C   UNL     1       3.974  -1.914   0.602  0.00  0.00    +0.007 A 
ATOM     23  C   UNL     1       5.261  -2.234   0.347  0.00  0.00    +0.113 A 
ATOM     24  N   UNL     1       5.789  -1.257  -0.422  0.00  0.00    -0.262 N 
ATOM     25  N   UNL     1       4.793  -0.301  -0.657  0.00  0.00    -0.170 NA
BRANCH  21  29
ATOM     26  C   UNL     1      -0.017   1.379   0.010  0.00  0.00    +0.000 A 
ATOM     27  C   UNL     1       1.169   2.092   0.002  0.00  0.00    +0.001 A 
ATOM     28  C   UNL     1       2.377   1.426  -0.013  0.00  0.00    +0.010 A 
ATOM     29  C   UNL     1       2.402   0.033  -0.021  0.00  0.00    +0.002 A 
ATOM     30  C   UNL     1       1.205  -0.680  -0.013  0.00  0.00    +0.010 A 
ATOM     31  C   UNL     1       0.002  -0.004   0.002  0.00  0.00    +0.001 A 
ENDBRANCH  21  29
BRANCH  24  32
ATOM     32  C   UNL     1       7.163  -1.209  -0.927  0.00  0.00    +0.238 C 
BRANCH  32  33
ATOM     33  C   UNL     1       7.142  -1.058  -2.427  0.00  0.00    +0.232 C 
ATOM     34  O   UNL     1       6.083  -0.997  -3.015  0.00  0.00    -0.274 OA
ATOM     35  N   UNL     1       8.300  -0.992  -3.114  0.00  0.00    -0.328 N 
ATOM     36  H   UNL     1       9.147  -1.041  -2.643  0.00  0.00    +0.145 HD
ATOM     37  H   UNL     1       8.286  -0.895  -4.079  0.00  0.00    +0.145 HD
ENDBRANCH  32  33
ENDBRANCH  24  32
ENDBRANCH   1  22
BRANCH   8  38
ATOM     38  N   UNL     1       2.738  -6.449   0.972  0.00  0.00    -0.329 N 
ATOM     39  H   UNL     1       2.716  -7.264   1.498  0.00  0.00    +0.145 HD
ATOM     40  H   UNL     1       2.698  -6.496   0.004  0.00  0.00    +0.145 HD
ENDBRANCH   8  38
BRANCH   9  41
ATOM     41  C   UNL     1       2.734  -4.243  -0.589  0.00  0.00    +0.100 C 
ATOM     42  N   UNL     1       2.640  -4.348  -1.716  0.00  0.00    -0.191 NA
ENDBRANCH   9  41
TORSDOF 7
