REMARK  Name = ZINC41583078
REMARK  7 active torsions:
REMARK  status: ('A' for Active; 'I' for Inactive)
REMARK    1  A    between atoms: N_3  and  C_14
REMARK    2  A    between atoms: C_7  and  C_11
REMARK    3  A    between atoms: C_8  and  N_10
REMARK    4  A    between atoms: C_14  and  C_15
REMARK    5  A    between atoms: C_15  and  C_17
REMARK    6  A    between atoms: C_15  and  O_19
REMARK    7  A    between atoms: C_17  and  O_18
REMARK                            x       y       z     vdW  Elec       q    Type
REMARK                         _______ _______ _______ _____ _____    ______ ____
ROOT
ATOM      1  C   UNL     1      -0.019   1.528   0.010  0.00  0.00    +0.018 C 
ATOM      2  C   UNL     1       0.002  -0.004   0.002  0.00  0.00    -0.074 C 
ATOM      3  N   UNL     1      -1.352  -0.530   0.216  0.00  0.00    +0.385 N 
ATOM      4  C   UNL     1      -1.748  -0.322   1.622  0.00  0.00    -0.035 C 
ATOM      5  C   UNL     1      -1.496   1.110   1.974  0.00  0.00    -0.021 A 
ATOM      6  C   UNL     1      -0.728   1.979   1.279  0.00  0.00    -0.027 A 
ATOM      7  C   UNL     1      -0.665   3.310   1.853  0.00  0.00    +0.068 A 
ATOM      8  C   UNL     1      -1.382   3.528   3.022  0.00  0.00    +0.076 A 
ATOM      9  S   UNL     1      -2.102   2.045   3.345  0.00  0.00    -0.080 S 
ATOM     10  H   UNL     1      -2.000  -0.049  -0.389  0.00  0.00    -0.081 HD
ENDROOT
BRANCH   7  11
ATOM     11  C   UNL     1       0.119   4.376   1.227  0.00  0.00    +0.244 C 
ATOM     12  O   UNL     1      -0.395   5.104   0.398  0.00  0.00    -0.270 OA
ATOM     13  N   UNL     1       1.411   4.551   1.568  0.00  0.00    -0.325 N 
ATOM     14  H   UNL     1       1.821   3.971   2.229  0.00  0.00    +0.145 HD
ATOM     15  H   UNL     1       1.931   5.258   1.153  0.00  0.00    +0.145 HD
ENDBRANCH   7  11
BRANCH   8  16
ATOM     16  N   UNL     1      -1.479   4.697   3.753  0.00  0.00    -0.352 N 
ATOM     17  H   UNL     1      -1.010   5.493   3.460  0.00  0.00    +0.143 HD
ATOM     18  H   UNL     1      -2.016   4.721   4.561  0.00  0.00    +0.143 HD
ENDBRANCH   8  16
BRANCH   3  19
ATOM     19  C   UNL     1      -1.373  -1.967  -0.090  0.00  0.00    -0.044 C 
BRANCH  19  20
ATOM     20  C   UNL     1      -2.808  -2.489   0.013  0.00  0.00    +0.123 C 
BRANCH  20  21
ATOM     21  O   UNL     1      -3.611  -1.876  -0.997  0.00  0.00    -0.391 OA
ATOM     22  H   UNL     1      -3.309  -2.048  -1.899  0.00  0.00    +0.210 HD
ENDBRANCH  20  21
BRANCH  20  23
ATOM     23  C   UNL     1      -2.813  -4.007  -0.184  0.00  0.00    +0.185 C 
BRANCH  23  24
ATOM     24  O   UNL     1      -4.133  -4.510   0.027  0.00  0.00    -0.393 OA
ATOM     25  H   UNL     1      -4.212  -5.467  -0.081  0.00  0.00    +0.210 HD
ENDBRANCH  23  24
ENDBRANCH  20  23
ENDBRANCH  19  20
ENDBRANCH   3  19
TORSDOF 7
