REMARK  Name = ZINC40315516
REMARK  6 active torsions:
REMARK  status: ('A' for Active; 'I' for Inactive)
REMARK    1  A    between atoms: C_4  and  N_21
REMARK    2  A    between atoms: C_6  and  S_7
REMARK    3  A    between atoms: S_7  and  N_10
REMARK    4  A    between atoms: N_10  and  C_11
REMARK    5  A    between atoms: C_11  and  C_12
REMARK    6  A    between atoms: N_16  and  C_18
REMARK                            x       y       z     vdW  Elec       q    Type
REMARK                         _______ _______ _______ _____ _____    ______ ____
ROOT
ATOM      1  S   UNL     1      -1.512  -0.904   0.012  0.00  0.00    +0.058 S 
ATOM      2  O   UNL     1      -1.220  -2.185   0.553  0.00  0.00    -0.153 OA
ATOM      3  O   UNL     1      -2.492  -0.045   0.577  0.00  0.00    -0.153 OA
ENDROOT
BRANCH   1   9
ATOM      4  C   UNL     1      -0.017   1.378   0.010  0.00  0.00    +0.030 A 
ATOM      5  C   UNL     1       1.170   2.089   0.002  0.00  0.00    +0.024 A 
ATOM      6  C   UNL     1       2.378   1.419  -0.013  0.00  0.00    +0.062 A 
ATOM      7  C   UNL     1       2.400   0.029  -0.021  0.00  0.00    +0.045 A 
ATOM      8  C   UNL     1       1.207  -0.680  -0.013  0.00  0.00    +0.052 A 
ATOM      9  C   UNL     1       0.002  -0.004   0.002  0.00  0.00    +0.107 A 
ATOM     10 CL   UNL     1       3.867   2.312  -0.023  0.00  0.00    -0.082 Cl
BRANCH   7  11
ATOM     11  N   UNL     1       3.620  -0.652  -0.036  0.00  0.00    -0.357 N 
ATOM     12  H   UNL     1       4.453  -0.155  -0.042  0.00  0.00    +0.142 HD
ATOM     13  H   UNL     1       3.634  -1.622  -0.042  0.00  0.00    +0.142 HD
ENDBRANCH   7  11
ENDBRANCH   1   9
BRANCH   1  14
ATOM     14  N   UNL     1      -1.949  -1.146  -1.567  0.00  0.00    -0.190 NA
ATOM     15  H   UNL     1      -2.756  -0.737  -1.915  0.00  0.00    +0.148 HD
BRANCH  14  16
ATOM     16  C   UNL     1      -1.116  -1.979  -2.438  0.00  0.00    +0.107 C 
BRANCH  16  17
ATOM     17  C   UNL     1      -1.904  -2.348  -3.697  0.00  0.00    -0.014 C 
ATOM     18  C   UNL     1      -3.054  -3.334  -3.363  0.00  0.00    -0.016 C 
ATOM     19  C   UNL     1      -3.262  -4.088  -4.694  0.00  0.00    -0.078 C 
ATOM     20  N   UNL     1      -2.012  -3.964  -5.466  0.00  0.00    +0.382 N 
ATOM     21  C   UNL     1      -1.038  -3.191  -4.666  0.00  0.00    -0.074 C 
ATOM     22  H   UNL     1      -2.196  -3.483  -6.334  0.00  0.00    -0.081 HD
BRANCH  20  23
ATOM     23  C   UNL     1      -1.472  -5.301  -5.748  0.00  0.00    -0.069 C 
ATOM     24  C   UNL     1      -1.084  -5.615  -7.194  0.00  0.00    -0.017 C 
ATOM     25  C   UNL     1      -2.334  -6.250  -6.582  0.00  0.00    -0.017 C 
ENDBRANCH  20  23
ENDBRANCH  16  17
ENDBRANCH  14  16
ENDBRANCH   1  14
TORSDOF 6
