REMARK  Name = ZINC49301006
REMARK  5 active torsions:
REMARK  status: ('A' for Active; 'I' for Inactive)
REMARK    1  A    between atoms: C_1  and  C_2
REMARK    2  A    between atoms: C_2  and  C_3
REMARK    3  A    between atoms: C_2  and  N_4
REMARK    4  A    between atoms: C_7  and  N_10
REMARK    5  A    between atoms: N_13  and  C_14
REMARK                            x       y       z     vdW  Elec       q    Type
REMARK                         _______ _______ _______ _____ _____    ______ ____
ROOT
ATOM      1  N   UNL     1      -3.909  -1.069  -2.510  0.00  0.00    -0.298 N 
ATOM      2  C   UNL     1      -4.336  -1.817  -3.547  0.00  0.00    +0.304 C 
ATOM      3  O   UNL     1      -3.610  -2.668  -4.023  0.00  0.00    -0.253 OA
ATOM      4  N   UNL     1      -5.569  -1.621  -4.057  0.00  0.00    -0.268 N 
ATOM      5  H   UNL     1      -4.489  -0.390  -2.131  0.00  0.00    +0.150 HD
ATOM      6  H   UNL     1      -6.172  -0.989  -3.636  0.00  0.00    +0.156 HD
ENDROOT
BRANCH   4   7
ATOM      7  C   UNL     1      -5.977  -2.330  -5.192  0.00  0.00    +0.049 A 
ATOM      8  C   UNL     1      -5.549  -3.637  -5.388  0.00  0.00    +0.039 A 
ATOM      9  C   UNL     1      -5.955  -4.334  -6.509  0.00  0.00    +0.020 A 
ATOM     10  C   UNL     1      -6.787  -3.732  -7.437  0.00  0.00    +0.016 A 
ATOM     11  C   UNL     1      -7.214  -2.432  -7.245  0.00  0.00    +0.017 A 
ATOM     12  C   UNL     1      -6.817  -1.731  -6.122  0.00  0.00    +0.035 A 
ATOM     13  I   UNL     1      -7.473   0.237  -5.828  0.00  0.00    -0.042 I 
ATOM     14 BR   UNL     1      -5.373  -6.114  -6.777  0.00  0.00    -0.050 Br
ENDBRANCH   4   7
BRANCH   1  18
ATOM     15  N   UNL     1      -1.390  -0.540   0.034  0.00  0.00    +0.382 N 
ATOM     16  C   UNL     1      -1.375  -2.018  -0.005  0.00  0.00    -0.077 C 
ATOM     17  C   UNL     1      -2.591  -2.403  -0.884  0.00  0.00    +0.002 C 
ATOM     18  C   UNL     1      -2.570  -1.282  -1.956  0.00  0.00    +0.056 C 
ATOM     19  C   UNL     1      -2.103  -0.046  -1.158  0.00  0.00    -0.056 C 
ATOM     20  H   UNL     1      -1.866  -0.229   0.867  0.00  0.00    -0.081 HD
BRANCH  15  22
ATOM     21  C   UNL     1      -0.032   1.497   0.050  0.00  0.00    -0.014 C 
ATOM     22  C   UNL     1      -0.011  -0.032   0.032  0.00  0.00    -0.075 C 
ATOM     23  C   UNL     1       0.724  -0.547   1.270  0.00  0.00    -0.014 C 
ENDBRANCH  15  22
ENDBRANCH   1  18
TORSDOF 3
