REMARK  Name = ZINC16957504
REMARK  9 active torsions:
REMARK  status: ('A' for Active; 'I' for Inactive)
REMARK    1  A    between atoms: C_1  and  C_2
REMARK    2  A    between atoms: C_2  and  O_4
REMARK    3  A    between atoms: O_4  and  C_5
REMARK    4  A    between atoms: C_5  and  C_6
REMARK    5  A    between atoms: C_13  and  O_34
REMARK    6  A    between atoms: C_16  and  O_29
REMARK    7  A    between atoms: C_21  and  C_27
REMARK    8  A    between atoms: C_21  and  C_28
REMARK    9  A    between atoms: C_24  and  O_26
REMARK                            x       y       z     vdW  Elec       q    Type
REMARK                         _______ _______ _______ _____ _____    ______ ____
ROOT
ATOM      1  C   UNL     1       1.037   1.456  -0.466  0.00  0.00    +0.038 C 
ATOM      2  C   UNL     1      -0.448   1.218  -0.528  0.00  0.00    +0.020 C 
ATOM      3  C   UNL     1      -1.213   1.479   0.749  0.00  0.00    +0.006 C 
ATOM      4  C   UNL     1      -2.635   0.918   0.654  0.00  0.00    +0.011 C 
ATOM      5  C   UNL     1      -3.288   1.251  -0.688  0.00  0.00    +0.051 C 
ATOM      6  C   UNL     1      -2.477   2.373  -1.383  0.00  0.00    +0.138 C 
ATOM      7  C   UNL     1      -1.197   1.578  -1.779  0.00  0.00    +0.089 C 
ATOM      8  C   UNL     1      -0.493   2.331  -2.875  0.00  0.00    +0.131 C 
ATOM      9  C   UNL     1       1.029   2.321  -2.789  0.00  0.00    +0.037 C 
ATOM     10  C   UNL     1       1.428   2.624  -1.343  0.00  0.00    +0.009 C 
ATOM     11  C   UNL     1       2.857   3.108  -1.233  0.00  0.00    -0.031 C 
ATOM     12  C   UNL     1       3.293   3.232   0.228  0.00  0.00    +0.009 C 
ATOM     13  C   UNL     1       3.024   1.942   0.991  0.00  0.00    +0.032 C 
ATOM     14  C   UNL     1       1.530   1.615   0.967  0.00  0.00    +0.125 C 
ATOM     15  C   UNL     1       3.840   2.224  -1.999  0.00  0.00    +0.011 C 
ATOM     16  C   UNL     1       2.941   4.527  -1.843  0.00  0.00    +0.011 C 
ATOM     17  C   UNL     1      -1.801   0.284  -2.331  0.00  0.00    +0.170 C 
ATOM     18  O   UNL     1      -1.313  -0.420  -3.186  0.00  0.00    -0.292 OA
ATOM     19  C   UNL     1      -3.074   0.069  -1.628  0.00  0.00    -0.006 C 
ATOM     20  C   UNL     1      -3.895  -0.971  -1.785  0.00  0.00    +0.016 C 
ENDROOT
BRANCH  14  21
ATOM     21  O   UNL     1       1.340   0.380   1.673  0.00  0.00    -0.391 OA
ATOM     22  H   UNL     1       1.631   0.405   2.595  0.00  0.00    +0.210 HD
ENDBRANCH  14  21
BRANCH   8  23
ATOM     23  O   UNL     1      -0.937   3.689  -2.879  0.00  0.00    -0.391 OA
ATOM     24  H   UNL     1      -0.597   4.212  -3.619  0.00  0.00    +0.210 HD
ENDBRANCH   8  23
BRANCH   6  25
ATOM     25  O   UNL     1      -2.230   3.492  -0.545  0.00  0.00    -0.390 OA
ATOM     26  H   UNL     1      -3.026   3.984  -0.301  0.00  0.00    +0.210 HD
ENDBRANCH   6  25
BRANCH   1  27
ATOM     27  C   UNL     1       1.655   0.158  -0.992  0.00  0.00    +0.242 C 
BRANCH  27  28
ATOM     28  O   UNL     1       1.163  -0.963  -0.211  0.00  0.00    -0.464 OA
BRANCH  28  30
ATOM     29  C   UNL     1       1.162  -3.392   0.234  0.00  0.00    +0.136 C 
ATOM     30  C   UNL     1       1.628  -2.181  -0.533  0.00  0.00    +0.304 C 
ATOM     31  O   UNL     1       2.419  -2.305  -1.437  0.00  0.00    -0.251 OA
ENDBRANCH  28  30
ENDBRANCH  27  28
ENDBRANCH   1  27
TORSDOF 6
