REMARK  Name = ZINC14648178
REMARK  11 active torsions:
REMARK  status: ('A' for Active; 'I' for Inactive)
REMARK    1  A    between atoms: C_1  and  C_2
REMARK    2  A    between atoms: C_2  and  C_3
REMARK    3  A    between atoms: C_3  and  C_4
REMARK    4  A    between atoms: C_4  and  C_5
REMARK    5  A    between atoms: C_5  and  C_6
REMARK    6  A    between atoms: C_6  and  O_7
REMARK    7  A    between atoms: O_7  and  C_8
REMARK    8  A    between atoms: C_13  and  C_14
REMARK    9  A    between atoms: N_16  and  C_17
REMARK   10  A    between atoms: C_22  and  C_23
REMARK   11  A    between atoms: C_30  and  N_64
REMARK                            x       y       z     vdW  Elec       q    Type
REMARK                         _______ _______ _______ _____ _____    ______ ____
ROOT
ATOM      1  C   UNL     1      -0.013   0.836  -0.608  0.00  0.00    +0.252 C 
ATOM      2  O   UNL     1      -0.121  -0.375  -0.619  0.00  0.00    -0.270 OA
ATOM      3  N   UNL     1      -1.102   1.609  -0.424  0.00  0.00    -0.281 N 
ATOM      4  H   UNL     1      -1.008   2.572  -0.359  0.00  0.00    +0.155 HD
ENDROOT
BRANCH   1  10
ATOM      5  C   UNL     1       2.444   0.660  -0.995  0.00  0.00    +0.133 A 
ATOM      6  C   UNL     1       3.682   1.257  -1.183  0.00  0.00    +0.047 A 
ATOM      7  C   UNL     1       3.796   2.633  -1.169  0.00  0.00    +0.019 A 
ATOM      8  C   UNL     1       2.678   3.427  -0.974  0.00  0.00    +0.019 A 
ATOM      9  C   UNL     1       1.439   2.851  -0.792  0.00  0.00    +0.032 A 
ATOM     10  C   UNL     1       1.309   1.460  -0.803  0.00  0.00    +0.080 A 
ATOM     11 BR   UNL     1       2.851   5.310  -0.958  0.00  0.00    -0.050 Br
BRANCH   5  12
ATOM     12  O   UNL     1       2.332  -0.692  -1.003  0.00  0.00    -0.491 OA
BRANCH  12  13
ATOM     13  C   UNL     1       3.531  -1.442  -1.204  0.00  0.00    +0.229 C 
BRANCH  13  14
ATOM     14  C   UNL     1       3.208  -2.937  -1.181  0.00  0.00    +0.041 C 
BRANCH  14  15
ATOM     15  C   UNL     1       4.493  -3.740  -1.397  0.00  0.00    +0.003 C 
BRANCH  15  16
ATOM     16  C   UNL     1       4.170  -5.235  -1.374  0.00  0.00    -0.000 C 
BRANCH  16  18
ATOM     17  C   UNL     1       5.131  -7.533  -1.567  0.00  0.00    +0.004 C 
ATOM     18  C   UNL     1       5.454  -6.038  -1.590  0.00  0.00    -0.003 C 
ENDBRANCH  16  18
ENDBRANCH  15  16
ENDBRANCH  14  15
ENDBRANCH  13  14
ENDBRANCH  12  13
ENDBRANCH   5  12
ENDBRANCH   1  10
BRANCH   3  19
ATOM     19  C   UNL     1      -2.361   1.024  -0.326  0.00  0.00    +0.046 A 
ATOM     20  C   UNL     1      -2.504  -0.235   0.241  0.00  0.00    +0.024 A 
ATOM     21  C   UNL     1      -3.755  -0.811   0.341  0.00  0.00    +0.002 A 
ATOM     22  C   UNL     1      -4.873  -0.144  -0.131  0.00  0.00    +0.001 A 
ATOM     23  C   UNL     1      -4.750   1.104  -0.702  0.00  0.00    +0.015 A 
ATOM     24  C   UNL     1      -3.492   1.702  -0.805  0.00  0.00    +0.058 A 
BRANCH  24  25
ATOM     25  C   UNL     1      -3.353   3.038  -1.415  0.00  0.00    +0.248 C 
ATOM     26  O   UNL     1      -2.556   3.215  -2.316  0.00  0.00    -0.270 OA
ATOM     27  N   UNL     1      -4.110   4.062  -0.975  0.00  0.00    -0.301 N 
ATOM     28  C   UNL     1      -5.140   3.852   0.054  0.00  0.00    +0.089 C 
ATOM     29  C   UNL     1      -4.926   4.887   1.169  0.00  0.00    -0.060 C 
ATOM     30  C   UNL     1      -3.770   6.391  -0.341  0.00  0.00    -0.060 C 
ATOM     31  C   UNL     1      -3.932   5.419  -1.514  0.00  0.00    +0.089 C 
ATOM     32  C   UNL     1      -4.874   7.263   1.629  0.00  0.00    -0.096 C 
ATOM     33  N   UNL     1      -4.927   6.238   0.567  0.00  0.00    +0.380 N 
ATOM     34  H   UNL     1      -5.792   6.361   0.028  0.00  0.00    -0.082 HD
ENDBRANCH  24  25
ENDBRANCH   3  19
TORSDOF 9
