REMARK  Name = ZINC48102300
REMARK  9 active torsions:
REMARK  status: ('A' for Active; 'I' for Inactive)
REMARK    1  A    between atoms: C_1  and  C_2
REMARK    2  A    between atoms: C_5  and  N_12
REMARK    3  A    between atoms: N_9  and  C_11
REMARK    4  A    between atoms: N_15  and  C_16
REMARK    5  A    between atoms: C_16  and  C_17
REMARK    6  A    between atoms: C_17  and  C_19
REMARK    7  A    between atoms: C_17  and  N_24
REMARK    8  A    between atoms: N_24  and  C_25
REMARK    9  A    between atoms: N_24  and  C_26
REMARK                            x       y       z     vdW  Elec       q    Type
REMARK                         _______ _______ _______ _____ _____    ______ ____
ROOT
ATOM      1  N   UNL     1      -0.328  -1.448  -4.893  0.00  0.00    -0.268 N 
ATOM      2  C   UNL     1      -0.129  -2.518  -5.688  0.00  0.00    +0.304 C 
ATOM      3  O   UNL     1      -0.115  -3.636  -5.211  0.00  0.00    -0.253 OA
ATOM      4  N   UNL     1       0.054  -2.348  -7.013  0.00  0.00    -0.300 N 
ATOM      5  H   UNL     1      -0.411  -0.563  -5.282  0.00  0.00    +0.156 HD
ATOM      6  H   UNL     1       0.043  -1.456  -7.393  0.00  0.00    +0.150 HD
ENDROOT
BRANCH   1  11
ATOM      7  C   UNL     1       1.775  -4.718  -0.749  0.00  0.00    +0.068 C 
ATOM      8  C   UNL     1       0.790  -3.609  -0.482  0.00  0.00    +0.069 A 
ATOM      9  C   UNL     1       0.200  -2.724  -1.481  0.00  0.00    +0.043 A 
ATOM     10  C   UNL     1       0.322  -2.602  -2.870  0.00  0.00    +0.038 A 
ATOM     11  C   UNL     1      -0.414  -1.614  -3.503  0.00  0.00    +0.054 A 
ATOM     12  C   UNL     1      -1.241  -0.786  -2.745  0.00  0.00    +0.136 A 
ATOM     13  N   UNL     1      -1.338  -0.921  -1.442  0.00  0.00    -0.234 NA
ATOM     14  C   UNL     1      -0.656  -1.850  -0.783  0.00  0.00    +0.158 A 
ATOM     15  N   UNL     1      -0.576  -2.198   0.540  0.00  0.00    -0.249 N 
ATOM     16  N   UNL     1       0.307  -3.273   0.679  0.00  0.00    -0.174 NA
ATOM     17  C   UNL     1      -1.303  -1.549   1.633  0.00  0.00    +0.174 C 
ENDBRANCH   1  11
BRANCH   4  18
ATOM     18  C   UNL     1       0.270  -3.511  -7.877  0.00  0.00    +0.095 C 
BRANCH  18  19
ATOM     19  C   UNL     1       0.557  -3.039  -9.304  0.00  0.00    -0.020 C 
BRANCH  19  20
ATOM     20  C   UNL     1      -0.664  -2.356  -9.862  0.00  0.00    -0.052 A 
ATOM     21  C   UNL     1      -0.746  -0.976  -9.887  0.00  0.00    +0.009 A 
ATOM     22  C   UNL     1      -1.858  -0.392 -10.396  0.00  0.00    +0.045 A 
ATOM     23  S   UNL     1      -2.839  -1.810 -10.862  0.00  0.00    -0.105 S 
ATOM     24  C   UNL     1      -1.697  -3.084 -10.352  0.00  0.00    +0.047 A 
ENDBRANCH  19  20
BRANCH  19  25
ATOM     25  N   UNL     1       0.897  -4.196 -10.143  0.00  0.00    +0.382 N 
ATOM     26  C   UNL     1       1.206  -3.740 -11.505  0.00  0.00    -0.096 C 
ATOM     27  C   UNL     1       2.066  -4.884  -9.579  0.00  0.00    -0.096 C 
ATOM     28  H   UNL     1       0.114  -4.833 -10.171  0.00  0.00    -0.082 HD
ENDBRANCH  19  25
ENDBRANCH  18  19
ENDBRANCH   4  18
TORSDOF 5
