REMARK  Name = ZINC06898703
REMARK  3 active torsions:
REMARK  status: ('A' for Active; 'I' for Inactive)
REMARK    1  A    between atoms: C_4  and  N_22
REMARK    2  A    between atoms: C_5  and  C_7
REMARK    3  A    between atoms: C_7  and  N_9
REMARK                            x       y       z     vdW  Elec       q    Type
REMARK                         _______ _______ _______ _____ _____    ______ ____
ROOT
ATOM      1  N   UNL     1       0.131  -3.519  -0.158  0.00  0.00    -0.143 NA
ATOM      2  C   UNL     1       0.227  -4.834  -0.037  0.00  0.00    +0.193 C 
ATOM      3  N   UNL     1       1.453  -5.420   0.077  0.00  0.00    -0.371 N 
ATOM      4  N   UNL     1      -0.903  -5.604  -0.027  0.00  0.00    -0.309 N 
ATOM      5  C   UNL     1      -2.137  -5.025  -0.271  0.00  0.00    +0.152 A 
ATOM      6  N   UNL     1      -3.330  -5.566  -0.189  0.00  0.00    -0.335 N 
ATOM      7  C   UNL     1      -4.460  -4.876  -0.459  0.00  0.00    +0.055 A 
ATOM      8  C   UNL     1      -5.796  -5.336  -0.410  0.00  0.00    +0.027 A 
ATOM      9  C   UNL     1      -6.837  -4.498  -0.717  0.00  0.00    +0.002 A 
ATOM     10  C   UNL     1      -6.620  -3.178  -1.085  0.00  0.00    +0.001 A 
ATOM     11  C   UNL     1      -5.326  -2.695  -1.143  0.00  0.00    +0.017 A 
ATOM     12  C   UNL     1      -4.278  -3.527  -0.837  0.00  0.00    +0.039 A 
ATOM     13  S   UNL     1      -2.511  -3.350  -0.770  0.00  0.00    -0.052 S 
ATOM     14  H   UNL     1       2.141  -5.004   0.621  0.00  0.00    +0.159 HD
ATOM     15  H   UNL     1       1.637  -6.253  -0.384  0.00  0.00    +0.159 HD
ATOM     16  H   UNL     1      -3.404  -6.497   0.074  0.00  0.00    +0.168 HD
ATOM     17  H   UNL     1      -0.840  -6.555   0.151  0.00  0.00    +0.170 HD
ENDROOT
BRANCH   1  18
ATOM     18  C   UNL     1       1.238  -2.778  -0.315  0.00  0.00    +0.272 C 
ATOM     19  O   UNL     1       2.320  -3.320  -0.453  0.00  0.00    -0.268 OA
BRANCH  18  24
ATOM     20  C   UNL     1      -0.148   0.700  -0.027  0.00  0.00    +0.001 A 
ATOM     21  C   UNL     1       0.967   1.466  -0.328  0.00  0.00    +0.002 A 
ATOM     22  C   UNL     1       2.171   0.860  -0.625  0.00  0.00    +0.023 A 
ATOM     23  C   UNL     1       2.271  -0.526  -0.624  0.00  0.00    +0.037 A 
ATOM     24  C   UNL     1       1.144  -1.303  -0.319  0.00  0.00    +0.059 A 
ATOM     25  C   UNL     1      -0.067  -0.675  -0.021  0.00  0.00    +0.015 A 
BRANCH  23  26
ATOM     26  N   UNL     1       3.482  -1.139  -0.923  0.00  0.00    -0.357 N 
ATOM     27  H   UNL     1       4.233  -0.606  -1.229  0.00  0.00    +0.142 HD
ATOM     28  H   UNL     1       3.576  -2.099  -0.827  0.00  0.00    +0.142 HD
ENDBRANCH  23  26
ENDBRANCH  18  24
ENDBRANCH   1  18
TORSDOF 3
