REMARK  Name = ZINC56898742
REMARK  11 active torsions:
REMARK  status: ('A' for Active; 'I' for Inactive)
REMARK    1  A    between atoms: C_1  and  C_2
REMARK    2  A    between atoms: C_2  and  C_3
REMARK    3  A    between atoms: C_3  and  C_4
REMARK    4  A    between atoms: C_4  and  C_5
REMARK    5  A    between atoms: C_10  and  O_34
REMARK    6  A    between atoms: C_17  and  O_33
REMARK    7  A    between atoms: C_19  and  N_31
REMARK    8  A    between atoms: C_21  and  O_30
REMARK    9  A    between atoms: C_23  and  N_28
REMARK   10  A    between atoms: N_28  and  C_29
REMARK   11  A    between atoms: N_31  and  C_32
REMARK                            x       y       z     vdW  Elec       q    Type
REMARK                         _______ _______ _______ _____ _____    ______ ____
ROOT
ATOM      1  C   UNL     1       1.601  -2.513   2.554  0.00  0.00    +0.129 C 
ATOM      2  C   UNL     1       1.645  -4.039   2.404  0.00  0.00    +0.112 C 
ATOM      3  C   UNL     1       2.152  -4.624   3.707  0.00  0.00    +0.199 C 
ATOM      4  O   UNL     1       3.034  -5.448   3.721  0.00  0.00    -0.291 OA
ATOM      5  C   UNL     1       1.512  -4.137   4.991  0.00  0.00    +0.281 C 
ATOM      6  C   UNL     1       1.466  -2.606   4.952  0.00  0.00    +0.319 C 
ATOM      7  O   UNL     1       0.865  -2.175   3.731  0.00  0.00    -0.343 OA
ATOM      8  O   UNL     1       0.698  -2.117   6.056  0.00  0.00    -0.338 OA
ATOM      9  C   UNL     1      -0.632  -2.638   6.095  0.00  0.00    +0.179 C 
ATOM     10  C   UNL     1      -1.379  -2.103   7.316  0.00  0.00    +0.134 C 
ATOM     11  C   UNL     1      -2.801  -2.670   7.322  0.00  0.00    -0.010 C 
ATOM     12  C   UNL     1      -2.749  -4.198   7.376  0.00  0.00    +0.123 C 
ATOM     13  C   UNL     1      -1.983  -4.733   6.163  0.00  0.00    +0.112 C 
ATOM     14  C   UNL     1      -0.563  -4.166   6.177  0.00  0.00    +0.173 C 
ATOM     15  O   UNL     1       0.180  -4.656   5.067  0.00  0.00    -0.331 OA
ENDROOT
BRANCH  11  16
ATOM     16  N   UNL     1      -3.524  -2.166   8.497  0.00  0.00    +0.382 N 
ATOM     17  C   UNL     1      -4.927  -2.594   8.431  0.00  0.00    -0.100 C 
ATOM     18  H   UNL     1      -3.099  -2.532   9.336  0.00  0.00    -0.086 HD
ATOM     19  H   UNL     1      -3.480  -1.157   8.511  0.00  0.00    -0.086 HD
ENDBRANCH  11  16
BRANCH  13  20
ATOM     20  N   UNL     1      -1.928  -6.199   6.225  0.00  0.00    -0.312 NA
ATOM     21  C   UNL     1      -3.138  -6.797   5.644  0.00  0.00    +0.101 C 
ATOM     22  H   UNL     1      -1.098  -6.550   5.771  0.00  0.00    +0.122 HD
ENDBRANCH  13  20
BRANCH  12  23
ATOM     23  O   UNL     1      -2.086  -4.608   8.574  0.00  0.00    -0.392 OA
ATOM     24  H   UNL     1      -2.016  -5.567   8.675  0.00  0.00    +0.210 HD
ENDBRANCH  12  23
BRANCH  10  25
ATOM     25  O   UNL     1      -1.433  -0.676   7.256  0.00  0.00    -0.391 OA
ATOM     26  H   UNL     1      -0.565  -0.250   7.244  0.00  0.00    +0.210 HD
ENDBRANCH  10  25
BRANCH   5  27
ATOM     27  O   UNL     1       2.273  -4.584   6.114  0.00  0.00    -0.355 OA
ATOM     28  H   UNL     1       2.346  -5.545   6.183  0.00  0.00    +0.213 HD
ENDBRANCH   5  27
BRANCH   1  29
ATOM     29  C   UNL     1       0.917  -1.899   1.330  0.00  0.00    +0.032 C 
BRANCH  29  30
ATOM     30  C   UNL     1       0.982  -0.373   1.422  0.00  0.00    +0.002 C 
BRANCH  30  32
ATOM     31  C   UNL     1       0.363   1.766   0.289  0.00  0.00    +0.004 C 
ATOM     32  C   UNL     1       0.298   0.240   0.198  0.00  0.00    -0.003 C 
ENDBRANCH  30  32
ENDBRANCH  29  30
ENDBRANCH   1  29
TORSDOF 8
