REMARK  Name = ZINC08896579
REMARK  13 active torsions:
REMARK  status: ('A' for Active; 'I' for Inactive)
REMARK    1  A    between atoms: C_1  and  C_2
REMARK    2  A    between atoms: C_2  and  C_3
REMARK    3  A    between atoms: C_2  and  O_4
REMARK    4  A    between atoms: O_4  and  C_5
REMARK    5  A    between atoms: C_9  and  C_11
REMARK    6  A    between atoms: N_13  and  C_14
REMARK    7  A    between atoms: C_14  and  N_16
REMARK    8  A    between atoms: N_16  and  C_17
REMARK    9  A    between atoms: C_18  and  C_31
REMARK   10  A    between atoms: C_23  and  C_27
REMARK   11  A    between atoms: C_27  and  C_28
REMARK   12  A    between atoms: C_27  and  C_29
REMARK   13  A    between atoms: C_27  and  C_30
REMARK                            x       y       z     vdW  Elec       q    Type
REMARK                         _______ _______ _______ _____ _____    ______ ____
ROOT
ATOM      1  N   UNL     1      -3.467   1.888   0.917  0.00  0.00    -0.291 N 
ATOM      2  H   UNL     1      -3.458   2.845   1.071  0.00  0.00    +0.154 HD
ENDROOT
BRANCH   1   3
ATOM      3  C   UNL     1      -4.668   1.196   0.927  0.00  0.00    +0.084 A 
ATOM      4  C   UNL     1      -5.947   1.691   1.143  0.00  0.00    +0.068 A 
ATOM      5  C   UNL     1      -7.049   0.746   1.097  0.00  0.00    -0.023 A 
ATOM      6  C   UNL     1      -6.699  -0.535   0.854  0.00  0.00    -0.004 A 
ATOM      7  S   UNL     1      -4.937  -0.498   0.682  0.00  0.00    -0.077 S 
ATOM      8  C   UNL     1      -7.611  -1.719   0.755  0.00  0.00    +0.046 C 
ATOM      9  C   UNL     1      -9.051  -1.207   0.599  0.00  0.00    -0.000 C 
ATOM     10  C   UNL     1      -9.307  -0.124   1.651  0.00  0.00    +0.009 C 
ATOM     11  C   UNL     1      -8.508   1.134   1.308  0.00  0.00    +0.037 C 
BRANCH   4  12
ATOM     12  C   UNL     1      -6.177   3.115   1.403  0.00  0.00    +0.244 C 
ATOM     13  O   UNL     1      -6.380   3.878   0.476  0.00  0.00    -0.270 OA
ATOM     14  N   UNL     1      -6.163   3.580   2.668  0.00  0.00    -0.325 N 
ATOM     15  H   UNL     1      -6.000   2.972   3.406  0.00  0.00    +0.145 HD
ATOM     16  H   UNL     1      -6.315   4.522   2.840  0.00  0.00    +0.145 HD
ENDBRANCH   4  12
BRANCH   9  17
ATOM     17  C   UNL     1     -10.031  -2.364   0.804  0.00  0.00    -0.035 C 
ATOM     18  C   UNL     1      -9.848  -2.945   2.207  0.00  0.00    +0.011 C 
ATOM     19  C   UNL     1     -11.464  -1.852   0.647  0.00  0.00    +0.011 C 
ATOM     20  C   UNL     1      -9.762  -3.452  -0.238  0.00  0.00    +0.011 C 
ENDBRANCH   9  17
ENDBRANCH   1   3
BRANCH   1  21
ATOM     21  C   UNL     1      -2.312   1.230   0.694  0.00  0.00    +0.141 C 
ATOM     22  S   UNL     1      -2.329  -0.461   0.423  0.00  0.00    -0.018 S 
BRANCH  21  25
ATOM     23  C   UNL     1       0.010   1.244   0.461  0.00  0.00    +0.250 C 
ATOM     24  O   UNL     1      -0.002   0.044   0.268  0.00  0.00    -0.270 OA
ATOM     25  N   UNL     1      -1.145   1.902   0.684  0.00  0.00    -0.264 N 
ATOM     26  H   UNL     1      -1.135   2.860   0.838  0.00  0.00    +0.157 HD
BRANCH  23  31
ATOM     27  C   UNL     1       3.682   2.003   0.193  0.00  0.00    +0.122 A 
ATOM     28  C   UNL     1       3.688   3.374   0.412  0.00  0.00    +0.046 A 
ATOM     29  C   UNL     1       2.504   4.048   0.646  0.00  0.00    +0.004 A 
ATOM     30  C   UNL     1       1.306   3.362   0.659  0.00  0.00    +0.013 A 
ATOM     31  C   UNL     1       1.290   1.983   0.444  0.00  0.00    +0.041 A 
ATOM     32  C   UNL     1       2.487   1.305   0.207  0.00  0.00    +0.058 A 
BRANCH  27  33
ATOM     33  O   UNL     1       4.850   1.347  -0.037  0.00  0.00    -0.489 OA
BRANCH  33  35
ATOM     34  C   UNL     1       6.596   2.427   1.237  0.00  0.00    +0.051 C 
ATOM     35  C   UNL     1       6.030   2.144  -0.156  0.00  0.00    +0.167 C 
ATOM     36  C   UNL     1       7.072   1.393  -0.987  0.00  0.00    +0.051 C 
ENDBRANCH  33  35
ENDBRANCH  27  33
ENDBRANCH  23  31
ENDBRANCH  21  25
ENDBRANCH   1  21
TORSDOF 8
