REMARK  Name = ZINC52920698
REMARK  8 active torsions:
REMARK  status: ('A' for Active; 'I' for Inactive)
REMARK    1  A    between atoms: C_1  and  C_2
REMARK    2  A    between atoms: C_4  and  C_14
REMARK    3  A    between atoms: C_6  and  S_9
REMARK    4  A    between atoms: C_7  and  C_8
REMARK    5  A    between atoms: S_9  and  N_12
REMARK    6  A    between atoms: N_12  and  C_13
REMARK    7  A    between atoms: N_16  and  C_17
REMARK    8  A    between atoms: C_22  and  C_23
REMARK                            x       y       z     vdW  Elec       q    Type
REMARK                         _______ _______ _______ _____ _____    ______ ____
ROOT
ATOM      1  C   UNL     1       0.306  -3.187  -2.481  0.00  0.00    +0.248 C 
ATOM      2  O   UNL     1       0.254  -4.396  -2.372  0.00  0.00    -0.270 OA
ATOM      3  N   UNL     1       0.417  -2.625  -3.701  0.00  0.00    -0.281 N 
ATOM      4  H   UNL     1       0.533  -1.665  -3.784  0.00  0.00    +0.155 HD
ENDROOT
BRANCH   1   8
ATOM      5  C   UNL     1       0.320   1.348  -0.399  0.00  0.00    +0.044 C 
ATOM      6  C   UNL     1       0.255  -0.152  -0.269  0.00  0.00    -0.045 A 
ATOM      7  C   UNL     1       0.309  -0.944  -1.398  0.00  0.00    +0.016 A 
ATOM      8  C   UNL     1       0.249  -2.333  -1.276  0.00  0.00    +0.039 A 
ATOM      9  C   UNL     1       0.134  -2.912  -0.011  0.00  0.00    +0.042 A 
ATOM     10  C   UNL     1       0.081  -2.109   1.109  0.00  0.00    +0.109 A 
ATOM     11  C   UNL     1       0.147  -0.733   0.982  0.00  0.00    -0.021 A 
ATOM     12  C   UNL     1       0.094   0.138   2.211  0.00  0.00    +0.046 C 
BRANCH  10  13
ATOM     13  S   UNL     1      -0.065  -2.838   2.707  0.00  0.00    +0.058 S 
ATOM     14  O   UNL     1      -0.165  -4.241   2.506  0.00  0.00    -0.153 OA
ATOM     15  O   UNL     1       0.949  -2.255   3.513  0.00  0.00    -0.153 OA
BRANCH  13  16
ATOM     16  N   UNL     1      -1.514  -2.346   3.339  0.00  0.00    -0.193 NA
ATOM     17  C   UNL     1      -2.769  -2.783   2.722  0.00  0.00    +0.127 C 
ATOM     18  H   UNL     1      -1.532  -1.768   4.118  0.00  0.00    +0.148 HD
ENDBRANCH  13  16
ENDBRANCH  10  13
ENDBRANCH   1   8
BRANCH   3  19
ATOM     19  C   UNL     1       0.364  -3.421  -4.842  0.00  0.00    +0.046 A 
ATOM     20  C   UNL     1      -0.454  -4.543  -4.873  0.00  0.00    +0.024 A 
ATOM     21  C   UNL     1      -0.504  -5.330  -6.005  0.00  0.00    +0.002 A 
ATOM     22  C   UNL     1       0.258  -5.010  -7.117  0.00  0.00    +0.001 A 
ATOM     23  C   UNL     1       1.076  -3.901  -7.104  0.00  0.00    +0.015 A 
ATOM     24  C   UNL     1       1.133  -3.091  -5.968  0.00  0.00    +0.058 A 
BRANCH  24  25
ATOM     25  C   UNL     1       2.002  -1.899  -5.949  0.00  0.00    +0.243 C 
ATOM     26  O   UNL     1       2.130  -1.255  -4.926  0.00  0.00    -0.270 OA
ATOM     27  N   UNL     1       2.653  -1.523  -7.068  0.00  0.00    -0.325 N 
ATOM     28  H   UNL     1       2.551  -2.036  -7.884  0.00  0.00    +0.145 HD
ATOM     29  H   UNL     1       3.224  -0.739  -7.056  0.00  0.00    +0.145 HD
ENDBRANCH  24  25
ENDBRANCH   3  19
TORSDOF 5
