REMARK  Name = ZINC19409849
REMARK  2 active torsions:
REMARK  status: ('A' for Active; 'I' for Inactive)
REMARK    1  A    between atoms: C_3  and  C_7
REMARK    2  A    between atoms: C_13  and  C_16
REMARK                            x       y       z     vdW  Elec       q    Type
REMARK                         _______ _______ _______ _____ _____    ______ ____
ROOT
ATOM      1  C   UNL     1      -3.250   1.089  -1.390  0.00  0.00    +0.202 C 
ATOM      2  O   UNL     1      -3.676   0.059  -0.914  0.00  0.00    -0.277 OA
ATOM      3  N   UNL     1      -3.687   1.507  -2.595  0.00  0.00    -0.302 N 
ATOM      4  C   UNL     1      -3.180   2.753  -3.185  0.00  0.00    +0.108 C 
ATOM      5  C   UNL     1      -4.371   3.644  -3.554  0.00  0.00    +0.020 C 
ATOM      6  C   UNL     1      -5.325   2.863  -4.460  0.00  0.00    +0.016 C 
ATOM      7  C   UNL     1      -5.853   1.637  -3.711  0.00  0.00    +0.092 C 
ATOM      8  C   UNL     1      -4.676   0.721  -3.346  0.00  0.00    +0.120 C 
ENDROOT
BRANCH   1  11
ATOM      9  C   UNL     1      -0.013   1.086   0.008  0.00  0.00    -0.020 C 
ATOM     10  C   UNL     1      -0.822   1.629  -1.192  0.00  0.00    -0.009 C 
ATOM     11  C   UNL     1      -2.231   1.904  -0.635  0.00  0.00    +0.016 C 
ATOM     12  N   UNL     1      -2.220   1.507   0.790  0.00  0.00    +0.387 N 
ATOM     13  C   UNL     1      -0.801   1.617   1.232  0.00  0.00    -0.082 C 
ATOM     14  H   UNL     1      -2.869   2.184   1.364  0.00  0.00    -0.085 HD
ATOM     15  H   UNL     1      -2.589   0.476   0.886  0.00  0.00    -0.085 HD
ENDBRANCH   1  11
BRANCH   7  16
ATOM     16  C   UNL     1      -6.819   0.887  -4.592  0.00  0.00    +0.215 C 
ATOM     17  O   UNL     1      -6.593  -0.266  -4.895  0.00  0.00    -0.276 OA
ATOM     18  N   UNL     1      -7.933   1.497  -5.044  0.00  0.00    -0.329 N 
ATOM     19  H   UNL     1      -8.637   0.949  -5.687  0.00  0.00    +0.145 HD
ATOM     20  H   UNL     1      -8.137   2.542  -4.769  0.00  0.00    +0.145 HD
ENDBRANCH   7  16
TORSDOF 2
