REMARK  Name = ZINC38965601
REMARK  8 active torsions:
REMARK  status: ('A' for Active; 'I' for Inactive)
REMARK    1  A    between atoms: C_1  and  C_2
REMARK    2  A    between atoms: C_2  and  O_3
REMARK    3  A    between atoms: O_3  and  C_4
REMARK    4  A    between atoms: C_4  and  C_6
REMARK    5  A    between atoms: C_9  and  N_12
REMARK    6  A    between atoms: N_12  and  C_13
REMARK    7  A    between atoms: N_16  and  S_17
REMARK    8  A    between atoms: S_17  and  C_20
REMARK                            x       y       z     vdW  Elec       q    Type
REMARK                         _______ _______ _______ _____ _____    ______ ____
ROOT
ATOM      1  C   UNL     1       3.569  -5.336  -6.002  0.00  0.00    +0.237 C 
ATOM      2  C   UNL     1       5.042  -5.573  -6.248  0.00  0.00    +0.192 C 
ATOM      3  N   UNL     1       5.929  -5.149  -5.397  0.00  0.00    -0.110 NA
ATOM      4  N   UNL     1       5.420  -6.227  -7.358  0.00  0.00    -0.226 NA
ATOM      5  C   UNL     1       4.541  -6.665  -8.234  0.00  0.00    +0.089 A 
ATOM      6  C   UNL     1       4.977  -7.353  -9.396  0.00  0.00    +0.030 A 
ATOM      7  C   UNL     1       4.079  -7.805 -10.298  0.00  0.00    +0.002 A 
ATOM      8  C   UNL     1       2.694  -7.627 -10.147  0.00  0.00    +0.002 A 
ATOM      9  C   UNL     1       2.172  -6.986  -9.078  0.00  0.00    +0.027 A 
ATOM     10  C   UNL     1       3.083  -6.463  -8.049  0.00  0.00    +0.063 A 
ATOM     11  N   UNL     1       2.616  -5.840  -7.004  0.00  0.00    -0.359 N 
ATOM     12  H   UNL     1       1.662  -5.712  -6.889  0.00  0.00    +0.162 HD
ENDROOT
BRANCH   3  13
ATOM     13  S   UNL     1       7.540  -5.415  -5.678  0.00  0.00    +0.103 S 
ATOM     14  O   UNL     1       7.738  -6.821  -5.605  0.00  0.00    -0.146 OA
ATOM     15  O   UNL     1       7.881  -4.657  -6.830  0.00  0.00    -0.146 OA
BRANCH  13  16
ATOM     16  C   UNL     1       8.427  -4.710  -4.329  0.00  0.00    +0.141 A 
ATOM     17  C   UNL     1       9.139  -5.508  -3.498  0.00  0.00    +0.031 A 
ATOM     18  C   UNL     1       9.854  -4.984  -2.421  0.00  0.00    +0.004 A 
ATOM     19  C   UNL     1       9.867  -3.656  -2.159  0.00  0.00    +0.031 A 
ATOM     20  C   UNL     1       9.143  -2.758  -2.990  0.00  0.00    +0.102 A 
ATOM     21  C   UNL     1       8.400  -3.305  -4.120  0.00  0.00    +0.127 A 
ATOM     22  N   UNL     1       7.765  -2.372  -4.830  0.00  0.00    -0.189 NA
ATOM     23  S   UNL     1       8.107  -0.973  -4.114  0.00  0.00    +0.117 S 
ATOM     24  N   UNL     1       9.041  -1.432  -2.888  0.00  0.00    -0.191 NA
ENDBRANCH  13  16
ENDBRANCH   3  13
BRANCH   1  25
ATOM     25  N   UNL     1       3.363  -3.891  -5.877  0.00  0.00    -0.318 N 
ATOM     26  H   UNL     1       3.705  -3.292  -6.559  0.00  0.00    +0.148 HD
BRANCH  25  30
ATOM     27  C   UNL     1       1.317  -2.360  -2.599  0.00  0.00    +0.059 A 
ATOM     28  C   UNL     1       1.365  -3.741  -2.812  0.00  0.00    +0.017 A 
ATOM     29  C   UNL     1       2.040  -4.243  -3.895  0.00  0.00    +0.024 A 
ATOM     30  C   UNL     1       2.678  -3.379  -4.781  0.00  0.00    +0.029 A 
ATOM     31  C   UNL     1       2.632  -2.003  -4.572  0.00  0.00    +0.024 A 
ATOM     32  C   UNL     1       1.954  -1.494  -3.494  0.00  0.00    +0.017 A 
BRANCH  27  33
ATOM     33  C   UNL     1       0.591  -1.817  -1.437  0.00  0.00    +0.339 C 
ATOM     34  O   UNL     1       0.545  -0.616  -1.256  0.00  0.00    -0.245 OA
BRANCH  33  35
ATOM     35  O   UNL     1      -0.022  -2.652  -0.575  0.00  0.00    -0.461 OA
BRANCH  35  37
ATOM     36  C   UNL     1      -1.336  -3.154   1.390  0.00  0.00    +0.048 C 
ATOM     37  C   UNL     1      -0.707  -2.057   0.529  0.00  0.00    +0.229 C 
ENDBRANCH  35  37
ENDBRANCH  33  35
ENDBRANCH  27  33
ENDBRANCH  25  30
ENDBRANCH   1  25
TORSDOF 7
