REMARK  Name = ZINC22837755
REMARK  5 active torsions:
REMARK  status: ('A' for Active; 'I' for Inactive)
REMARK    1  A    between atoms: C_4  and  O_7
REMARK    2  A    between atoms: O_7  and  C_8
REMARK    3  A    between atoms: C_11  and  N_14
REMARK    4  A    between atoms: C_18  and  N_22
REMARK    5  A    between atoms: C_28  and  C_30
REMARK                            x       y       z     vdW  Elec       q    Type
REMARK                         _______ _______ _______ _____ _____    ______ ____
ROOT
ATOM      1  N   UNL     1       3.248  -6.107   0.193  0.00  0.00    -0.209 N 
ATOM      2  C   UNL     1       2.068  -6.729   0.069  0.00  0.00    +0.228 C 
ATOM      3  O   UNL     1       1.002  -6.181  -0.112  0.00  0.00    -0.275 OA
ATOM      4  C   UNL     1       2.277  -8.222   0.191  0.00  0.00    +0.125 C 
ATOM      5  C   UNL     1       3.798  -8.358   0.408  0.00  0.00    +0.153 C 
ATOM      6  C   UNL     1       4.289  -6.927   0.381  0.00  0.00    +0.244 C 
ATOM      7  O   UNL     1       5.443  -6.578   0.511  0.00  0.00    -0.273 OA
ENDROOT
BRANCH   5   8
ATOM      8  N   UNL     1       4.081  -8.985   1.706  0.00  0.00    -0.288 NA
ATOM      9  C   UNL     1       3.546  -8.176   2.809  0.00  0.00    +0.104 C 
ATOM     10  C   UNL     1       3.700  -8.947   4.125  0.00  0.00    +0.123 C 
ATOM     11  N   UNL     1       5.108  -9.345   4.271  0.00  0.00    -0.296 N 
ATOM     12  C   UNL     1       5.755 -10.041   3.148  0.00  0.00    +0.123 C 
ATOM     13  C   UNL     1       5.520  -9.227   1.871  0.00  0.00    +0.104 C 
ATOM     14  C   UNL     1       5.788  -9.080   5.404  0.00  0.00    +0.260 C 
ATOM     15  O   UNL     1       6.924  -9.483   5.538  0.00  0.00    -0.271 OA
BRANCH  14  16
ATOM     16  C   UNL     1       5.136  -8.283   6.505  0.00  0.00    +0.296 C 
ATOM     17  C   UNL     1       4.048  -9.128   7.181  0.00  0.00    +0.283 C 
ATOM     18  O   UNL     1       3.460  -8.348   8.228  0.00  0.00    -0.484 OA
ATOM     19  C   UNL     1       4.318  -7.689   9.054  0.00  0.00    +0.162 A 
ATOM     20  C   UNL     1       3.861  -7.223  10.278  0.00  0.00    +0.049 A 
ATOM     21  C   UNL     1       4.719  -6.548  11.126  0.00  0.00    +0.004 A 
ATOM     22  C   UNL     1       6.034  -6.337  10.757  0.00  0.00    +0.004 A 
ATOM     23  C   UNL     1       6.496  -6.800   9.540  0.00  0.00    +0.049 A 
ATOM     24  C   UNL     1       5.641  -7.478   8.684  0.00  0.00    +0.163 A 
ATOM     25  O   UNL     1       6.112  -7.935   7.492  0.00  0.00    -0.473 OA
ENDBRANCH  14  16
ENDBRANCH   5   8
BRANCH   1  29
ATOM     26  C   UNL     1       3.645  -1.959  -0.011  0.00  0.00    +0.129 A 
ATOM     27  C   UNL     1       4.219  -2.760  -0.988  0.00  0.00    +0.048 A 
ATOM     28  C   UNL     1       4.088  -4.133  -0.921  0.00  0.00    +0.027 A 
ATOM     29  C   UNL     1       3.382  -4.712   0.124  0.00  0.00    +0.044 A 
ATOM     30  C   UNL     1       2.808  -3.911   1.102  0.00  0.00    +0.027 A 
ATOM     31  C   UNL     1       2.944  -2.538   1.037  0.00  0.00    +0.048 A 
BRANCH  26  32
ATOM     32  O   UNL     1       3.775  -0.608  -0.077  0.00  0.00    -0.456 OA
BRANCH  32  36
ATOM     33  C   UNL     1       1.467   1.425  -2.827  0.00  0.00    +0.000 A 
ATOM     34  C   UNL     1       1.443   0.043  -2.794  0.00  0.00    +0.004 A 
ATOM     35  C   UNL     1       2.215  -0.640  -1.874  0.00  0.00    +0.046 A 
ATOM     36  C   UNL     1       3.015   0.062  -0.983  0.00  0.00    +0.128 A 
ATOM     37  C   UNL     1       3.037   1.449  -1.020  0.00  0.00    +0.046 A 
ATOM     38  C   UNL     1       2.263   2.127  -1.941  0.00  0.00    +0.004 A 
ENDBRANCH  32  36
ENDBRANCH  26  32
ENDBRANCH   1  29
TORSDOF 5
