REMARK  Name = ZINC36446968
REMARK  5 active torsions:
REMARK  status: ('A' for Active; 'I' for Inactive)
REMARK    1  A    between atoms: C_1  and  C_2
REMARK    2  A    between atoms: C_2  and  C_26
REMARK    3  A    between atoms: N_5  and  C_9
REMARK    4  A    between atoms: C_9  and  N_10
REMARK    5  A    between atoms: C_14  and  C_15
REMARK                            x       y       z     vdW  Elec       q    Type
REMARK                         _______ _______ _______ _____ _____    ______ ____
ROOT
ATOM      1  C   UNL     1      -2.569  -1.986   1.805  0.00  0.00    +0.043 C 
ENDROOT
BRANCH   1   6
ATOM      2  C   UNL     1      -0.019   1.526   0.010  0.00  0.00    +0.047 C 
ATOM      3  C   UNL     1       0.002  -0.004   0.002  0.00  0.00    +0.135 C 
ATOM      4  C   UNL     1      -1.403  -0.557   0.139  0.00  0.00    +0.249 C 
ATOM      5  O   UNL     1      -2.332  -0.392  -0.621  0.00  0.00    -0.272 OA
ATOM      6  N   UNL     1      -1.403  -1.272   1.282  0.00  0.00    -0.241 N 
ATOM      7  C   UNL     1      -0.206  -1.247   1.879  0.00  0.00    +0.308 C 
ATOM      8  O   UNL     1       0.040  -1.819   2.924  0.00  0.00    -0.252 OA
ATOM      9  N   UNL     1       0.695  -0.520   1.195  0.00  0.00    -0.281 N 
ATOM     10  H   UNL     1       1.621  -0.365   1.440  0.00  0.00    +0.152 HD
BRANCH   3  11
ATOM     11  C   UNL     1       0.657  -0.517  -1.255  0.00  0.00    -0.014 A 
ATOM     12  C   UNL     1      -0.108  -0.772  -2.378  0.00  0.00    +0.008 A 
ATOM     13  C   UNL     1       0.491  -1.243  -3.531  0.00  0.00    +0.022 A 
ATOM     14  C   UNL     1       1.857  -1.459  -3.562  0.00  0.00    +0.059 A 
ATOM     15  C   UNL     1       2.623  -1.203  -2.437  0.00  0.00    +0.060 A 
ATOM     16  C   UNL     1       2.023  -0.727  -1.285  0.00  0.00    +0.027 A 
ATOM     17 CL   UNL     1       4.338  -1.474  -2.474  0.00  0.00    -0.082 Cl
ATOM     18 CL   UNL     1       2.611  -2.051  -5.009  0.00  0.00    -0.082 Cl
ENDBRANCH   3  11
ENDBRANCH   1   6
BRANCH   1  19
ATOM     19  N   UNL     1      -2.584  -3.356   1.274  0.00  0.00    +0.395 N 
ATOM     20  C   UNL     1      -2.797  -3.319  -0.185  0.00  0.00    -0.076 C 
ATOM     21  C   UNL     1      -4.084  -4.118  -0.480  0.00  0.00    -0.020 C 
ATOM     22  C   UNL     1      -4.216  -5.039   0.762  0.00  0.00    -0.012 C 
ATOM     23  C   UNL     1      -3.690  -4.118   1.892  0.00  0.00    -0.035 C 
ATOM     24  H   UNL     1      -1.706  -3.809   1.475  0.00  0.00    -0.079 HD
BRANCH  23  25
ATOM     25  C   UNL     1      -3.179  -4.941   3.046  0.00  0.00    -0.057 A 
ATOM     26  C   UNL     1      -1.958  -5.582   2.947  0.00  0.00    +0.006 A 
ATOM     27  C   UNL     1      -1.483  -6.340   4.002  0.00  0.00    +0.049 A 
ATOM     28  C   UNL     1      -2.235  -6.454   5.159  0.00  0.00    +0.162 A 
ATOM     29  C   UNL     1      -3.460  -5.810   5.258  0.00  0.00    +0.162 A 
ATOM     30  C   UNL     1      -3.931  -5.049   4.202  0.00  0.00    +0.051 A 
ATOM     31  O   UNL     1      -4.193  -5.928   6.403  0.00  0.00    -0.488 OA
ATOM     32  C   UNL     1      -4.734  -7.224   6.669  0.00  0.00    +0.232 C 
ATOM     33  C   UNL     1      -3.708  -8.104   7.367  0.00  0.00    +0.082 C 
ATOM     34  C   UNL     1      -2.502  -8.396   6.489  0.00  0.00    +0.232 C 
ATOM     35  O   UNL     1      -1.777  -7.197   6.208  0.00  0.00    -0.488 OA
ENDBRANCH  23  25
ENDBRANCH   1  19
TORSDOF 4
