REMARK  Name = ZINC09135766
REMARK  9 active torsions:
REMARK  status: ('A' for Active; 'I' for Inactive)
REMARK    1  A    between atoms: C_1  and  C_2
REMARK    2  A    between atoms: C_5  and  N_9
REMARK    3  A    between atoms: C_6  and  C_8
REMARK    4  A    between atoms: C_10  and  C_12
REMARK    5  A    between atoms: N_14  and  C_15
REMARK    6  A    between atoms: C_15  and  C_16
REMARK    7  A    between atoms: C_16  and  C_18
REMARK    8  A    between atoms: C_16  and  N_66
REMARK    9  A    between atoms: N_27  and  C_28
REMARK                            x       y       z     vdW  Elec       q    Type
REMARK                         _______ _______ _______ _____ _____    ______ ____
ROOT
ATOM      1  C   UNL     1       3.864  -2.309   4.031  0.00  0.00    -0.020 C 
ENDROOT
BRANCH   1   2
ATOM      2  C   UNL     1       2.821  -1.920   3.015  0.00  0.00    -0.059 A 
ATOM      3  C   UNL     1       1.715  -2.726   2.815  0.00  0.00    +0.004 A 
ATOM      4  C   UNL     1       0.764  -2.370   1.884  0.00  0.00    +0.023 A 
ATOM      5  C   UNL     1       0.908  -1.198   1.139  0.00  0.00    +0.033 A 
ATOM      6  C   UNL     1       2.014  -0.392   1.347  0.00  0.00    -0.026 A 
ATOM      7  C   UNL     1       2.968  -0.759   2.283  0.00  0.00    +0.007 A 
ATOM      8  C   UNL     1       2.220   0.894   0.588  0.00  0.00    +0.038 C 
ATOM      9  C   UNL     1       1.296   0.926  -0.632  0.00  0.00    +0.024 C 
ATOM     10  C   UNL     1      -0.109   0.518  -0.171  0.00  0.00    +0.105 C 
ATOM     11  N   UNL     1      -0.085  -0.896   0.208  0.00  0.00    -0.333 N 
ATOM     12  C   UNL     1      -1.404  -1.336   0.684  0.00  0.00    +0.129 C 
ENDBRANCH   1   2
BRANCH   1  17
ATOM     13  C   UNL     1       4.564  -4.168   2.623  0.00  0.00    -0.078 C 
ATOM     14  C   UNL     1       5.232  -5.541   2.884  0.00  0.00    -0.020 C 
ATOM     15  C   UNL     1       5.911  -5.340   4.258  0.00  0.00    -0.020 C 
ATOM     16  C   UNL     1       5.154  -4.169   4.913  0.00  0.00    -0.078 C 
ATOM     17  N   UNL     1       4.106  -3.781   3.967  0.00  0.00    +0.385 N 
ATOM     18  H   UNL     1       3.235  -4.276   4.192  0.00  0.00    -0.081 HD
ENDBRANCH   1  17
BRANCH   1  19
ATOM     19  C   UNL     1       3.380  -1.926   5.431  0.00  0.00    +0.094 C 
BRANCH  19  22
ATOM     20  C   UNL     1       2.766   0.097   6.643  0.00  0.00    +0.299 C 
ATOM     21  O   UNL     1       2.393  -0.603   7.562  0.00  0.00    -0.265 OA
ATOM     22  N   UNL     1       3.276  -0.468   5.530  0.00  0.00    -0.309 N 
ATOM     23  H   UNL     1       3.574   0.090   4.795  0.00  0.00    +0.149 HD
BRANCH  20  25
ATOM     24  N   UNL     1       2.149   2.148   7.856  0.00  0.00    -0.278 N 
ATOM     25  C   UNL     1       2.659   1.583   6.744  0.00  0.00    +0.303 C 
ATOM     26  O   UNL     1       3.032   2.282   5.824  0.00  0.00    -0.265 OA
ATOM     27  H   UNL     1       1.913   1.594   8.617  0.00  0.00    +0.155 HD
BRANCH  24  32
ATOM     28  C   UNL     1       1.384   7.762   8.090  0.00  0.00    +0.044 C 
ATOM     29  C   UNL     1       1.588   6.271   8.028  0.00  0.00    -0.050 A 
ATOM     30  C   UNL     1       2.586   5.743   7.229  0.00  0.00    +0.005 A 
ATOM     31  C   UNL     1       2.774   4.376   7.169  0.00  0.00    +0.024 A 
ATOM     32  C   UNL     1       1.961   3.531   7.914  0.00  0.00    +0.037 A 
ATOM     33  C   UNL     1       0.956   4.064   8.711  0.00  0.00    -0.029 A 
ATOM     34  C   UNL     1       0.776   5.432   8.770  0.00  0.00    +0.008 A 
ATOM     35  C   UNL     1       0.067   3.151   9.516  0.00  0.00    +0.045 C 
ENDBRANCH  24  32
ENDBRANCH  20  25
ENDBRANCH  19  22
ENDBRANCH   1  19
TORSDOF 6
