REMARK  Name = ZINC42869760
REMARK  7 active torsions:
REMARK  status: ('A' for Active; 'I' for Inactive)
REMARK    1  A    between atoms: C_1  and  C_2
REMARK    2  A    between atoms: C_8  and  C_10
REMARK    3  A    between atoms: C_10  and  N_11
REMARK    4  A    between atoms: N_11  and  S_12
REMARK    5  A    between atoms: S_12  and  C_15
REMARK    6  A    between atoms: C_18  and  N_21
REMARK    7  A    between atoms: N_21  and  N_22
REMARK                            x       y       z     vdW  Elec       q    Type
REMARK                         _______ _______ _______ _____ _____    ______ ____
ROOT
ATOM      1  S   UNL     1       4.574  -0.471   2.385  0.00  0.00    +0.058 S 
ATOM      2  O   UNL     1       4.990  -1.091   3.594  0.00  0.00    -0.153 OA
ATOM      3  O   UNL     1       5.030  -0.904   1.111  0.00  0.00    -0.153 OA
ENDROOT
BRANCH   1   4
ATOM      4  C   UNL     1       5.000   1.233   2.520  0.00  0.00    +0.105 A 
ATOM      5  C   UNL     1       5.180   1.992   1.378  0.00  0.00    +0.030 A 
ATOM      6  C   UNL     1       5.514   3.328   1.481  0.00  0.00    +0.026 A 
ATOM      7  C   UNL     1       5.668   3.910   2.733  0.00  0.00    +0.041 A 
ATOM      8  C   UNL     1       5.487   3.145   3.878  0.00  0.00    +0.026 A 
ATOM      9  C   UNL     1       5.147   1.810   3.768  0.00  0.00    +0.030 A 
BRANCH   7  10
ATOM     10  N   UNL     1       6.006   5.261   2.840  0.00  0.00    -0.283 N 
ATOM     11  H   UNL     1       6.133   5.794   2.040  0.00  0.00    +0.166 HD
BRANCH  10  12
ATOM     12  N   UNL     1       6.158   5.831   4.072  0.00  0.00    -0.257 NA
ATOM     13  H   UNL     1       6.401   6.807   3.991  0.00  0.00    +0.140 HD
ATOM     14  H   UNL     1       5.327   5.711   4.631  0.00  0.00    +0.140 HD
ENDBRANCH  10  12
ENDBRANCH   7  10
ENDBRANCH   1   4
BRANCH   1  15
ATOM     15  N   UNL     1       2.921  -0.562   2.352  0.00  0.00    -0.190 NA
ATOM     16  H   UNL     1       2.444  -0.999   3.075  0.00  0.00    +0.148 HD
BRANCH  15  17
ATOM     17  C   UNL     1       2.178   0.019   1.231  0.00  0.00    +0.109 C 
BRANCH  17  24
ATOM     18  C   UNL     1      -0.019   1.526   0.010  0.00  0.00    +0.008 C 
ATOM     19  C   UNL     1       0.002  -0.004   0.002  0.00  0.00    -0.010 C 
ATOM     20  C   UNL     1      -1.433  -0.534   0.013  0.00  0.00    +0.003 C 
ATOM     21  C   UNL     1      -2.149  -0.040   1.272  0.00  0.00    +0.000 C 
ATOM     22  C   UNL     1      -1.409  -0.547   2.511  0.00  0.00    +0.000 C 
ATOM     23  C   UNL     1       0.026  -0.018   2.500  0.00  0.00    +0.005 C 
ATOM     24  C   UNL     1       0.742  -0.511   1.242  0.00  0.00    +0.007 C 
ENDBRANCH  17  24
ENDBRANCH  15  17
ENDBRANCH   1  15
TORSDOF 6
