REMARK  Name = ZINC36660369
REMARK  12 active torsions:
REMARK  status: ('A' for Active; 'I' for Inactive)
REMARK    1  A    between atoms: C_1  and  C_2
REMARK    2  A    between atoms: C_2  and  N_3
REMARK    3  A    between atoms: N_3  and  C_4
REMARK    4  A    between atoms: N_3  and  C_6
REMARK    5  A    between atoms: C_4  and  C_5
REMARK    6  A    between atoms: C_6  and  C_7
REMARK    7  A    between atoms: C_7  and  N_8
REMARK    8  A    between atoms: C_12  and  C_19
REMARK    9  A    between atoms: C_14  and  C_18
REMARK   10  A    between atoms: C_20  and  C_22
REMARK   11  A    between atoms: N_27  and  S_28
REMARK   12  A    between atoms: S_28  and  C_31
REMARK                            x       y       z     vdW  Elec       q    Type
REMARK                         _______ _______ _______ _____ _____    ______ ____
ROOT
ATOM      1  N   UNL     1      -1.070  -3.603  -1.588  0.00  0.00    -0.251 N 
ATOM      2  C   UNL     1      -1.035  -4.389  -0.448  0.00  0.00    +0.168 A 
ATOM      3  N   UNL     1      -1.091  -5.697  -0.348  0.00  0.00    -0.224 NA
ATOM      4  C   UNL     1      -1.045  -6.337   0.841  0.00  0.00    +0.083 A 
ATOM      5  C   UNL     1      -1.097  -7.729   1.086  0.00  0.00    -0.024 A 
ATOM      6  C   UNL     1      -1.038  -8.217   2.365  0.00  0.00    +0.009 A 
ATOM      7  C   UNL     1      -0.928  -7.371   3.459  0.00  0.00    -0.049 A 
ATOM      8  C   UNL     1      -0.875  -6.004   3.257  0.00  0.00    +0.020 A 
ATOM      9  C   UNL     1      -0.933  -5.506   1.979  0.00  0.00    +0.041 A 
ATOM     10  S   UNL     1      -0.894  -3.882   1.260  0.00  0.00    -0.052 S 
ATOM     11  C   UNL     1      -0.867  -7.936   4.855  0.00  0.00    +0.044 C 
ATOM     12  C   UNL     1      -1.217  -8.685  -0.072  0.00  0.00    +0.046 C 
ATOM     13  C   UNL     1      -1.281  -4.171  -2.792  0.00  0.00    +0.240 C 
ATOM     14  O   UNL     1      -1.225  -3.497  -3.799  0.00  0.00    -0.273 OA
ENDROOT
BRANCH  13  15
ATOM     15  C   UNL     1      -1.586  -5.644  -2.888  0.00  0.00    +0.166 C 
ATOM     16  C   UNL     1      -3.059  -5.900  -2.508  0.00  0.00    +0.031 C 
ATOM     17  C   UNL     1      -3.767  -5.968  -3.887  0.00  0.00    +0.019 C 
ATOM     18  C   UNL     1      -2.685  -6.652  -4.759  0.00  0.00    +0.110 C 
ATOM     19  N   UNL     1      -1.402  -6.104  -4.272  0.00  0.00    -0.165 NA
BRANCH  19  20
ATOM     20  S   UNL     1       0.006  -6.017  -5.139  0.00  0.00    +0.062 S 
ATOM     21  O   UNL     1      -0.361  -6.023  -6.512  0.00  0.00    -0.153 OA
ATOM     22  O   UNL     1       0.775  -4.972  -4.561  0.00  0.00    -0.153 OA
BRANCH  20  23
ATOM     23  C   UNL     1       0.890  -7.513  -4.848  0.00  0.00    +0.106 A 
ATOM     24  C   UNL     1       1.778  -7.596  -3.792  0.00  0.00    +0.031 A 
ATOM     25  C   UNL     1       2.472  -8.769  -3.562  0.00  0.00    +0.040 A 
ATOM     26  C   UNL     1       2.276  -9.862  -4.389  0.00  0.00    +0.124 A 
ATOM     27  C   UNL     1       1.386  -9.778  -5.447  0.00  0.00    +0.040 A 
ATOM     28  C   UNL     1       0.690  -8.605  -5.671  0.00  0.00    +0.031 A 
ATOM     29  F   UNL     1       2.954 -11.009  -4.166  0.00  0.00    -0.205 F 
ENDBRANCH  20  23
ENDBRANCH  19  20
ENDBRANCH  13  15
BRANCH   1  30
ATOM     30  C   UNL     1      -0.879  -2.154  -1.485  0.00  0.00    +0.097 C 
BRANCH  30  31
ATOM     31  C   UNL     1       0.595  -1.817  -1.721  0.00  0.00    -0.059 C 
BRANCH  31  32
ATOM     32  N   UNL     1       0.797  -0.370  -1.563  0.00  0.00    +0.380 N 
ATOM     33  H   UNL     1       0.167   0.126  -2.175  0.00  0.00    -0.082 HD
BRANCH  32  35
ATOM     34  C   UNL     1       0.589   1.535  -0.039  0.00  0.00    -0.017 C 
ATOM     35  C   UNL     1       0.529   0.012  -0.170  0.00  0.00    -0.082 C 
ENDBRANCH  32  35
BRANCH  32  36
ATOM     36  C   UNL     1       2.184  -0.029  -1.906  0.00  0.00    -0.082 C 
ATOM     37  C   UNL     1       2.423  -0.299  -3.393  0.00  0.00    -0.017 C 
ENDBRANCH  32  36
ENDBRANCH  31  32
ENDBRANCH  30  31
ENDBRANCH   1  30
TORSDOF 8
