REMARK  Name = ZINC19932821
REMARK  10 active torsions:
REMARK  status: ('A' for Active; 'I' for Inactive)
REMARK    1  A    between atoms: C_1  and  C_2
REMARK    2  A    between atoms: C_2  and  O_3
REMARK    3  A    between atoms: O_3  and  C_4
REMARK    4  A    between atoms: C_7  and  N_10
REMARK    5  A    between atoms: C_11  and  C_29
REMARK    6  A    between atoms: C_21  and  C_22
REMARK    7  A    between atoms: C_32  and  O_37
REMARK    8  A    between atoms: C_33  and  O_35
REMARK    9  A    between atoms: O_35  and  C_36
REMARK   10  A    between atoms: O_37  and  C_38
REMARK                            x       y       z     vdW  Elec       q    Type
REMARK                         _______ _______ _______ _____ _____    ______ ____
ROOT
ATOM      1  N   UNL     1       2.214  -0.312  -0.069  0.00  0.00    -0.255 N 
ATOM      2  C   UNL     1       0.893   0.219  -0.441  0.00  0.00    +0.146 C 
ATOM      3  C   UNL     1       0.529  -0.459  -1.725  0.00  0.00    +0.027 C 
ATOM      4  C   UNL     1       1.534  -1.318  -2.031  0.00  0.00    +0.098 C 
ATOM      5  C   UNL     1       2.581  -1.209  -1.008  0.00  0.00    +0.266 C 
ATOM      6  O   UNL     1       3.624  -1.834  -1.008  0.00  0.00    -0.268 OA
ATOM      7  N   UNL     1       1.475  -2.151  -3.139  0.00  0.00    -0.338 N 
ATOM      8  C   UNL     1       0.463  -3.214  -3.148  0.00  0.00    +0.122 C 
ATOM      9  C   UNL     1      -0.855  -2.681  -2.575  0.00  0.00    +0.131 C 
ATOM     10  N   UNL     1      -1.225  -1.364  -3.083  0.00  0.00    -0.382 N 
ATOM     11  C   UNL     1      -0.635  -0.289  -2.599  0.00  0.00    +0.050 C 
ATOM     12  H   UNL     1       2.158  -2.035  -3.993  0.00  0.00    +0.146 HD
ATOM     13  H   UNL     1      -1.991  -1.266  -3.866  0.00  0.00    +0.160 HD
ENDROOT
BRANCH  11  14
ATOM     14  C   UNL     1      -1.140   1.065  -2.931  0.00  0.00    -0.002 A 
ATOM     15  C   UNL     1      -2.511   1.318  -2.938  0.00  0.00    +0.011 A 
ATOM     16  C   UNL     1      -2.976   2.581  -3.242  0.00  0.00    +0.020 A 
ATOM     17  C   UNL     1      -2.083   3.593  -3.552  0.00  0.00    +0.041 A 
ATOM     18  C   UNL     1      -0.720   3.345  -3.553  0.00  0.00    +0.020 A 
ATOM     19  C   UNL     1      -0.246   2.088  -3.244  0.00  0.00    +0.011 A 
ATOM     20 CL   UNL     1      -2.674   5.178  -3.941  0.00  0.00    -0.084 Cl
ENDBRANCH  11  14
BRANCH   1  24
ATOM     21  C   UNL     1       4.434   0.764   3.291  0.00  0.00    +0.121 A 
ATOM     22  C   UNL     1       4.933  -0.177   2.403  0.00  0.00    +0.047 A 
ATOM     23  C   UNL     1       4.199  -0.534   1.289  0.00  0.00    +0.027 A 
ATOM     24  C   UNL     1       2.959   0.049   1.059  0.00  0.00    +0.038 A 
ATOM     25  C   UNL     1       2.462   0.995   1.946  0.00  0.00    +0.027 A 
ATOM     26  C   UNL     1       3.196   1.347   3.062  0.00  0.00    +0.047 A 
BRANCH  21  27
ATOM     27  O   UNL     1       5.158   1.116   4.387  0.00  0.00    -0.492 OA
BRANCH  27  29
ATOM     28  C   UNL     1       5.535   2.356   6.427  0.00  0.00    +0.048 C 
ATOM     29  C   UNL     1       4.583   2.091   5.259  0.00  0.00    +0.225 C 
ENDBRANCH  27  29
ENDBRANCH  21  27
ENDBRANCH   1  24
BRANCH   2  30
ATOM     30  C   UNL     1       0.970   1.711  -0.643  0.00  0.00    -0.018 A 
ATOM     31  C   UNL     1       2.067   2.265  -1.275  0.00  0.00    +0.009 A 
ATOM     32  C   UNL     1       2.142   3.632  -1.464  0.00  0.00    +0.050 A 
ATOM     33  C   UNL     1       1.116   4.450  -1.020  0.00  0.00    +0.162 A 
ATOM     34  C   UNL     1       0.011   3.893  -0.384  0.00  0.00    +0.162 A 
ATOM     35  C   UNL     1      -0.060   2.521  -0.203  0.00  0.00    +0.055 A 
BRANCH  34  36
ATOM     36  O   UNL     1      -0.998   4.691   0.054  0.00  0.00    -0.491 OA
ATOM     37  C   UNL     1      -2.101   4.049   0.698  0.00  0.00    +0.277 C 
ENDBRANCH  34  36
BRANCH  33  38
ATOM     38  O   UNL     1       1.188   5.796  -1.206  0.00  0.00    -0.491 OA
ATOM     39  C   UNL     1       2.351   6.298  -1.867  0.00  0.00    +0.277 C 
ENDBRANCH  33  38
ENDBRANCH   2  30
TORSDOF 7
