REMARK  Name = ZINC63175852
REMARK  6 active torsions:
REMARK  status: ('A' for Active; 'I' for Inactive)
REMARK    1  A    between atoms: C_1  and  O_2
REMARK    2  A    between atoms: O_2  and  C_3
REMARK    3  A    between atoms: C_6  and  S_10
REMARK    4  A    between atoms: S_10  and  N_13
REMARK    5  A    between atoms: N_13  and  C_14
REMARK    6  A    between atoms: C_19  and  N_21
REMARK                            x       y       z     vdW  Elec       q    Type
REMARK                         _______ _______ _______ _____ _____    ______ ____
ROOT
ATOM      1  S   UNL     1       2.705  -2.665   4.506  0.00  0.00    +0.059 S 
ATOM      2  O   UNL     1       3.100  -3.949   4.042  0.00  0.00    -0.153 OA
ATOM      3  O   UNL     1       3.634  -1.727   5.033  0.00  0.00    -0.153 OA
ENDROOT
BRANCH   1   7
ATOM      4  C   UNL     1       0.626  -0.618   1.042  0.00  0.00    +0.134 A 
ATOM      5  C   UNL     1       1.202   0.138   2.051  0.00  0.00    +0.048 A 
ATOM      6  C   UNL     1       1.836  -0.488   3.107  0.00  0.00    +0.032 A 
ATOM      7  C   UNL     1       1.896  -1.869   3.158  0.00  0.00    +0.107 A 
ATOM      8  C   UNL     1       1.323  -2.626   2.153  0.00  0.00    +0.047 A 
ATOM      9  C   UNL     1       0.682  -2.004   1.098  0.00  0.00    +0.061 A 
ATOM     10 BR   UNL     1      -0.109  -3.040  -0.272  0.00  0.00    -0.046 Br
BRANCH   4  12
ATOM     11  C   UNL     1      -0.017   1.425   0.010  0.00  0.00    +0.277 C 
ATOM     12  O   UNL     1       0.002  -0.004   0.002  0.00  0.00    -0.494 OA
ENDBRANCH   4  12
ENDBRANCH   1   7
BRANCH   1  13
ATOM     13  N   UNL     1       1.567  -2.916   5.682  0.00  0.00    -0.188 NA
ATOM     14  H   UNL     1       1.643  -2.461   6.535  0.00  0.00    +0.148 HD
BRANCH  13  15
ATOM     15  C   UNL     1       0.445  -3.824   5.433  0.00  0.00    +0.062 C 
ATOM     16  C   UNL     1       0.751  -5.216   6.023  0.00  0.00    +0.019 C 
ATOM     17  C   UNL     1       0.073  -5.196   7.416  0.00  0.00    -0.000 C 
ATOM     18  C   UNL     1      -1.234  -4.409   7.149  0.00  0.00    -0.015 C 
ATOM     19  C   UNL     1      -0.818  -3.310   6.148  0.00  0.00    -0.056 C 
BRANCH  19  20
ATOM     20  N   UNL     1      -1.892  -3.084   5.171  0.00  0.00    +0.381 N 
ATOM     21  H   UNL     1      -2.107  -3.951   4.701  0.00  0.00    -0.090 HD
ATOM     22  H   UNL     1      -2.715  -2.748   5.649  0.00  0.00    -0.090 HD
ATOM     23  H   UNL     1      -1.592  -2.399   4.494  0.00  0.00    -0.090 HD
ENDBRANCH  19  20
ENDBRANCH  13  15
ENDBRANCH   1  13
TORSDOF 5
