REMARK  Name = ZINC63179999
REMARK  7 active torsions:
REMARK  status: ('A' for Active; 'I' for Inactive)
REMARK    1  A    between atoms: C_7  and  C_10
REMARK    2  A    between atoms: C_10  and  C_11
REMARK    3  A    between atoms: C_11  and  C_13
REMARK    4  A    between atoms: C_11  and  N_25
REMARK    5  A    between atoms: N_15  and  C_16
REMARK    6  A    between atoms: C_19  and  C_22
REMARK    7  A    between atoms: C_26  and  C_28
REMARK                            x       y       z     vdW  Elec       q    Type
REMARK                         _______ _______ _______ _____ _____    ______ ____
ROOT
ATOM      1  C   UNL     1       0.625  -3.522  -1.461  0.00  0.00    +0.163 C 
ENDROOT
BRANCH   1   2
ATOM      2  C   UNL     1      -0.457  -4.558  -1.627  0.00  0.00    +0.238 C 
ATOM      3  O   UNL     1      -0.187  -5.648  -2.086  0.00  0.00    -0.273 OA
ATOM      4  N   UNL     1      -1.724  -4.273  -1.266  0.00  0.00    -0.284 N 
ATOM      5  H   UNL     1      -1.927  -3.428  -0.836  0.00  0.00    +0.155 HD
BRANCH   4   6
ATOM      6  C   UNL     1      -2.742  -5.194  -1.512  0.00  0.00    +0.033 A 
ATOM      7  C   UNL     1      -2.485  -6.557  -1.408  0.00  0.00    +0.024 A 
ATOM      8  C   UNL     1      -3.489  -7.468  -1.649  0.00  0.00    +0.015 A 
ATOM      9  C   UNL     1      -4.766  -7.022  -1.998  0.00  0.00    +0.037 A 
ATOM     10  C   UNL     1      -5.021  -5.652  -2.101  0.00  0.00    +0.015 A 
ATOM     11  C   UNL     1      -4.014  -4.746  -1.853  0.00  0.00    +0.024 A 
BRANCH   9  12
ATOM     12  C   UNL     1      -5.844  -7.997  -2.258  0.00  0.00    +0.242 C 
ATOM     13  O   UNL     1      -5.621  -9.188  -2.168  0.00  0.00    -0.270 OA
ATOM     14  N   UNL     1      -7.076  -7.565  -2.594  0.00  0.00    -0.325 N 
ATOM     15  H   UNL     1      -7.254  -6.614  -2.666  0.00  0.00    +0.145 HD
ATOM     16  H   UNL     1      -7.784  -8.205  -2.765  0.00  0.00    +0.145 HD
ENDBRANCH   9  12
ENDBRANCH   4   6
ENDBRANCH   1   2
BRANCH   1  17
ATOM     17  N   UNL     1       1.903  -4.072  -1.922  0.00  0.00    -0.300 N 
ATOM     18  C   UNL     1       2.901  -3.243  -2.284  0.00  0.00    +0.245 C 
ATOM     19  O   UNL     1       2.743  -2.039  -2.228  0.00  0.00    -0.270 OA
ATOM     20  H   UNL     1       2.029  -5.033  -1.967  0.00  0.00    +0.150 HD
BRANCH  18  21
ATOM     21  C   UNL     1       4.189  -3.797  -2.749  0.00  0.00    +0.037 A 
ATOM     22  C   UNL     1       4.373  -5.180  -2.820  0.00  0.00    +0.016 A 
ATOM     23  C   UNL     1       5.576  -5.692  -3.254  0.00  0.00    +0.039 A 
ATOM     24  C   UNL     1       6.605  -4.837  -3.620  0.00  0.00    +0.123 A 
ATOM     25  C   UNL     1       6.428  -3.463  -3.552  0.00  0.00    +0.039 A 
ATOM     26  C   UNL     1       5.226  -2.941  -3.125  0.00  0.00    +0.016 A 
ATOM     27  F   UNL     1       7.783  -5.344  -4.045  0.00  0.00    -0.205 F 
ENDBRANCH  18  21
ENDBRANCH   1  17
BRANCH   1  28
ATOM     28  C   UNL     1       0.739  -3.136   0.015  0.00  0.00    +0.065 C 
BRANCH  28  35
ATOM     29  C   UNL     1       4.807  -4.670   1.484  0.00  0.00    +0.001 A 
ATOM     30  C   UNL     1       4.727  -5.861   2.217  0.00  0.00    +0.002 A 
ATOM     31  C   UNL     1       3.557  -6.489   2.463  0.00  0.00    +0.026 A 
ATOM     32  C   UNL     1       2.336  -5.950   1.974  0.00  0.00    +0.043 A 
ATOM     33  N   UNL     1       1.096  -6.364   2.076  0.00  0.00    -0.380 N 
ATOM     34  C   UNL     1       0.226  -5.414   1.373  0.00  0.00    +0.144 C 
ATOM     35  C   UNL     1       1.141  -4.345   0.821  0.00  0.00    -0.039 C 
ATOM     36  C   UNL     1       2.393  -4.692   1.195  0.00  0.00    -0.001 A 
ATOM     37  C   UNL     1       3.706  -4.073   0.974  0.00  0.00    +0.010 A 
ATOM     38  H   UNL     1       0.803  -7.165   2.539  0.00  0.00    +0.160 HD
ENDBRANCH  28  35
ENDBRANCH   1  28
TORSDOF 7
