REMARK  Name = ZINC12361306
REMARK  8 active torsions:
REMARK  status: ('A' for Active; 'I' for Inactive)
REMARK    1  A    between atoms: C_1  and  C_2
REMARK    2  A    between atoms: C_6  and  C_8
REMARK    3  A    between atoms: C_8  and  O_28
REMARK    4  A    between atoms: C_13  and  C_14
REMARK    5  A    between atoms: C_13  and  N_56
REMARK    6  A    between atoms: C_14  and  C_16
REMARK    7  A    between atoms: C_14  and  O_27
REMARK    8  A    between atoms: C_23  and  C_26
REMARK                            x       y       z     vdW  Elec       q    Type
REMARK                         _______ _______ _______ _____ _____    ______ ____
ROOT
ATOM      1  C   UNL     1       6.803   5.816   1.943  0.00  0.00    +0.088 C 
ATOM      2  C   UNL     1       6.827   4.636   2.918  0.00  0.00    +0.021 C 
ATOM      3  C   UNL     1       5.489   3.897   2.850  0.00  0.00    -0.076 C 
ATOM      4  C   UNL     1       5.188   4.537   0.532  0.00  0.00    -0.076 C 
ATOM      5  C   UNL     1       6.517   5.296   0.531  0.00  0.00    +0.021 C 
ATOM      6  N   UNL     1       5.285   3.400   1.472  0.00  0.00    +0.382 N 
ATOM      7  H   UNL     1       6.087   2.816   1.207  0.00  0.00    -0.082 HD
ENDROOT
BRANCH   1  13
ATOM      8  C   UNL     1       9.522   9.988   1.441  0.00  0.00    +0.044 C 
ATOM      9  C   UNL     1       9.439   8.510   1.723  0.00  0.00    -0.050 A 
ATOM     10  C   UNL     1      10.589   7.794   2.000  0.00  0.00    +0.003 A 
ATOM     11  C   UNL     1      10.513   6.438   2.260  0.00  0.00    +0.001 A 
ATOM     12  C   UNL     1       9.287   5.799   2.245  0.00  0.00    +0.006 A 
ATOM     13  C   UNL     1       8.139   6.514   1.963  0.00  0.00    -0.016 A 
ATOM     14  C   UNL     1       8.214   7.870   1.704  0.00  0.00    +0.009 A 
ENDBRANCH   1  13
BRANCH   1  15
ATOM     15  O   UNL     1       5.779   6.735   2.329  0.00  0.00    -0.384 OA
ATOM     16  H   UNL     1       5.707   7.508   1.754  0.00  0.00    +0.211 HD
ENDBRANCH   1  15
BRANCH   6  17
ATOM     17  C   UNL     1       4.055   2.585   1.407  0.00  0.00    -0.042 C 
BRANCH  17  18
ATOM     18  C   UNL     1       4.273   1.300   2.209  0.00  0.00    +0.128 C 
BRANCH  18  19
ATOM     19  C   UNL     1       3.039   0.438   2.121  0.00  0.00    -0.020 A 
ATOM     20  C   UNL     1       2.867  -0.419   1.049  0.00  0.00    +0.009 A 
ATOM     21  C   UNL     1       1.742  -1.212   0.966  0.00  0.00    +0.046 A 
ATOM     22  C   UNL     1       0.768  -1.156   1.960  0.00  0.00    +0.124 A 
ATOM     23  C   UNL     1       0.950  -0.288   3.029  0.00  0.00    -0.002 A 
ATOM     24  C   UNL     1       2.076   0.501   3.112  0.00  0.00    +0.013 A 
ATOM     25  C   UNL     1      -0.260  -0.433   3.930  0.00  0.00    +0.083 C 
ATOM     26  C   UNL     1      -1.261  -1.167   3.007  0.00  0.00    +0.175 C 
ATOM     27  O   UNL     1      -0.398  -1.849   2.081  0.00  0.00    -0.488 OA
ATOM     28  C   UNL     1      -2.158  -0.166   2.275  0.00  0.00    +0.052 C 
ENDBRANCH  18  19
BRANCH  18  29
ATOM     29  O   UNL     1       5.390   0.588   1.674  0.00  0.00    -0.389 OA
ATOM     30  H   UNL     1       5.287   0.332   0.748  0.00  0.00    +0.210 HD
ENDBRANCH  18  29
ENDBRANCH  17  18
ENDBRANCH   6  17
TORSDOF 6
