REMARK  Name = ZINC46089650
REMARK  9 active torsions:
REMARK  status: ('A' for Active; 'I' for Inactive)
REMARK    1  A    between atoms: C_1  and  N_2
REMARK    2  A    between atoms: N_2  and  C_3
REMARK    3  A    between atoms: N_2  and  C_13
REMARK    4  A    between atoms: C_3  and  C_4
REMARK    5  A    between atoms: C_13  and  C_14
REMARK    6  A    between atoms: N_16  and  C_17
REMARK    7  A    between atoms: C_22  and  S_23
REMARK    8  A    between atoms: S_23  and  C_24
REMARK    9  A    between atoms: C_24  and  C_25
REMARK                            x       y       z     vdW  Elec       q    Type
REMARK                         _______ _______ _______ _____ _____    ______ ____
ROOT
ATOM      1  C   UNL     1      -2.042  -0.133   1.310  0.00  0.00    +0.201 C 
ATOM      2  O   UNL     1      -1.431   0.506   2.140  0.00  0.00    -0.278 OA
ATOM      3  N   UNL     1      -3.320  -0.492   1.542  0.00  0.00    -0.286 N 
ATOM      4  H   UNL     1      -3.834  -0.933   0.847  0.00  0.00    +0.155 HD
ENDROOT
BRANCH   3   5
ATOM      5  C   UNL     1      -3.906  -0.229   2.787  0.00  0.00    +0.047 A 
ATOM      6  C   UNL     1      -3.112  -0.093   3.915  0.00  0.00    +0.024 A 
ATOM      7  C   UNL     1      -3.693   0.167   5.143  0.00  0.00    +0.002 A 
ATOM      8  C   UNL     1      -5.066   0.292   5.250  0.00  0.00    +0.001 A 
ATOM      9  C   UNL     1      -5.866   0.159   4.132  0.00  0.00    +0.016 A 
ATOM     10  C   UNL     1      -5.291  -0.097   2.894  0.00  0.00    +0.030 A 
BRANCH  10  11
ATOM     11  S   UNL     1      -6.308  -0.261   1.465  0.00  0.00    -0.114 S 
BRANCH  11  12
ATOM     12  C   UNL     1      -7.992  -0.014   2.093  0.00  0.00    +0.169 C 
BRANCH  12  13
ATOM     13  C   UNL     1      -8.974  -0.130   0.956  0.00  0.00    +0.221 C 
ATOM     14  O   UNL     1      -8.577  -0.357  -0.167  0.00  0.00    -0.275 OA
ATOM     15  N   UNL     1     -10.293   0.018   1.188  0.00  0.00    -0.329 N 
ATOM     16  H   UNL     1     -10.611   0.200   2.086  0.00  0.00    +0.145 HD
ATOM     17  H   UNL     1     -10.926  -0.057   0.456  0.00  0.00    +0.145 HD
ENDBRANCH  12  13
ENDBRANCH  11  12
ENDBRANCH  10  11
ENDBRANCH   3   5
BRANCH   1  18
ATOM     18  C   UNL     1      -1.371  -0.526   0.019  0.00  0.00    +0.019 C 
BRANCH  18  20
ATOM     19  C   UNL     1      -0.011   1.449   0.006  0.00  0.00    -0.095 C 
ATOM     20  N   UNL     1       0.007  -0.020   0.009  0.00  0.00    +0.386 N 
ATOM     21  H   UNL     1       0.492  -0.348   0.830  0.00  0.00    -0.081 HD
BRANCH  20  22
ATOM     22  C   UNL     1       0.698  -0.503  -1.194  0.00  0.00    -0.042 C 
BRANCH  22  23
ATOM     23  C   UNL     1       2.146  -0.086  -1.144  0.00  0.00    -0.049 A 
ATOM     24  C   UNL     1       2.566   0.984  -1.833  0.00  0.00    +0.048 A 
ATOM     25  S   UNL     1       4.307   1.062  -1.459  0.00  0.00    -0.096 S 
ATOM     26  C   UNL     1       4.422  -0.346  -0.386  0.00  0.00    +0.020 A 
ATOM     27  C   UNL     1       3.099  -0.838  -0.342  0.00  0.00    -0.009 A 
ATOM     28  C   UNL     1       2.876  -1.983   0.458  0.00  0.00    +0.009 A 
ATOM     29  C   UNL     1       3.897  -2.561   1.146  0.00  0.00    +0.001 A 
ATOM     30  C   UNL     1       5.188  -2.054   1.090  0.00  0.00    +0.001 A 
ATOM     31  C   UNL     1       5.449  -0.943   0.312  0.00  0.00    +0.015 A 
ENDBRANCH  22  23
ENDBRANCH  20  22
ENDBRANCH  18  20
ENDBRANCH   1  18
TORSDOF 8
