REMARK  Name = ZINC05797564
REMARK  7 active torsions:
REMARK  status: ('A' for Active; 'I' for Inactive)
REMARK    1  A    between atoms: C_1  and  C_2
REMARK    2  A    between atoms: C_2  and  C_3
REMARK    3  A    between atoms: N_9  and  C1*_18
REMARK    4  A    between atoms: C2*_20  and  O2*_30
REMARK    5  A    between atoms: C3*_22  and  O3*_29
REMARK    6  A    between atoms: C4*_24  and  C5*_27
REMARK    7  A    between atoms: C5*_27  and  O5*_28
REMARK                            x       y       z     vdW  Elec       q    Type
REMARK                         _______ _______ _______ _____ _____    ______ ____
ROOT
ATOM      1  C   UNL     1      -3.005   5.712  -5.883  0.00  0.00    +0.133 A 
ATOM      2  N   UNL     1      -3.175   4.485  -6.341  0.00  0.00    -0.215 NA
ATOM      3  C   UNL     1      -2.814   3.427  -5.623  0.00  0.00    +0.148 A 
ATOM      4  C   UNL     1      -2.244   3.639  -4.357  0.00  0.00    +0.149 A 
ATOM      5  C   UNL     1      -2.085   4.962  -3.915  0.00  0.00    +0.169 A 
ATOM      6  N   UNL     1      -2.476   5.958  -4.703  0.00  0.00    -0.212 NA
ATOM      7  N   UNL     1      -1.513   4.883  -2.666  0.00  0.00    -0.267 N 
ATOM      8  C   UNL     1      -1.340   3.557  -2.379  0.00  0.00    +0.203 A 
ATOM      9  N   UNL     1      -1.767   2.828  -3.380  0.00  0.00    -0.209 NA
ATOM     10  N   UNL     1      -0.793   3.061  -1.212  0.00  0.00    -0.301 N 
ATOM     11  C   UNL     1      -0.754   1.594  -1.231  0.00  0.00    +0.108 C 
ATOM     12  C   UNL     1      -0.013   1.086   0.008  0.00  0.00    +0.019 C 
ATOM     13  C   UNL     1      -0.731   1.580   1.267  0.00  0.00    +0.003 C 
ATOM     14  C   UNL     1      -0.801   3.110   1.237  0.00  0.00    +0.019 C 
ATOM     15  C   UNL     1      -1.520   3.559  -0.037  0.00  0.00    +0.108 C 
ATOM     16  N   UNL     1      -2.996   2.143  -6.111  0.00  0.00    -0.341 N 
ATOM     17  H   UNL     1      -2.111   1.681  -6.172  0.00  0.00    +0.144 HD
ATOM     18  H   UNL     1      -3.391   2.009  -6.987  0.00  0.00    +0.144 HD
ENDROOT
BRANCH   7  19
ATOM     19  C1* UNL     1      -1.156   6.011  -1.802  0.00  0.00    +0.255 C 
ATOM     20  C2* UNL     1      -2.426   6.647  -1.196  0.00  0.00    +0.195 C 
ATOM     21  C3* UNL     1      -2.116   8.161  -1.180  0.00  0.00    +0.178 C 
ATOM     22  C4* UNL     1      -0.696   8.260  -1.779  0.00  0.00    +0.177 C 
ATOM     23  O4* UNL     1      -0.546   7.065  -2.578  0.00  0.00    -0.346 OA
BRANCH  21  24
ATOM     24  O3* UNL     1      -3.055   8.872  -1.990  0.00  0.00    -0.386 OA
ATOM     25  H3* UNL     1      -2.907   9.827  -2.017  0.00  0.00    +0.210 HD
ENDBRANCH  21  24
BRANCH  20  26
ATOM     26  O2* UNL     1      -3.563   6.374  -2.016  0.00  0.00    -0.385 OA
ATOM     27  H2* UNL     1      -4.389   6.751  -1.682  0.00  0.00    +0.210 HD
ENDBRANCH  20  26
BRANCH  22  28
ATOM     28  C5* UNL     1      -0.573   9.508  -2.655  0.00  0.00    +0.190 C 
BRANCH  28  29
ATOM     29  O5* UNL     1       0.777   9.644  -3.104  0.00  0.00    -0.392 OA
ATOM     30  H5* UNL     1       0.929  10.416  -3.665  0.00  0.00    +0.210 HD
ENDBRANCH  28  29
ENDBRANCH  22  28
ENDBRANCH   7  19
BRANCH   1  32
ATOM     31  C   UNL     1      -4.891   7.224  -6.436  0.00  0.00    +0.012 C 
ATOM     32  C   UNL     1      -3.434   6.873  -6.742  0.00  0.00    +0.073 C 
ENDBRANCH   1  32
TORSDOF 6
