REMARK  Name = ZINC45766483
REMARK  7 active torsions:
REMARK  status: ('A' for Active; 'I' for Inactive)
REMARK    1  A    between atoms: C_1  and  C_2
REMARK    2  A    between atoms: N_7  and  C_8
REMARK    3  A    between atoms: C_15  and  C_17
REMARK    4  A    between atoms: C_17  and  N_18
REMARK    5  A    between atoms: C_23  and  C_30
REMARK    6  A    between atoms: C_26  and  C_28
REMARK    7  A    between atoms: C_26  and  C_29
REMARK                            x       y       z     vdW  Elec       q    Type
REMARK                         _______ _______ _______ _____ _____    ______ ____
ROOT
ATOM      1  C   UNL     1      -0.595   1.466   0.110  0.00  0.00    +0.044 C 
ATOM      2  C   UNL     1      -0.505  -0.034  -0.007  0.00  0.00    -0.046 A 
ATOM      3  C   UNL     1      -0.576  -0.648  -1.271  0.00  0.00    +0.021 A 
ATOM      4  C   UNL     1      -0.497  -1.988  -1.386  0.00  0.00    +0.096 A 
ATOM      5  N   UNL     1      -0.347  -2.778  -0.276  0.00  0.00    -0.272 N 
ATOM      6  C   UNL     1      -0.274  -2.204   0.979  0.00  0.00    +0.114 A 
ATOM      7  N   UNL     1      -0.130  -2.958   2.045  0.00  0.00    -0.368 N 
ATOM      8  C   UNL     1      -0.351  -0.795   1.106  0.00  0.00    +0.048 A 
ATOM      9  C   UNL     1      -0.270  -4.117  -0.408  0.00  0.00    +0.251 C 
ATOM     10  O   UNL     1      -0.030  -4.808   0.558  0.00  0.00    -0.271 OA
ATOM     11  H   UNL     1       0.008  -3.913   1.948  0.00  0.00    +0.161 HD
ENDROOT
BRANCH   7  12
ATOM     12  C   UNL     1      -0.178  -2.357   3.380  0.00  0.00    +0.081 C 
ATOM     13  C   UNL     1       1.208  -1.824   3.749  0.00  0.00    +0.024 C 
ATOM     14  C   UNL     1       1.159  -1.196   5.143  0.00  0.00    +0.002 C 
ATOM     15  C   UNL     1       0.730  -2.253   6.163  0.00  0.00    +0.000 C 
ATOM     16  C   UNL     1      -0.656  -2.785   5.794  0.00  0.00    +0.002 C 
ATOM     17  C   UNL     1      -0.607  -3.413   4.400  0.00  0.00    +0.024 C 
ENDBRANCH   7  12
BRANCH   9  18
ATOM     18  C   UNL     1      -0.482  -4.754  -1.758  0.00  0.00    +0.217 C 
BRANCH  18  19
ATOM     19  N   UNL     1      -0.347  -6.208  -1.637  0.00  0.00    -0.215 N 
ATOM     20  C   UNL     1       0.816  -6.876  -1.781  0.00  0.00    +0.247 C 
ATOM     21  O   UNL     1       1.907  -6.407  -2.025  0.00  0.00    -0.273 OA
ATOM     22  C   UNL     1       0.473  -8.333  -1.574  0.00  0.00    +0.113 C 
ATOM     23  C   UNL     1       1.230  -8.892  -0.374  0.00  0.00    +0.038 C 
ATOM     24  C   UNL     1       0.845 -10.359  -0.164  0.00  0.00    -0.011 C 
ATOM     25  C   UNL     1       1.186 -11.160  -1.422  0.00  0.00    +0.009 C 
ATOM     26  C   UNL     1       0.402 -10.603  -2.611  0.00  0.00    -0.032 C 
ATOM     27  C   UNL     1       0.785  -9.137  -2.832  0.00  0.00    +0.041 C 
ATOM     28  C   UNL     1       0.736 -11.412  -3.866  0.00  0.00    +0.011 C 
ATOM     29  C   UNL     1      -1.098 -10.701  -2.325  0.00  0.00    +0.011 C 
ATOM     30  C   UNL     1       1.621 -10.924   1.028  0.00  0.00    +0.007 C 
ATOM     31  N   UNL     1      -0.972  -8.326  -1.313  0.00  0.00    -0.285 N 
ATOM     32  C   UNL     1      -1.362  -7.037  -1.366  0.00  0.00    +0.310 C 
ATOM     33  O   UNL     1      -2.507  -6.670  -1.190  0.00  0.00    -0.252 OA
ATOM     34  H   UNL     1      -1.534  -9.096  -1.135  0.00  0.00    +0.151 HD
ENDBRANCH  18  19
ENDBRANCH   9  18
TORSDOF 3
