REMARK  Name = ZINC41023406
REMARK  10 active torsions:
REMARK  status: ('A' for Active; 'I' for Inactive)
REMARK    1  A    between atoms: C_1  and  C_2
REMARK    2  A    between atoms: C_2  and  C_3
REMARK    3  A    between atoms: C_3  and  S_4
REMARK    4  A    between atoms: S_4  and  C_5
REMARK    5  A    between atoms: C_10  and  C_27
REMARK    6  A    between atoms: C_12  and  C_16
REMARK    7  A    between atoms: C_13  and  C_15
REMARK    8  A    between atoms: N_18  and  C_19
REMARK    9  A    between atoms: C_23  and  C_26
REMARK   10  A    between atoms: C_24  and  C_25
REMARK                            x       y       z     vdW  Elec       q    Type
REMARK                         _______ _______ _______ _____ _____    ______ ____
ROOT
ATOM      1  C   UNL     1       1.803  -2.673  -2.666  0.00  0.00    +0.210 A 
ATOM      2  N   UNL     1       2.253  -1.806  -3.584  0.00  0.00    -0.187 NA
ATOM      3  C   UNL     1       2.775  -2.463  -4.585  0.00  0.00    +0.220 A 
ATOM      4  N   UNL     1       2.662  -3.788  -4.324  0.00  0.00    -0.217 N 
ATOM      5  N   UNL     1       2.041  -3.899  -3.080  0.00  0.00    -0.141 NA
ATOM      6  C   UNL     1       3.130  -4.833  -5.230  0.00  0.00    +0.213 C 
ATOM      7  C   UNL     1       3.992  -4.219  -6.300  0.00  0.00    +0.063 C 
ATOM      8  C   UNL     1       4.067  -2.897  -6.511  0.00  0.00    +0.018 C 
ATOM      9  N   UNL     1       3.365  -1.994  -5.750  0.00  0.00    -0.287 N 
ATOM     10  C   UNL     1       4.953  -2.385  -7.617  0.00  0.00    +0.061 C 
ATOM     11  H   UNL     1       3.285  -1.065  -6.017  0.00  0.00    +0.155 HD
ENDROOT
BRANCH   6  12
ATOM     12  C   UNL     1       1.946  -5.513  -5.867  0.00  0.00    +0.136 A 
ATOM     13  C   UNL     1       1.639  -6.819  -5.764  0.00  0.00    +0.048 A 
ATOM     14  C   UNL     1       0.457  -7.023  -6.513  0.00  0.00    +0.057 A 
ATOM     15  C   UNL     1       0.112  -5.828  -7.029  0.00  0.00    +0.170 A 
ATOM     16  O   UNL     1       1.014  -4.917  -6.630  0.00  0.00    -0.451 OA
ATOM     17 BR   UNL     1      -1.392  -5.490  -8.124  0.00  0.00    -0.008 Br
ENDBRANCH   6  12
BRANCH   7  18
ATOM     18  C   UNL     1       4.759  -5.077  -7.123  0.00  0.00    +0.248 C 
ATOM     19  O   UNL     1       5.812  -5.532  -6.714  0.00  0.00    -0.270 OA
ATOM     20  N   UNL     1       4.324  -5.392  -8.359  0.00  0.00    -0.281 N 
ATOM     21  H   UNL     1       3.519  -4.980  -8.710  0.00  0.00    +0.155 HD
BRANCH  20  22
ATOM     22  C   UNL     1       5.034  -6.312  -9.137  0.00  0.00    +0.037 A 
ATOM     23  C   UNL     1       6.420  -6.370  -9.056  0.00  0.00    +0.023 A 
ATOM     24  C   UNL     1       7.117  -7.280  -9.825  0.00  0.00    +0.002 A 
ATOM     25  C   UNL     1       6.438  -8.133 -10.676  0.00  0.00    +0.004 A 
ATOM     26  C   UNL     1       5.059  -8.079 -10.759  0.00  0.00    -0.046 A 
ATOM     27  C   UNL     1       4.355  -7.175  -9.988  0.00  0.00    -0.026 A 
ATOM     28  C   UNL     1       2.851  -7.120 -10.074  0.00  0.00    +0.046 C 
ATOM     29  C   UNL     1       4.323  -9.010 -11.687  0.00  0.00    +0.044 C 
ENDBRANCH  20  22
ENDBRANCH   7  18
BRANCH   1  30
ATOM     30  S   UNL     1       1.024  -2.241  -1.145  0.00  0.00    -0.084 S 
BRANCH  30  31
ATOM     31  C   UNL     1       0.994  -0.427  -1.169  0.00  0.00    +0.077 C 
BRANCH  31  33
ATOM     32  C   UNL     1       0.309   1.618   0.093  0.00  0.00    +0.004 C 
ATOM     33  C   UNL     1       0.335   0.088   0.112  0.00  0.00    +0.008 C 
ENDBRANCH  31  33
ENDBRANCH  30  31
ENDBRANCH   1  30
TORSDOF 6
