REMARK  Name = ZINC13478182
REMARK  8 active torsions:
REMARK  status: ('A' for Active; 'I' for Inactive)
REMARK    1  A    between atoms: C_1  and  O_2
REMARK    2  A    between atoms: O_2  and  C_3
REMARK    3  A    between atoms: C_8  and  N_9
REMARK    4  A    between atoms: C_10  and  C_12
REMARK    5  A    between atoms: C_12  and  C_13
REMARK    6  A    between atoms: N_18  and  C_19
REMARK    7  A    between atoms: C_19  and  N_21
REMARK    8  A    between atoms: N_21  and  C_22
REMARK                            x       y       z     vdW  Elec       q    Type
REMARK                         _______ _______ _______ _____ _____    ______ ____
ROOT
ATOM      1  C   UNL     1      -1.490  -6.479   0.598  0.00  0.00    +0.059 A 
ATOM      2  C   UNL     1      -1.220  -7.410   1.545  0.00  0.00    +0.072 A 
ATOM      3  S   UNL     1      -1.120  -8.885   0.544  0.00  0.00    -0.060 S 
ATOM      4  C   UNL     1      -1.429  -8.173  -0.950  0.00  0.00    +0.164 A 
ATOM      5  N   UNL     1      -1.594  -6.903  -0.648  0.00  0.00    -0.229 NA
ATOM      6  N   UNL     1      -1.498  -8.780  -2.198  0.00  0.00    -0.276 N 
ATOM      7  H   UNL     1      -1.685  -8.248  -2.986  0.00  0.00    +0.156 HD
ENDROOT
BRANCH   6   8
ATOM      8  C   UNL     1      -1.305 -10.109  -2.312  0.00  0.00    +0.140 C 
ATOM      9  S   UNL     1      -0.975 -11.049  -0.920  0.00  0.00    -0.018 S 
BRANCH   8  10
ATOM     10  N   UNL     1      -1.372 -10.698  -3.522  0.00  0.00    -0.297 N 
ATOM     11  H   UNL     1      -1.478 -10.156  -4.320  0.00  0.00    +0.154 HD
BRANCH  10  12
ATOM     12  C   UNL     1      -1.289 -12.090  -3.628  0.00  0.00    +0.033 A 
ATOM     13  C   UNL     1      -1.948 -12.899  -2.711  0.00  0.00    +0.023 A 
ATOM     14  C   UNL     1      -1.865 -14.273  -2.819  0.00  0.00    +0.002 A 
ATOM     15  C   UNL     1      -1.126 -14.845  -3.838  0.00  0.00    +0.000 A 
ATOM     16  C   UNL     1      -0.468 -14.043  -4.753  0.00  0.00    +0.002 A 
ATOM     17  C   UNL     1      -0.553 -12.668  -4.655  0.00  0.00    +0.023 A 
ENDBRANCH  10  12
ENDBRANCH   8  10
ENDBRANCH   6   8
BRANCH   1  18
ATOM     18  C   UNL     1      -1.672  -5.026   0.952  0.00  0.00    +0.152 C 
BRANCH  18  20
ATOM     19  N   UNL     1      -0.713  -2.847   0.279  0.00  0.00    -0.282 N 
ATOM     20  C   UNL     1      -0.727  -4.187   0.130  0.00  0.00    +0.223 C 
ATOM     21  O   UNL     1       0.019  -4.717  -0.665  0.00  0.00    -0.275 OA
ATOM     22  H   UNL     1      -1.246  -2.430   0.973  0.00  0.00    +0.155 HD
BRANCH  19  28
ATOM     23  C   UNL     1       0.458  -0.777  -0.175  0.00  0.00    +0.141 A 
ATOM     24  C   UNL     1       1.240  -0.002  -1.017  0.00  0.00    +0.047 A 
ATOM     25  C   UNL     1       1.633  -0.497  -2.246  0.00  0.00    +0.004 A 
ATOM     26  C   UNL     1       1.248  -1.765  -2.640  0.00  0.00    +0.002 A 
ATOM     27  C   UNL     1       0.468  -2.545  -1.807  0.00  0.00    +0.027 A 
ATOM     28  C   UNL     1       0.074  -2.057  -0.570  0.00  0.00    +0.076 A 
BRANCH  23  30
ATOM     29  C   UNL     1       0.501   1.028   1.372  0.00  0.00    +0.277 C 
ATOM     30  O   UNL     1       0.070  -0.292   1.034  0.00  0.00    -0.493 OA
ENDBRANCH  23  30
ENDBRANCH  19  28
ENDBRANCH  18  20
ENDBRANCH   1  18
TORSDOF 7
