REMARK  Name = ZINC20907751
REMARK  7 active torsions:
REMARK  status: ('A' for Active; 'I' for Inactive)
REMARK    1  A    between atoms: C_9  and  O_35
REMARK    2  A    between atoms: C_10  and  C_11
REMARK    3  A    between atoms: N_12  and  N_13
REMARK    4  A    between atoms: C_16  and  S_19
REMARK    5  A    between atoms: S_19  and  C_20
REMARK    6  A    between atoms: C_20  and  C_21
REMARK    7  A    between atoms: N_23  and  C_24
REMARK                            x       y       z     vdW  Elec       q    Type
REMARK                         _______ _______ _______ _____ _____    ______ ____
ROOT
ATOM      1  N   UNL     1      -2.573   8.058   0.068  0.00  0.00    -0.205 N 
ATOM      2  C   UNL     1      -2.564   9.445   0.075  0.00  0.00    +0.232 A 
ATOM      3  N   UNL     1      -3.665  10.256   0.090  0.00  0.00    -0.186 NA
ATOM      4  C   UNL     1      -3.234  11.552   0.092  0.00  0.00    +0.211 A 
ATOM      5  N   UNL     1      -1.923  11.544   0.080  0.00  0.00    -0.144 NA
ATOM      6  N   UNL     1      -1.498  10.209   0.074  0.00  0.00    -0.245 N 
ATOM      7  H   UNL     1      -3.529   7.514   0.075  0.00  0.00    +0.177 HD
ATOM      8  H   UNL     1      -0.496   9.755   0.070  0.00  0.00    +0.192 HD
ENDROOT
BRANCH   1  10
ATOM      9  C   UNL     1      -1.373   6.050   0.046  0.00  0.00    +0.142 C 
ATOM     10  N   UNL     1      -1.364   7.350   0.053  0.00  0.00    -0.187 NA
BRANCH   9  20
ATOM     11  C   UNL     1      -0.013   1.076   0.008  0.00  0.00    +0.001 A 
ATOM     12  C   UNL     1      -1.234   1.745   0.017  0.00  0.00    +0.001 A 
ATOM     13  C   UNL     1      -1.286   3.107   0.030  0.00  0.00    +0.009 A 
ATOM     14  C   UNL     1      -0.096   3.845   0.023  0.00  0.00    -0.006 A 
ATOM     15  C   UNL     1       1.148   3.168   0.008  0.00  0.00    -0.017 A 
ATOM     16  C   UNL     1       1.163   1.762   0.000  0.00  0.00    +0.008 A 
ATOM     17  C   UNL     1       2.341   3.910   0.001  0.00  0.00    +0.012 A 
ATOM     18  C   UNL     1       2.314   5.270   0.008  0.00  0.00    +0.046 A 
ATOM     19  C   UNL     1       1.116   5.981   0.022  0.00  0.00    +0.126 A 
ATOM     20  C   UNL     1      -0.105   5.306   0.030  0.00  0.00    +0.044 A 
BRANCH  19  21
ATOM     21  O   UNL     1       1.137   7.339   0.029  0.00  0.00    -0.506 OA
ATOM     22  H   UNL     1       0.193   7.903   0.040  0.00  0.00    +0.292 HD
ENDBRANCH  19  21
ENDBRANCH   9  20
ENDBRANCH   1  10
BRANCH   4  23
ATOM     23  S   UNL     1      -4.261  12.985   0.109  0.00  0.00    -0.075 S 
BRANCH  23  24
ATOM     24  C   UNL     1      -3.086  14.367   0.105  0.00  0.00    +0.173 C 
BRANCH  24  25
ATOM     25  C   UNL     1      -3.843  15.669   0.118  0.00  0.00    +0.224 C 
ATOM     26  O   UNL     1      -5.056  15.666   0.130  0.00  0.00    -0.275 OA
ATOM     27  N   UNL     1      -3.172  16.839   0.118  0.00  0.00    -0.308 N 
ATOM     28  H   UNL     1      -2.072  16.842   0.108  0.00  0.00    +0.149 HD
BRANCH  27  29
ATOM     29  C   UNL     1      -3.908  18.105   0.131  0.00  0.00    +0.103 C 
ATOM     30  C   UNL     1      -3.036  19.188   0.763  0.00  0.00    +0.027 C 
ATOM     31  C   UNL     1      -3.730  20.542   0.572  0.00  0.00    +0.007 C 
ATOM     32  C   UNL     1      -3.673  20.907  -0.910  0.00  0.00    +0.035 C 
ATOM     33  C   UNL     1      -4.177  19.768  -1.756  0.00  0.00    -0.042 A 
ATOM     34  C   UNL     1      -4.278  18.479  -1.280  0.00  0.00    -0.024 A 
ATOM     35  C   UNL     1      -4.738  17.471  -2.117  0.00  0.00    +0.006 A 
ATOM     36  C   UNL     1      -5.098  17.751  -3.420  0.00  0.00    +0.000 A 
ATOM     37  C   UNL     1      -5.001  19.045  -3.896  0.00  0.00    +0.000 A 
ATOM     38  C   UNL     1      -4.542  20.047  -3.067  0.00  0.00    +0.004 A 
ENDBRANCH  27  29
ENDBRANCH  24  25
ENDBRANCH  23  24
ENDBRANCH   4  23
TORSDOF 7
