REMARK  Name = ZINC16564655
REMARK  8 active torsions:
REMARK  status: ('A' for Active; 'I' for Inactive)
REMARK    1  A    between atoms: C_1  and  C_2
REMARK    2  A    between atoms: C_2  and  C_4
REMARK    3  A    between atoms: C_2  and  N_53
REMARK    4  A    between atoms: N_6  and  C_7
REMARK    5  A    between atoms: C_10  and  S_13
REMARK    6  A    between atoms: S_13  and  N_16
REMARK    7  A    between atoms: N_19  and  C_22
REMARK    8  A    between atoms: C_27  and  N_28
REMARK                            x       y       z     vdW  Elec       q    Type
REMARK                         _______ _______ _______ _____ _____    ______ ____
ROOT
ATOM      1  C   UNL     1       0.108   5.688   0.570  0.00  0.00    -0.004 C 
ATOM      2  C   UNL     1       0.531   5.434  -0.878  0.00  0.00    +0.017 C 
ENDROOT
BRANCH   2   8
ATOM      3  C   UNL     1       1.207   3.250  -0.081  0.00  0.00    -0.059 C 
ATOM      4  C   UNL     1       1.240   1.762  -0.436  0.00  0.00    +0.086 C 
ATOM      5  N   UNL     1      -0.135   1.271  -0.609  0.00  0.00    -0.332 N 
ATOM      6  C   UNL     1      -0.824   2.012  -1.675  0.00  0.00    +0.086 C 
ATOM      7  C   UNL     1      -0.857   3.500  -1.320  0.00  0.00    -0.059 C 
ATOM      8  N   UNL     1       0.531   3.985  -1.170  0.00  0.00    +0.389 N 
ATOM      9  H   UNL     1       1.038   3.822  -2.048  0.00  0.00    -0.081 HD
BRANCH   5  10
ATOM     10  C   UNL     1      -0.148  -0.102  -0.864  0.00  0.00    +0.060 A 
ATOM     11  C   UNL     1       0.502  -0.608  -1.983  0.00  0.00    +0.025 A 
ATOM     12  C   UNL     1       0.492  -1.967  -2.229  0.00  0.00    +0.002 A 
ATOM     13  C   UNL     1      -0.174  -2.822  -1.370  0.00  0.00    +0.002 A 
ATOM     14  C   UNL     1      -0.827  -2.321  -0.259  0.00  0.00    +0.034 A 
ATOM     15  C   UNL     1      -0.816  -0.963  -0.004  0.00  0.00    +0.147 A 
BRANCH  15  16
ATOM     16  N   UNL     1      -1.515  -0.427   1.186  0.00  0.00    +0.058 N 
ATOM     17  O   UNL     1      -2.100  -1.183   1.940  0.00  0.00    -0.126 OA
ATOM     18  O   UNL     1      -1.505   0.770   1.410  0.00  0.00    -0.126 OA
ENDBRANCH  15  16
ENDBRANCH   5  10
ENDBRANCH   2   8
BRANCH   2  19
ATOM     19  C   UNL     1       1.921   5.973  -1.098  0.00  0.00    +0.203 C 
ATOM     20  O   UNL     1       2.860   5.210  -1.188  0.00  0.00    -0.277 OA
ATOM     21  N   UNL     1       2.122   7.302  -1.194  0.00  0.00    -0.287 N 
ATOM     22  H   UNL     1       1.385   7.916  -1.045  0.00  0.00    +0.155 HD
BRANCH  21  23
ATOM     23  C   UNL     1       3.393   7.797  -1.508  0.00  0.00    +0.033 A 
ATOM     24  C   UNL     1       3.818   9.009  -0.978  0.00  0.00    +0.025 A 
ATOM     25  C   UNL     1       5.075   9.491  -1.285  0.00  0.00    +0.030 A 
ATOM     26  C   UNL     1       5.905   8.775  -2.128  0.00  0.00    +0.105 A 
ATOM     27  C   UNL     1       5.482   7.572  -2.661  0.00  0.00    +0.030 A 
ATOM     28  C   UNL     1       4.229   7.080  -2.353  0.00  0.00    +0.025 A 
BRANCH  26  29
ATOM     29  S   UNL     1       7.505   9.398  -2.523  0.00  0.00    +0.056 S 
ATOM     30  O   UNL     1       7.873  10.273  -1.465  0.00  0.00    -0.153 OA
ATOM     31  O   UNL     1       8.297   8.278  -2.895  0.00  0.00    -0.153 OA
BRANCH  29  32
ATOM     32  N   UNL     1       7.345  10.336  -3.878  0.00  0.00    -0.204 NA
ATOM     33  H   UNL     1       6.474  10.447  -4.291  0.00  0.00    +0.144 HD
ATOM     34  H   UNL     1       8.122  10.774  -4.259  0.00  0.00    +0.144 HD
ENDBRANCH  29  32
ENDBRANCH  26  29
ENDBRANCH  21  23
ENDBRANCH   2  19
TORSDOF 7
