REMARK  Name = ZINC09307191
REMARK  6 active torsions:
REMARK  status: ('A' for Active; 'I' for Inactive)
REMARK    1  A    between atoms: C_1  and  O_2
REMARK    2  A    between atoms: O_2  and  C_3
REMARK    3  A    between atoms: C_8  and  N_9
REMARK    4  A    between atoms: C_10  and  C_12
REMARK    5  A    between atoms: N_30  and  C_33
REMARK    6  A    between atoms: C_33  and  C_34
REMARK                            x       y       z     vdW  Elec       q    Type
REMARK                         _______ _______ _______ _____ _____    ______ ____
ROOT
ATOM      1  C   UNL     1      -3.784   5.907   0.283  0.00  0.00    +0.156 C 
ATOM      2  C   UNL     1      -4.421   6.106  -1.107  0.00  0.00    +0.117 C 
ATOM      3  C   UNL     1      -3.829   7.466  -1.586  0.00  0.00    +0.113 C 
ATOM      4  C   UNL     1      -3.416   8.193  -0.305  0.00  0.00    +0.100 C 
ATOM      5  C   UNL     1      -3.538   7.649   2.145  0.00  0.00    +0.054 C 
ATOM      6  C   UNL     1      -4.048   8.866   2.417  0.00  0.00    +0.022 C 
ATOM      7  C   UNL     1      -4.610   9.678   1.318  0.00  0.00    -0.019 A 
ATOM      8  C   UNL     1      -4.310   9.370  -0.014  0.00  0.00    -0.021 A 
ATOM      9  C   UNL     1      -4.829  10.134  -1.034  0.00  0.00    +0.006 A 
ATOM     10  C   UNL     1      -5.652  11.210  -0.744  0.00  0.00    +0.000 A 
ATOM     11  C   UNL     1      -5.958  11.519   0.570  0.00  0.00    +0.001 A 
ATOM     12  C   UNL     1      -5.443  10.761   1.601  0.00  0.00    +0.008 A 
ATOM     13  C   UNL     1      -2.596   7.052  -2.365  0.00  0.00    +0.228 C 
ATOM     14  O   UNL     1      -1.675   7.779  -2.671  0.00  0.00    -0.275 OA
ATOM     15  N   UNL     1      -2.739   5.743  -2.668  0.00  0.00    -0.237 N 
ATOM     16  C   UNL     1      -3.782   5.136  -2.082  0.00  0.00    +0.228 C 
ATOM     17  O   UNL     1      -4.151   4.001  -2.296  0.00  0.00    -0.275 OA
ATOM     18  N   UNL     1      -3.217   7.208   0.726  0.00  0.00    -0.383 NA
ATOM     19  H   UNL     1      -2.201   7.056   0.744  0.00  0.00    +0.127 HD
ENDROOT
BRANCH   1  21
ATOM     20  N   UNL     1      -2.458   3.833   0.045  0.00  0.00    -0.281 N 
ATOM     21  C   UNL     1      -2.473   5.176   0.154  0.00  0.00    +0.237 C 
ATOM     22  O   UNL     1      -1.430   5.797   0.148  0.00  0.00    -0.273 OA
ATOM     23  H   UNL     1      -3.292   3.344  -0.031  0.00  0.00    +0.155 HD
BRANCH  20  29
ATOM     24  C   UNL     1      -1.144   1.895  -0.569  0.00  0.00    +0.141 A 
ATOM     25  C   UNL     1       0.064   1.215  -0.566  0.00  0.00    +0.049 A 
ATOM     26  C   UNL     1       1.174   1.780   0.033  0.00  0.00    +0.024 A 
ATOM     27  C   UNL     1       1.083   3.023   0.635  0.00  0.00    +0.043 A 
ATOM     28  C   UNL     1      -0.120   3.705   0.640  0.00  0.00    +0.047 A 
ATOM     29  C   UNL     1      -1.238   3.144   0.041  0.00  0.00    +0.077 A 
ATOM     30 CL   UNL     1       2.481   3.727   1.386  0.00  0.00    -0.083 Cl
BRANCH  24  32
ATOM     31  C   UNL     1      -2.066   0.057  -1.763  0.00  0.00    +0.277 C 
ATOM     32  O   UNL     1      -2.235   1.342  -1.162  0.00  0.00    -0.493 OA
ENDBRANCH  24  32
ENDBRANCH  20  29
ENDBRANCH   1  21
BRANCH  15  33
ATOM     33  C   UNL     1      -1.806   5.043  -3.554  0.00  0.00    +0.151 C 
BRANCH  33  34
ATOM     34  C   UNL     1      -2.302   5.126  -4.974  0.00  0.00    -0.030 A 
ATOM     35  C   UNL     1      -3.140   4.146  -5.472  0.00  0.00    +0.005 A 
ATOM     36  C   UNL     1      -3.600   4.225  -6.773  0.00  0.00    +0.000 A 
ATOM     37  C   UNL     1      -3.213   5.279  -7.580  0.00  0.00    +0.000 A 
ATOM     38  C   UNL     1      -2.370   6.256  -7.084  0.00  0.00    +0.000 A 
ATOM     39  C   UNL     1      -1.915   6.180  -5.781  0.00  0.00    +0.005 A 
ENDBRANCH  33  34
ENDBRANCH  15  33
TORSDOF 5
