REMARK  Name = ZINC65369924
REMARK  7 active torsions:
REMARK  status: ('A' for Active; 'I' for Inactive)
REMARK    1  A    between atoms: C_1  and  C_2
REMARK    2  A    between atoms: C_6  and  N_8
REMARK    3  A    between atoms: C_9  and  C_11
REMARK    4  A    between atoms: C_11  and  N_12
REMARK    5  A    between atoms: N_12  and  C_13
REMARK    6  A    between atoms: C_13  and  C_14
REMARK    7  A    between atoms: C_21  and  C_24
REMARK                            x       y       z     vdW  Elec       q    Type
REMARK                         _______ _______ _______ _____ _____    ______ ____
ROOT
ATOM      1  N   UNL     1       0.369  -1.953   5.978  0.00  0.00    +0.387 N 
ATOM      2  H   UNL     1       1.177  -1.361   5.855  0.00  0.00    -0.085 HD
ATOM      3  H   UNL     1      -0.464  -1.383   6.006  0.00  0.00    -0.085 HD
ENDROOT
BRANCH   1   4
ATOM      4  C   UNL     1       0.279  -2.897   4.857  0.00  0.00    +0.016 C 
BRANCH   4   6
ATOM      5  N   UNL     1       0.050  -2.796   2.396  0.00  0.00    -0.285 N 
ATOM      6  C   UNL     1       0.149  -2.133   3.565  0.00  0.00    +0.200 C 
ATOM      7  O   UNL     1       0.134  -0.920   3.577  0.00  0.00    -0.278 OA
ATOM      8  H   UNL     1      -0.002  -3.765   2.391  0.00  0.00    +0.155 HD
BRANCH   5  14
ATOM      9  C   UNL     1      -1.307   1.190  -0.143  0.00  0.00    +0.044 C 
ATOM     10  C   UNL     1      -0.627  -0.153  -0.071  0.00  0.00    -0.049 A 
ATOM     11  C   UNL     1      -0.029  -0.686  -1.198  0.00  0.00    +0.006 A 
ATOM     12  C   UNL     1       0.596  -1.918  -1.137  0.00  0.00    +0.040 A 
ATOM     13  C   UNL     1       0.624  -2.621   0.053  0.00  0.00    +0.144 A 
ATOM     14  C   UNL     1       0.024  -2.087   1.188  0.00  0.00    +0.069 A 
ATOM     15  C   UNL     1      -0.597  -0.848   1.123  0.00  0.00    +0.029 A 
ATOM     16  F   UNL     1       1.234  -3.825   0.114  0.00  0.00    -0.204 F 
ENDBRANCH   5  14
ENDBRANCH   4   6
ENDBRANCH   1   4
BRANCH   1  17
ATOM     17  C   UNL     1       0.495  -2.698   7.238  0.00  0.00    -0.046 C 
BRANCH  17  18
ATOM     18  C   UNL     1       0.588  -1.729   8.388  0.00  0.00    -0.064 A 
ATOM     19  C   UNL     1       1.830  -1.266   8.799  0.00  0.00    +0.004 A 
ATOM     20  C   UNL     1       1.938  -0.380   9.849  0.00  0.00    +0.026 A 
ATOM     21  C   UNL     1       0.791   0.056  10.505  0.00  0.00    +0.047 A 
ATOM     22  C   UNL     1      -0.466  -0.416  10.084  0.00  0.00    +0.000 A 
ATOM     23  C   UNL     1      -0.551  -1.310   9.014  0.00  0.00    +0.011 A 
ATOM     24  C   UNL     1      -1.452   0.220  10.960  0.00  0.00    +0.030 A 
ATOM     25  C   UNL     1      -0.771   1.000  11.816  0.00  0.00    +0.014 A 
ATOM     26  N   UNL     1       0.570   0.914  11.559  0.00  0.00    -0.358 N 
ATOM     27  H   UNL     1       1.262   1.388  12.046  0.00  0.00    +0.166 HD
ATOM     28  C   UNL     1      -1.393   1.843  12.899  0.00  0.00    +0.063 C 
ENDBRANCH  17  18
ENDBRANCH   1  17
TORSDOF 5
