REMARK  Name = ZINC59489475
REMARK  10 active torsions:
REMARK  status: ('A' for Active; 'I' for Inactive)
REMARK    1  A    between atoms: C_1  and  C_2
REMARK    2  A    between atoms: C_2  and  O_3
REMARK    3  A    between atoms: O_3  and  C_4
REMARK    4  A    between atoms: C_7  and  N_10
REMARK    5  A    between atoms: C_14  and  S_18
REMARK    6  A    between atoms: S_18  and  C_19
REMARK    7  A    between atoms: N_21  and  N_22
REMARK    8  A    between atoms: C_23  and  C_24
REMARK    9  A    between atoms: C_23  and  C_25
REMARK   10  A    between atoms: C_28  and  C_31
REMARK                            x       y       z     vdW  Elec       q    Type
REMARK                         _______ _______ _______ _____ _____    ______ ____
ROOT
ATOM      1  C   UNL     1       4.188  -8.549   3.931  0.00  0.00    +0.146 C 
ATOM      2  N   UNL     1       3.549  -7.985   4.918  0.00  0.00    -0.380 N 
ATOM      3  N   UNL     1       5.480  -8.990   4.110  0.00  0.00    -0.217 N 
ATOM      4  H   UNL     1       3.983  -7.875   5.778  0.00  0.00    +0.158 HD
ATOM      5  H   UNL     1       5.956  -9.410   3.376  0.00  0.00    +0.176 HD
ATOM      6  H   UNL     1       2.638  -7.674   4.792  0.00  0.00    +0.158 HD
ENDROOT
BRANCH   3   7
ATOM      7  N   UNL     1       6.108  -8.833   5.352  0.00  0.00    -0.185 NA
ATOM      8  C   UNL     1       7.326  -9.248   5.521  0.00  0.00    +0.063 C 
ATOM      9  C   UNL     1       8.065  -9.900   4.381  0.00  0.00    +0.068 C 
BRANCH   8  10
ATOM     10  C   UNL     1       7.987  -9.082   6.828  0.00  0.00    -0.002 A 
ATOM     11  C   UNL     1       9.301  -9.525   7.009  0.00  0.00    +0.010 A 
ATOM     12  C   UNL     1       9.916  -9.369   8.231  0.00  0.00    +0.009 A 
ATOM     13  C   UNL     1       9.230  -8.771   9.287  0.00  0.00    -0.018 A 
ATOM     14  C   UNL     1       7.918  -8.330   9.108  0.00  0.00    +0.009 A 
ATOM     15  C   UNL     1       7.302  -8.478   7.887  0.00  0.00    +0.010 A 
BRANCH  13  16
ATOM     16  C   UNL     1       9.894  -8.605  10.602  0.00  0.00    -0.018 A 
ATOM     17  C   UNL     1      11.206  -9.040  10.784  0.00  0.00    +0.008 A 
ATOM     18  C   UNL     1      11.819  -8.882  12.010  0.00  0.00    +0.001 A 
ATOM     19  C   UNL     1      11.135  -8.293  13.058  0.00  0.00    +0.000 A 
ATOM     20  C   UNL     1       9.833  -7.860  12.884  0.00  0.00    +0.001 A 
ATOM     21  C   UNL     1       9.211  -8.008  11.661  0.00  0.00    +0.008 A 
ENDBRANCH  13  16
ENDBRANCH   8  10
ENDBRANCH   3   7
BRANCH   1  22
ATOM     22  S   UNL     1       3.398  -8.747   2.368  0.00  0.00    -0.078 S 
BRANCH  22  27
ATOM     23  N   UNL     1       1.137  -5.959   1.753  0.00  0.00    -0.209 N 
ATOM     24  C   UNL     1       0.556  -6.828   0.916  0.00  0.00    +0.228 C 
ATOM     25  O   UNL     1      -0.118  -6.531  -0.046  0.00  0.00    -0.275 OA
ATOM     26  C   UNL     1       0.875  -8.238   1.363  0.00  0.00    +0.120 C 
ATOM     27  C   UNL     1       1.750  -8.032   2.616  0.00  0.00    +0.149 C 
ATOM     28  C   UNL     1       1.838  -6.526   2.743  0.00  0.00    +0.240 C 
ATOM     29  O   UNL     1       2.446  -5.929   3.605  0.00  0.00    -0.274 OA
BRANCH  23  33
ATOM     30  C   UNL     1       0.803  -1.825   1.304  0.00  0.00    +0.121 A 
ATOM     31  C   UNL     1       2.029  -2.446   1.116  0.00  0.00    +0.047 A 
ATOM     32  C   UNL     1       2.140  -3.814   1.264  0.00  0.00    +0.027 A 
ATOM     33  C   UNL     1       1.024  -4.568   1.603  0.00  0.00    +0.044 A 
ATOM     34  C   UNL     1      -0.202  -3.946   1.791  0.00  0.00    +0.027 A 
ATOM     35  C   UNL     1      -0.311  -2.577   1.648  0.00  0.00    +0.047 A 
BRANCH  30  36
ATOM     36  O   UNL     1       0.694  -0.477   1.158  0.00  0.00    -0.492 OA
BRANCH  36  38
ATOM     37  C   UNL     1       1.565   1.727   0.686  0.00  0.00    +0.048 C 
ATOM     38  C   UNL     1       1.881   0.235   0.804  0.00  0.00    +0.225 C 
ENDBRANCH  36  38
ENDBRANCH  30  36
ENDBRANCH  23  33
ENDBRANCH  22  27
ENDBRANCH   1  22
TORSDOF 8
