REMARK  Name = ZINC04168453
REMARK  10 active torsions:
REMARK  status: ('A' for Active; 'I' for Inactive)
REMARK    1  A    between atoms: C_1  and  C_2
REMARK    2  A    between atoms: C_2  and  C_3
REMARK    3  A    between atoms: C_2  and  C_4
REMARK    4  A    between atoms: C_2  and  C_5
REMARK    5  A    between atoms: C_12  and  N_29
REMARK    6  A    between atoms: C_13  and  C_27
REMARK    7  A    between atoms: C_14  and  C_16
REMARK    8  A    between atoms: C_19  and  O_22
REMARK    9  A    between atoms: O_22  and  C_23
REMARK   10  A    between atoms: C_23  and  C_24
REMARK                            x       y       z     vdW  Elec       q    Type
REMARK                         _______ _______ _______ _____ _____    ______ ____
ROOT
ATOM      1  C   UNL     1       0.912  -0.341  -1.938  0.00  0.00    +0.049 A 
ATOM      2  C   UNL     1       1.123  -1.665  -1.913  0.00  0.00    +0.050 A 
ATOM      3  C   UNL     1       1.993  -1.992  -2.977  0.00  0.00    +0.245 A 
ATOM      4  N   UNL     1       2.285  -0.892  -3.609  0.00  0.00    -0.135 NA
ATOM      5  N   UNL     1       1.613   0.167  -2.979  0.00  0.00    -0.277 N 
ATOM      6  H   UNL     1       1.646   1.099  -3.242  0.00  0.00    +0.189 HD
ATOM      7  O   UNL     1       2.398  -3.268  -3.211  0.00  0.00    -0.421 OA
ATOM      8  C   UNL     1       2.167  -4.180  -2.245  0.00  0.00    +0.201 C 
ATOM      9  C   UNL     1       1.348  -3.987  -1.191  0.00  0.00    +0.098 C 
ATOM     10  C   UNL     1       0.580  -2.708  -0.970  0.00  0.00    +0.101 C 
ENDROOT
BRANCH  10  11
ATOM     11  C   UNL     1      -0.882  -2.938  -1.252  0.00  0.00    -0.034 A 
ATOM     12  C   UNL     1      -1.312  -3.130  -2.552  0.00  0.00    +0.008 A 
ATOM     13  C   UNL     1      -2.652  -3.341  -2.813  0.00  0.00    +0.046 A 
ATOM     14  C   UNL     1      -3.567  -3.361  -1.770  0.00  0.00    +0.121 A 
ATOM     15  C   UNL     1      -3.132  -3.168  -0.467  0.00  0.00    +0.046 A 
ATOM     16  C   UNL     1      -1.791  -2.963  -0.210  0.00  0.00    +0.008 A 
BRANCH  14  17
ATOM     17  O   UNL     1      -4.885  -3.568  -2.025  0.00  0.00    -0.483 OA
BRANCH  17  18
ATOM     18  C   UNL     1      -5.770  -3.575  -0.902  0.00  0.00    +0.324 C 
BRANCH  18  19
ATOM     19  C   UNL     1      -7.180  -3.817  -1.375  0.00  0.00    +0.248 C 
ATOM     20  O   UNL     1      -7.406  -3.968  -2.558  0.00  0.00    -0.272 OA
ATOM     21  N   UNL     1      -8.190  -3.865  -0.485  0.00  0.00    -0.327 N 
ATOM     22  H   UNL     1      -8.010  -3.744   0.461  0.00  0.00    +0.145 HD
ATOM     23  H   UNL     1      -9.098  -4.021  -0.789  0.00  0.00    +0.145 HD
ENDBRANCH  18  19
ENDBRANCH  17  18
ENDBRANCH  14  17
ENDBRANCH  10  11
BRANCH   1  25
ATOM     24  C   UNL     1       0.201   1.937  -1.263  0.00  0.00    +0.017 C 
ATOM     25  C   UNL     1       0.047   0.441  -0.984  0.00  0.00    +0.004 C 
ATOM     26  C   UNL     1       0.476   0.143   0.454  0.00  0.00    +0.017 C 
ATOM     27  C   UNL     1      -1.416   0.035  -1.173  0.00  0.00    +0.017 C 
ENDBRANCH   1  25
BRANCH   8  28
ATOM     28  N   UNL     1       2.809  -5.389  -2.342  0.00  0.00    -0.328 N 
ATOM     29  H   UNL     1       3.406  -5.564  -3.087  0.00  0.00    +0.145 HD
ATOM     30  H   UNL     1       2.667  -6.069  -1.665  0.00  0.00    +0.145 HD
ENDBRANCH   8  28
BRANCH   9  31
ATOM     31  C   UNL     1       1.201  -5.045  -0.237  0.00  0.00    +0.101 C 
ATOM     32  N   UNL     1       1.084  -5.884   0.519  0.00  0.00    -0.191 NA
ENDBRANCH   9  31
TORSDOF 7
