REMARK  Name = ZINC12887887
REMARK  8 active torsions:
REMARK  status: ('A' for Active; 'I' for Inactive)
REMARK    1  A    between atoms: C_1  and  C_2
REMARK    2  A    between atoms: C_4  and  S_27
REMARK    3  A    between atoms: C_6  and  N_9
REMARK    4  A    between atoms: C_7  and  C_8
REMARK    5  A    between atoms: C_10  and  C_12
REMARK    6  A    between atoms: C_12  and  N_13
REMARK    7  A    between atoms: C_22  and  C_24
REMARK    8  A    between atoms: S_27  and  N_30
REMARK                            x       y       z     vdW  Elec       q    Type
REMARK                         _______ _______ _______ _____ _____    ______ ____
ROOT
ATOM      1  N   UNL     1      -0.216  -2.546   2.989  0.00  0.00    -0.284 N 
ATOM      2  C   UNL     1      -0.211  -3.882   2.808  0.00  0.00    +0.231 C 
ATOM      3  O   UNL     1      -0.036  -4.343   1.699  0.00  0.00    -0.274 OA
ATOM      4  H   UNL     1      -0.284  -2.179   3.884  0.00  0.00    +0.155 HD
ENDROOT
BRANCH   1  10
ATOM      5  C   UNL     1       0.895   1.873   1.143  0.00  0.00    +0.044 C 
ATOM      6  C   UNL     1       0.411   0.457   0.963  0.00  0.00    -0.044 A 
ATOM      7  C   UNL     1       0.057   0.003  -0.295  0.00  0.00    +0.032 A 
ATOM      8  C   UNL     1      -0.387  -1.295  -0.465  0.00  0.00    +0.107 A 
ATOM      9  C   UNL     1      -0.479  -2.143   0.622  0.00  0.00    +0.052 A 
ATOM     10  C   UNL     1      -0.124  -1.690   1.886  0.00  0.00    +0.038 A 
ATOM     11  C   UNL     1       0.327  -0.387   2.052  0.00  0.00    -0.026 A 
ATOM     12  C   UNL     1       0.718   0.107   3.421  0.00  0.00    +0.046 C 
BRANCH   8  13
ATOM     13  S   UNL     1      -0.838  -1.868  -2.068  0.00  0.00    +0.056 S 
ATOM     14  O   UNL     1      -1.738  -2.951  -1.875  0.00  0.00    -0.153 OA
ATOM     15  O   UNL     1      -1.181  -0.718  -2.829  0.00  0.00    -0.153 OA
BRANCH  13  16
ATOM     16  N   UNL     1       0.525  -2.505  -2.762  0.00  0.00    -0.204 NA
ATOM     17  H   UNL     1       0.450  -3.229  -3.403  0.00  0.00    +0.144 HD
ATOM     18  H   UNL     1       1.398  -2.153  -2.526  0.00  0.00    +0.144 HD
ENDBRANCH  13  16
ENDBRANCH   8  13
ENDBRANCH   1  10
BRANCH   2  19
ATOM     19  C   UNL     1      -0.422  -4.803   3.982  0.00  0.00    +0.181 C 
BRANCH  19  20
ATOM     20  N   UNL     1      -0.373  -6.198   3.525  0.00  0.00    -0.278 NA
ATOM     21  C   UNL     1      -1.586  -6.551   2.781  0.00  0.00    +0.121 C 
ATOM     22  C   UNL     1      -1.567  -8.009   2.403  0.00  0.00    -0.030 A 
ATOM     23  C   UNL     1      -2.422  -8.442   1.400  0.00  0.00    +0.005 A 
ATOM     24  C   UNL     1      -2.440  -9.770   1.024  0.00  0.00    +0.000 A 
ATOM     25  C   UNL     1      -1.604 -10.675   1.651  0.00  0.00    +0.000 A 
ATOM     26  C   UNL     1      -0.752 -10.245   2.648  0.00  0.00    +0.004 A 
ATOM     27  C   UNL     1      -0.730  -8.911   3.025  0.00  0.00    -0.041 A 
ATOM     28  C   UNL     1       0.224  -8.485   4.111  0.00  0.00    +0.063 C 
ATOM     29  C   UNL     1      -0.184  -7.117   4.658  0.00  0.00    +0.148 C 
BRANCH  29  30
ATOM     30  C   UNL     1       0.899  -6.590   5.563  0.00  0.00    +0.228 C 
ATOM     31  O   UNL     1       1.853  -6.008   5.091  0.00  0.00    -0.274 OA
ATOM     32  N   UNL     1       0.809  -6.766   6.896  0.00  0.00    -0.328 N 
ATOM     33  H   UNL     1       0.046  -7.231   7.274  0.00  0.00    +0.145 HD
ATOM     34  H   UNL     1       1.506  -6.426   7.479  0.00  0.00    +0.145 HD
ENDBRANCH  29  30
ENDBRANCH  19  20
ENDBRANCH   2  19
TORSDOF 6
