REMARK  Name = ZINC65458292
REMARK  7 active torsions:
REMARK  status: ('A' for Active; 'I' for Inactive)
REMARK    1  A    between atoms: C_9  and  C_12
REMARK    2  A    between atoms: C_12  and  N_13
REMARK    3  A    between atoms: N_13  and  C_14
REMARK    4  A    between atoms: C_14  and  C_15
REMARK    5  A    between atoms: C_15  and  C_16
REMARK    6  A    between atoms: N_18  and  C_19
REMARK    7  A    between atoms: C_22  and  C_25
REMARK                            x       y       z     vdW  Elec       q    Type
REMARK                         _______ _______ _______ _____ _____    ______ ____
ROOT
ATOM      1  C   UNL     1       8.422  -2.087   1.145  0.00  0.00    +0.077 C 
ENDROOT
BRANCH   1   2
ATOM      2  C   UNL     1       9.725  -2.735   0.752  0.00  0.00    +0.215 C 
ATOM      3  O   UNL     1       9.740  -3.597  -0.100  0.00  0.00    -0.276 OA
ATOM      4  N   UNL     1      10.873  -2.356   1.348  0.00  0.00    -0.286 N 
ATOM      5  H   UNL     1      10.871  -1.621   1.981  0.00  0.00    +0.155 HD
BRANCH   4   6
ATOM      6  C   UNL     1      12.063  -3.021   1.055  0.00  0.00    +0.033 A 
ATOM      7  C   UNL     1      12.295  -3.493  -0.233  0.00  0.00    +0.024 A 
ATOM      8  C   UNL     1      13.469  -4.150  -0.525  0.00  0.00    +0.015 A 
ATOM      9  C   UNL     1      14.428  -4.342   0.473  0.00  0.00    +0.037 A 
ATOM     10  C   UNL     1      14.191  -3.866   1.766  0.00  0.00    +0.015 A 
ATOM     11  C   UNL     1      13.018  -3.206   2.050  0.00  0.00    +0.024 A 
BRANCH   9  12
ATOM     12  C   UNL     1      15.687  -5.046   0.163  0.00  0.00    +0.242 C 
ATOM     13  O   UNL     1      15.892  -5.460  -0.962  0.00  0.00    -0.270 OA
ATOM     14  N   UNL     1      16.611  -5.231   1.127  0.00  0.00    -0.325 N 
ATOM     15  H   UNL     1      16.448  -4.901   2.024  0.00  0.00    +0.145 HD
ATOM     16  H   UNL     1      17.439  -5.694   0.923  0.00  0.00    +0.145 HD
ENDBRANCH   9  12
ENDBRANCH   4   6
ENDBRANCH   1   2
BRANCH   1  17
ATOM     17  C   UNL     1       7.282  -2.693   0.325  0.00  0.00    -0.073 C 
BRANCH  17  18
ATOM     18  N   UNL     1       6.013  -2.062   0.707  0.00  0.00    +0.382 N 
ATOM     19  H   UNL     1       6.064  -1.070   0.530  0.00  0.00    -0.086 HD
ATOM     20  H   UNL     1       5.841  -2.219   1.689  0.00  0.00    -0.086 HD
BRANCH  18  21
ATOM     21  C   UNL     1       4.918  -2.644  -0.081  0.00  0.00    -0.034 C 
BRANCH  21  30
ATOM     22  C   UNL     1      -0.005   1.396  -0.029  0.00  0.00    +0.004 A 
ATOM     23  C   UNL     1       1.183   2.103  -0.041  0.00  0.00    +0.004 A 
ATOM     24  C   UNL     1       2.390   1.429  -0.051  0.00  0.00    +0.049 A 
ATOM     25  C   UNL     1       2.412   0.043  -0.049  0.00  0.00    +0.162 A 
ATOM     26  C   UNL     1       1.218  -0.668  -0.035  0.00  0.00    +0.162 A 
ATOM     27  C   UNL     1       0.010   0.014  -0.026  0.00  0.00    +0.049 A 
ATOM     28  O   UNL     1       1.217  -2.029  -0.025  0.00  0.00    -0.485 OA
ATOM     29  C   UNL     1       2.434  -2.676  -0.410  0.00  0.00    +0.271 C 
ATOM     30  C   UNL     1       3.596  -1.986   0.318  0.00  0.00    +0.194 C 
ATOM     31  O   UNL     1       3.608  -0.606  -0.064  0.00  0.00    -0.484 OA
ENDBRANCH  21  30
ENDBRANCH  18  21
ENDBRANCH  17  18
ENDBRANCH   1  17
TORSDOF 7
