REMARK  Name = ZINC37951984
REMARK  8 active torsions:
REMARK  status: ('A' for Active; 'I' for Inactive)
REMARK    1  A    between atoms: C_1  and  C_2
REMARK    2  A    between atoms: C_5  and  C_9
REMARK    3  A    between atoms: C_6  and  C_8
REMARK    4  A    between atoms: C_9  and  C_10
REMARK    5  A    between atoms: C_9  and  C_11
REMARK    6  A    between atoms: C_9  and  N_14
REMARK    7  A    between atoms: N_14  and  C_15
REMARK    8  A    between atoms: C_15  and  C_16
REMARK                            x       y       z     vdW  Elec       q    Type
REMARK                         _______ _______ _______ _____ _____    ______ ____
ROOT
ATOM      1  C   UNL     1      -0.012  -4.195  -0.006  0.00  0.00    +0.033 C 
ATOM      2  C   UNL     1      -1.088  -4.966   0.761  0.00  0.00    +0.004 C 
ENDROOT
BRANCH   1   7
ATOM      3  C   UNL     1      -0.454   1.441   1.189  0.00  0.00    +0.044 C 
ATOM      4  C   UNL     1      -0.339  -0.029   0.877  0.00  0.00    -0.050 A 
ATOM      5  C   UNL     1       0.879  -0.669   1.007  0.00  0.00    +0.003 A 
ATOM      6  C   UNL     1       0.985  -2.018   0.722  0.00  0.00    +0.003 A 
ATOM      7  C   UNL     1      -0.128  -2.725   0.306  0.00  0.00    -0.047 A 
ATOM      8  C   UNL     1      -1.346  -2.085   0.177  0.00  0.00    -0.048 A 
ATOM      9  C   UNL     1      -1.452  -0.738   0.467  0.00  0.00    +0.007 A 
ATOM     10  C   UNL     1      -2.558  -2.857  -0.276  0.00  0.00    +0.044 C 
ENDBRANCH   1   7
BRANCH   1  11
ATOM     11  C   UNL     1       1.350  -4.691   0.405  0.00  0.00    +0.204 C 
ATOM     12  O   UNL     1       1.506  -5.205   1.492  0.00  0.00    -0.277 OA
ATOM     13  N   UNL     1       2.396  -4.562  -0.435  0.00  0.00    -0.330 N 
ATOM     14  H   UNL     1       2.272  -4.150  -1.304  0.00  0.00    +0.145 HD
ATOM     15  H   UNL     1       3.273  -4.881  -0.170  0.00  0.00    +0.145 HD
ENDBRANCH   1  11
BRANCH   1  16
ATOM     16  N   UNL     1      -0.194  -4.405  -1.449  0.00  0.00    +0.394 N 
ATOM     17  H   UNL     1      -1.065  -3.988  -1.742  0.00  0.00    -0.083 HD
ATOM     18  H   UNL     1       0.569  -3.976  -1.950  0.00  0.00    -0.083 HD
BRANCH  16  19
ATOM     19  C   UNL     1      -0.221  -5.845  -1.735  0.00  0.00    -0.037 C 
BRANCH  19  20
ATOM     20  C   UNL     1      -0.408  -6.061  -3.215  0.00  0.00    -0.027 A 
ATOM     21  C   UNL     1       0.531  -6.181  -4.185  0.00  0.00    +0.009 A 
ATOM     22  C   UNL     1       0.123  -6.376  -5.491  0.00  0.00    +0.008 A 
ATOM     23  C   UNL     1      -1.203  -6.442  -5.763  0.00  0.00    +0.045 A 
ATOM     24  S   UNL     1      -1.923  -6.231  -4.143  0.00  0.00    -0.104 S 
ENDBRANCH  19  20
ENDBRANCH  16  19
ENDBRANCH   1  16
TORSDOF 5
