REMARK  Name = ZINC21671018
REMARK  9 active torsions:
REMARK  status: ('A' for Active; 'I' for Inactive)
REMARK    1  A    between atoms: C_3  and  O_29
REMARK    2  A    between atoms: C_6  and  C_7
REMARK    3  A    between atoms: C_10  and  S_13
REMARK    4  A    between atoms: N_11  and  N_12
REMARK    5  A    between atoms: S_13  and  C_14
REMARK    6  A    between atoms: C_14  and  C_15
REMARK    7  A    between atoms: N_17  and  C_18
REMARK    8  A    between atoms: C_22  and  C_24
REMARK    9  A    between atoms: O_29  and  C_30
REMARK                            x       y       z     vdW  Elec       q    Type
REMARK                         _______ _______ _______ _____ _____    ______ ____
ROOT
ATOM      1  C   UNL     1       1.260   0.334  -4.363  0.00  0.00    +0.182 A 
ATOM      2  N   UNL     1       1.965  -0.175  -3.380  0.00  0.00    -0.127 NA
ATOM      3  N   UNL     1       1.444   0.153  -2.251  0.00  0.00    -0.121 NA
ATOM      4  C   UNL     1       0.371   0.885  -2.446  0.00  0.00    +0.209 A 
ATOM      5  N   UNL     1       0.218   1.029  -3.796  0.00  0.00    -0.224 N 
ENDROOT
BRANCH   1  11
ATOM      6  C   UNL     1       2.375  -0.832  -6.261  0.00  0.00    +0.015 A 
ATOM      7  C   UNL     1       2.626  -0.967  -7.610  0.00  0.00    +0.046 A 
ATOM      8  C   UNL     1       2.053  -0.085  -8.517  0.00  0.00    +0.127 A 
ATOM      9  C   UNL     1       1.221   0.933  -8.070  0.00  0.00    +0.046 A 
ATOM     10  C   UNL     1       0.962   1.073  -6.723  0.00  0.00    +0.015 A 
ATOM     11  C   UNL     1       1.536   0.188  -5.808  0.00  0.00    +0.021 A 
BRANCH   8  12
ATOM     12  O   UNL     1       2.306  -0.219  -9.845  0.00  0.00    -0.434 OA
BRANCH  12  13
ATOM     13  C   UNL     1       3.170  -1.288 -10.236  0.00  0.00    +0.541 C 
ATOM     14  F   UNL     1       4.420  -1.124  -9.629  0.00  0.00    -0.166 F 
ATOM     15  F   UNL     1       2.614  -2.507  -9.835  0.00  0.00    -0.166 F 
ENDBRANCH  12  13
ENDBRANCH   8  12
ENDBRANCH   1  11
BRANCH   5  16
ATOM     16  N   UNL     1      -0.766   1.719  -4.446  0.00  0.00    -0.295 N 
ATOM     17  H   UNL     1      -1.548   2.236  -3.871  0.00  0.00    +0.163 HD
ATOM     18  H   UNL     1      -0.776   1.757  -5.545  0.00  0.00    +0.163 HD
ENDBRANCH   5  16
BRANCH   4  19
ATOM     19  S   UNL     1      -0.672   1.562  -1.198  0.00  0.00    -0.075 S 
BRANCH  19  20
ATOM     20  C   UNL     1       0.167   0.946   0.283  0.00  0.00    +0.173 C 
BRANCH  20  21
ATOM     21  C   UNL     1      -0.570   1.414   1.510  0.00  0.00    +0.227 C 
ATOM     22  O   UNL     1      -1.565   2.098   1.396  0.00  0.00    -0.275 OA
ATOM     23  N   UNL     1      -0.124   1.074   2.736  0.00  0.00    -0.285 N 
ATOM     24  H   UNL     1       0.815   0.511   2.842  0.00  0.00    +0.155 HD
BRANCH  23  25
ATOM     25  C   UNL     1      -0.855   1.437   3.873  0.00  0.00    +0.034 A 
ATOM     26  C   UNL     1      -1.533   2.648   3.906  0.00  0.00    +0.025 A 
ATOM     27  C   UNL     1      -2.258   3.001   5.028  0.00  0.00    +0.022 A 
ATOM     28  C   UNL     1      -2.299   2.154   6.121  0.00  0.00    +0.053 A 
ATOM     29  C   UNL     1      -1.620   0.949   6.093  0.00  0.00    +0.075 A 
ATOM     30  C   UNL     1      -0.898   0.589   4.971  0.00  0.00    +0.037 A 
ATOM     31 CL   UNL     1      -3.206   2.604   7.532  0.00  0.00    -0.083 Cl
BRANCH  29  32
ATOM     32  C   UNL     1      -1.668   0.029   7.285  0.00  0.00    +0.419 C 
ATOM     33  F   UNL     1      -0.911  -1.117   7.020  0.00  0.00    -0.166 F 
ATOM     34  F   UNL     1      -1.143   0.687   8.403  0.00  0.00    -0.166 F 
ATOM     35  F   UNL     1      -2.994  -0.336   7.540  0.00  0.00    -0.166 F 
ENDBRANCH  29  32
ENDBRANCH  23  25
ENDBRANCH  20  21
ENDBRANCH  19  20
ENDBRANCH   4  19
TORSDOF 9
