REMARK  Name = ZINC50892175
REMARK  5 active torsions:
REMARK  status: ('A' for Active; 'I' for Inactive)
REMARK    1  A    between atoms: C_1  and  O_2
REMARK    2  A    between atoms: O_2  and  C_3
REMARK    3  A    between atoms: C_6  and  C_10
REMARK    4  A    between atoms: C_10  and  C_12
REMARK    5  A    between atoms: C_10  and  N_21
REMARK                            x       y       z     vdW  Elec       q    Type
REMARK                         _______ _______ _______ _____ _____    ______ ____
ROOT
ATOM      1  C   UNL     1      -4.983  -2.627   0.034  0.00  0.00    -0.012 C 
ENDROOT
BRANCH   1   2
ATOM      2  C   UNL     1      -5.360  -2.973   1.452  0.00  0.00    -0.057 A 
ATOM      3  C   UNL     1      -5.908  -2.009   2.278  0.00  0.00    +0.006 A 
ATOM      4  C   UNL     1      -6.258  -2.321   3.575  0.00  0.00    +0.046 A 
ATOM      5  C   UNL     1      -6.063  -3.611   4.064  0.00  0.00    +0.124 A 
ATOM      6  C   UNL     1      -5.506  -4.568   3.226  0.00  0.00    -0.002 A 
ATOM      7  C   UNL     1      -5.165  -4.256   1.929  0.00  0.00    +0.009 A 
ATOM      8  C   UNL     1      -5.394  -5.850   4.029  0.00  0.00    +0.080 C 
ATOM      9  C   UNL     1      -5.586  -5.338   5.476  0.00  0.00    +0.234 C 
ATOM     10  O   UNL     1      -6.345  -4.132   5.290  0.00  0.00    -0.491 OA
ENDBRANCH   1   2
BRANCH   1  14
ATOM     11  C   UNL     1      -1.200  -0.637   0.010  0.00  0.00    +0.121 A 
ATOM     12  C   UNL     1      -2.375   0.101   0.019  0.00  0.00    +0.046 A 
ATOM     13  C   UNL     1      -3.596  -0.544   0.027  0.00  0.00    +0.007 A 
ATOM     14  C   UNL     1      -3.649  -1.926   0.026  0.00  0.00    -0.039 A 
ATOM     15  C   UNL     1      -2.480  -2.665   0.017  0.00  0.00    +0.046 A 
ATOM     16  C   UNL     1      -1.255  -2.023   0.003  0.00  0.00    +0.065 A 
ATOM     17 CL   UNL     1      -2.550  -4.400   0.015  0.00  0.00    -0.083 Cl
BRANCH  11  19
ATOM     18  C   UNL     1      -0.017   1.425   0.010  0.00  0.00    +0.277 C 
ATOM     19  O   UNL     1       0.002  -0.004   0.002  0.00  0.00    -0.495 OA
ENDBRANCH  11  19
ENDBRANCH   1  14
BRANCH   1  20
ATOM     20  N   UNL     1      -6.005  -1.743  -0.543  0.00  0.00    +0.385 N 
ATOM     21  H   UNL     1      -5.753  -1.512  -1.492  0.00  0.00    -0.089 HD
ATOM     22  H   UNL     1      -6.898  -2.213  -0.537  0.00  0.00    -0.089 HD
ATOM     23  H   UNL     1      -6.066  -0.898   0.004  0.00  0.00    -0.089 HD
ENDBRANCH   1  20
TORSDOF 4
