REMARK  Name = ZINC66864209
REMARK  6 active torsions:
REMARK  status: ('A' for Active; 'I' for Inactive)
REMARK    1  A    between atoms: C_5  and  N_7
REMARK    2  A    between atoms: C_8  and  C_10
REMARK    3  A    between atoms: C_10  and  N_11
REMARK    4  A    between atoms: C_12  and  C_14
REMARK    5  A    between atoms: C_14  and  N_15
REMARK    6  A    between atoms: C_19  and  C_21
REMARK                            x       y       z     vdW  Elec       q    Type
REMARK                         _______ _______ _______ _____ _____    ______ ____
ROOT
ATOM      1  N   UNL     1      -1.254  -4.766   0.681  0.00  0.00    -0.308 N 
ATOM      2  C   UNL     1      -1.471  -6.096   0.717  0.00  0.00    +0.197 C 
ATOM      3  O   UNL     1      -0.537  -6.859   0.845  0.00  0.00    -0.278 OA
ATOM      4  H   UNL     1      -2.001  -4.155   0.579  0.00  0.00    +0.149 HD
ENDROOT
BRANCH   1   5
ATOM      5  C   UNL     1       0.109  -4.242   0.795  0.00  0.00    +0.200 C 
BRANCH   5   7
ATOM      6  N   UNL     1       1.223  -2.034   0.811  0.00  0.00    -0.283 N 
ATOM      7  C   UNL     1       0.077  -2.737   0.726  0.00  0.00    +0.234 C 
ATOM      8  O   UNL     1      -0.981  -2.159   0.594  0.00  0.00    -0.274 OA
ATOM      9  H   UNL     1       2.075  -2.497   0.836  0.00  0.00    +0.155 HD
BRANCH   6  14
ATOM     10  C   UNL     1       0.013   1.392   1.378  0.00  0.00    +0.002 A 
ATOM     11  C   UNL     1       1.107   2.129   0.963  0.00  0.00    +0.001 A 
ATOM     12  C   UNL     1       2.240   1.488   0.498  0.00  0.00    +0.017 A 
ATOM     13  C   UNL     1       2.282   0.107   0.446  0.00  0.00    +0.039 A 
ATOM     14  C   UNL     1       1.185  -0.636   0.863  0.00  0.00    +0.047 A 
ATOM     15  C   UNL     1       0.048   0.012   1.329  0.00  0.00    +0.024 A 
ATOM     16 BR   UNL     1       3.832  -0.769  -0.191  0.00  0.00    -0.048 Br
ENDBRANCH   6  14
ENDBRANCH   5   7
ENDBRANCH   1   5
BRANCH   2  17
ATOM     17  C   UNL     1      -2.873  -6.634   0.600  0.00  0.00    +0.020 C 
BRANCH  17  18
ATOM     18  N   UNL     1      -2.842  -8.101   0.667  0.00  0.00    +0.393 N 
ATOM     19  C   UNL     1      -2.184  -8.641  -0.542  0.00  0.00    -0.077 C 
ATOM     20  C   UNL     1      -2.954  -9.947  -0.862  0.00  0.00    -0.020 C 
ATOM     21  C   UNL     1      -4.408  -9.551  -0.494  0.00  0.00    -0.008 C 
ATOM     22  C   UNL     1      -4.219  -8.625   0.726  0.00  0.00    +0.020 C 
ATOM     23  H   UNL     1      -2.332  -8.393   1.488  0.00  0.00    -0.080 HD
BRANCH  22  24
ATOM     24  C   UNL     1      -5.204  -7.486   0.663  0.00  0.00    +0.197 C 
ATOM     25  O   UNL     1      -5.182  -6.717  -0.274  0.00  0.00    -0.278 OA
ATOM     26  N   UNL     1      -6.108  -7.322   1.649  0.00  0.00    -0.331 N 
ATOM     27  H   UNL     1      -6.125  -7.937   2.399  0.00  0.00    +0.145 HD
ATOM     28  H   UNL     1      -6.742  -6.589   1.609  0.00  0.00    +0.145 HD
ENDBRANCH  22  24
ENDBRANCH  17  18
ENDBRANCH   2  17
TORSDOF 6
