REMARK  Name = ZINC15680470
REMARK  10 active torsions:
REMARK  status: ('A' for Active; 'I' for Inactive)
REMARK    1  A    between atoms: C_1  and  C_2
REMARK    2  A    between atoms: C_2  and  N_57
REMARK    3  A    between atoms: C_3  and  C_4
REMARK    4  A    between atoms: C_3  and  N_57
REMARK    5  A    between atoms: C_4  and  C_5
REMARK    6  A    between atoms: C_5  and  N_6
REMARK    7  A    between atoms: N_9  and  C_10
REMARK    8  A    between atoms: N_12  and  C_21
REMARK    9  A    between atoms: C_22  and  C_23
REMARK   10  A    between atoms: C_22  and  N_57
REMARK                            x       y       z     vdW  Elec       q    Type
REMARK                         _______ _______ _______ _____ _____    ______ ____
ROOT
ATOM      1  N   UNL     1       0.535   1.909   0.441  0.00  0.00    -0.299 N 
ATOM      2  C   UNL     1       0.820   0.592   0.450  0.00  0.00    +0.304 C 
ATOM      3  O   UNL     1      -0.017  -0.214   0.093  0.00  0.00    -0.253 OA
ATOM      4  N   UNL     1       2.034   0.168   0.853  0.00  0.00    -0.268 N 
ATOM      5  H   UNL     1       1.203   2.552   0.725  0.00  0.00    +0.150 HD
ATOM      6  H   UNL     1       2.726   0.813   1.069  0.00  0.00    +0.156 HD
ENDROOT
BRANCH   4   7
ATOM      7  C   UNL     1       2.297  -1.206   0.963  0.00  0.00    +0.059 A 
ATOM      8  C   UNL     1       3.292  -1.768   0.246  0.00  0.00    +0.112 A 
ATOM      9  N   UNL     1       3.583  -3.103   0.322  0.00  0.00    -0.316 N 
ATOM     10  C   UNL     1       2.895  -3.946   1.117  0.00  0.00    +0.259 A 
ATOM     11  O   UNL     1       3.185  -5.128   1.157  0.00  0.00    -0.267 OA
ATOM     12  C   UNL     1       1.794  -3.425   1.935  0.00  0.00    +0.048 A 
ATOM     13  C   UNL     1       1.497  -2.045   1.861  0.00  0.00    +0.010 A 
ATOM     14  C   UNL     1       0.452  -1.522   2.623  0.00  0.00    +0.010 A 
ATOM     15  C   UNL     1      -0.268  -2.347   3.442  0.00  0.00    +0.001 A 
ATOM     16  C   UNL     1       0.024  -3.703   3.522  0.00  0.00    +0.001 A 
ATOM     17  C   UNL     1       1.047  -4.248   2.777  0.00  0.00    +0.014 A 
ATOM     18  C   UNL     1       4.681  -3.635  -0.490  0.00  0.00    +0.152 C 
ENDBRANCH   4   7
BRANCH   1  19
ATOM     19  C   UNL     1      -0.783   2.370  -0.004  0.00  0.00    +0.104 C 
BRANCH  19  20
ATOM     20  C   UNL     1      -0.845   3.896   0.083  0.00  0.00    +0.000 C 
BRANCH  20  21
ATOM     21  C   UNL     1      -2.221   4.377  -0.381  0.00  0.00    -0.077 C 
BRANCH  21  22
ATOM     22  N   UNL     1      -2.273   5.850  -0.271  0.00  0.00    +0.382 N 
ATOM     23  H   UNL     1      -1.983   6.125   0.675  0.00  0.00    -0.081 HD
BRANCH  22  25
ATOM     24  C   UNL     1      -1.146   7.933  -0.881  0.00  0.00    -0.017 C 
ATOM     25  C   UNL     1      -1.353   6.463  -1.252  0.00  0.00    -0.082 C 
ENDBRANCH  22  25
BRANCH  22  26
ATOM     26  C   UNL     1      -3.653   6.326  -0.506  0.00  0.00    -0.043 C 
BRANCH  26  27
ATOM     27  C   UNL     1      -4.471   6.066   0.732  0.00  0.00    -0.064 A 
ATOM     28  C   UNL     1      -5.263   4.935   0.812  0.00  0.00    +0.002 A 
ATOM     29  C   UNL     1      -6.010   4.694   1.950  0.00  0.00    +0.000 A 
ATOM     30  C   UNL     1      -5.973   5.588   3.004  0.00  0.00    +0.000 A 
ATOM     31  C   UNL     1      -5.186   6.721   2.921  0.00  0.00    +0.000 A 
ATOM     32  C   UNL     1      -4.435   6.960   1.786  0.00  0.00    +0.002 A 
ENDBRANCH  26  27
ENDBRANCH  22  26
ENDBRANCH  21  22
ENDBRANCH  20  21
ENDBRANCH  19  20
ENDBRANCH   1  19
TORSDOF 8
