REMARK  Name = ZINC61700319
REMARK  6 active torsions:
REMARK  status: ('A' for Active; 'I' for Inactive)
REMARK    1  A    between atoms: C_1  and  C_2
REMARK    2  A    between atoms: C_2  and  C_4
REMARK    3  A    between atoms: C_2  and  N_20
REMARK    4  A    between atoms: C_7  and  S_11
REMARK    5  A    between atoms: S_11  and  C_12
REMARK    6  A    between atoms: C_16  and  N_18
REMARK                            x       y       z     vdW  Elec       q    Type
REMARK                         _______ _______ _______ _____ _____    ______ ____
ROOT
ATOM      1  C   UNL     1      -1.474  -0.534   0.788  0.00  0.00    -0.061 A 
ATOM      2  C   UNL     1      -2.015  -0.480  -0.484  0.00  0.00    +0.003 A 
ATOM      3  C   UNL     1      -3.291  -0.954  -0.714  0.00  0.00    +0.016 A 
ATOM      4  C   UNL     1      -4.032  -1.487   0.333  0.00  0.00    +0.030 A 
ATOM      5  C   UNL     1      -3.486  -1.541   1.610  0.00  0.00    +0.032 A 
ATOM      6  C   UNL     1      -2.207  -1.069   1.832  0.00  0.00    +0.018 A 
ATOM      7 BR   UNL     1      -4.490  -2.265   3.039  0.00  0.00    -0.049 Br
ENDROOT
BRANCH   1   9
ATOM      8  C   UNL     1      -0.120   1.508   1.164  0.00  0.00    -0.009 C 
ATOM      9  C   UNL     1      -0.081  -0.016   1.036  0.00  0.00    -0.047 C 
BRANCH   9  10
ATOM     10  N   UNL     1       0.788  -0.390  -0.088  0.00  0.00    +0.382 N 
ATOM     11  H   UNL     1       1.720  -0.043   0.077  0.00  0.00    -0.089 HD
ATOM     12  H   UNL     1       0.813  -1.395  -0.173  0.00  0.00    -0.089 HD
ATOM     13  H   UNL     1       0.426   0.010  -0.941  0.00  0.00    -0.089 HD
ENDBRANCH   9  10
ENDBRANCH   1   9
BRANCH   4  14
ATOM     14  S   UNL     1      -5.661  -2.093   0.043  0.00  0.00    -0.049 S 
BRANCH  14  15
ATOM     15  C   UNL     1      -5.470  -3.845   0.039  0.00  0.00    +0.196 A 
ATOM     16  N   UNL     1      -4.254  -4.361   0.135  0.00  0.00    -0.207 NA
ATOM     17  C   UNL     1      -4.072  -5.680   0.135  0.00  0.00    +0.122 A 
ATOM     18  C   UNL     1      -5.179  -6.517   0.033  0.00  0.00    +0.086 A 
ATOM     19  C   UNL     1      -6.441  -5.938  -0.067  0.00  0.00    +0.122 A 
ATOM     20  N   UNL     1      -6.547  -4.611  -0.055  0.00  0.00    -0.207 NA
ATOM     21  N   UNL     1      -2.796  -6.212   0.236  0.00  0.00    -0.343 N 
ATOM     22  H   UNL     1      -2.028  -5.623   0.306  0.00  0.00    +0.144 HD
ATOM     23  H   UNL     1      -2.670  -7.174   0.235  0.00  0.00    +0.144 HD
BRANCH  19  24
ATOM     24  N   UNL     1      -7.572  -6.732  -0.171  0.00  0.00    -0.343 N 
ATOM     25  H   UNL     1      -7.487  -7.698  -0.175  0.00  0.00    +0.144 HD
ATOM     26  H   UNL     1      -8.448  -6.322  -0.239  0.00  0.00    +0.144 HD
ENDBRANCH  19  24
ENDBRANCH  14  15
ENDBRANCH   4  14
TORSDOF 5
