REMARK  Name = ZINC04809705
REMARK  10 active torsions:
REMARK  status: ('A' for Active; 'I' for Inactive)
REMARK    1  A    between atoms: C_1  and  C_2
REMARK    2  A    between atoms: C_5  and  C_9
REMARK    3  A    between atoms: C_6  and  C_8
REMARK    4  A    between atoms: C_11  and  C_26
REMARK    5  A    between atoms: C_12  and  C_17
REMARK    6  A    between atoms: C_17  and  N_52
REMARK    7  A    between atoms: C_18  and  C_19
REMARK    8  A    between atoms: C_18  and  N_52
REMARK    9  A    between atoms: C_26  and  O_28
REMARK   10  A    between atoms: O_28  and  C_29
REMARK                            x       y       z     vdW  Elec       q    Type
REMARK                         _______ _______ _______ _____ _____    ______ ____
ROOT
ATOM      1  C   UNL     1      -0.732   2.949   3.449  0.00  0.00    +0.144 C 
ATOM      2  C   UNL     1       0.003   2.558   2.182  0.00  0.00    +0.076 C 
ATOM      3  C   UNL     1      -0.723   2.035   1.171  0.00  0.00    +0.007 C 
ATOM      4  N   UNL     1      -2.073   1.869   1.284  0.00  0.00    -0.274 N 
ATOM      5  C   UNL     1      -2.772   2.190   2.380  0.00  0.00    +0.304 C 
ATOM      6  O   UNL     1      -3.972   2.001   2.389  0.00  0.00    -0.252 OA
ATOM      7  N   UNL     1      -2.188   2.723   3.472  0.00  0.00    -0.288 N 
ATOM      8  H   UNL     1      -2.553   1.492   0.530  0.00  0.00    +0.156 HD
ATOM      9  H   UNL     1      -2.713   2.953   4.254  0.00  0.00    +0.151 HD
ENDROOT
BRANCH   1  14
ATOM     10  C   UNL     1       1.594   0.000   7.840  0.00  0.00    +0.044 C 
ATOM     11  C   UNL     1       0.987   0.769   6.695  0.00  0.00    -0.050 A 
ATOM     12  C   UNL     1      -0.072   0.233   5.987  0.00  0.00    +0.004 A 
ATOM     13  C   UNL     1      -0.633   0.941   4.940  0.00  0.00    +0.006 A 
ATOM     14  C   UNL     1      -0.126   2.180   4.594  0.00  0.00    -0.020 A 
ATOM     15  C   UNL     1       0.934   2.715   5.301  0.00  0.00    -0.045 A 
ATOM     16  C   UNL     1       1.491   2.010   6.352  0.00  0.00    +0.007 A 
ATOM     17  C   UNL     1       1.483   4.068   4.927  0.00  0.00    +0.044 C 
ENDBRANCH   1  14
BRANCH   2  18
ATOM     18  C   UNL     1       1.401   2.736   2.064  0.00  0.00    +0.338 C 
ATOM     19  O   UNL     1       2.161   1.923   2.556  0.00  0.00    -0.245 OA
BRANCH  18  20
ATOM     20  O   UNL     1       1.892   3.807   1.406  0.00  0.00    -0.465 OA
ATOM     21  C   UNL     1       3.314   3.924   1.326  0.00  0.00    +0.280 C 
ENDBRANCH  18  20
ENDBRANCH   2  18
BRANCH   3  22
ATOM     22  C   UNL     1      -0.031   1.633  -0.107  0.00  0.00    -0.030 C 
BRANCH  22  23
ATOM     23  N   UNL     1      -0.142   0.172  -0.278  0.00  0.00    +0.385 N 
ATOM     24  H   UNL     1      -1.134  -0.089  -0.321  0.00  0.00    -0.085 HD
ATOM     25  H   UNL     1       0.301  -0.297   0.521  0.00  0.00    -0.085 HD
BRANCH  23  26
ATOM     26  C   UNL     1       0.528  -0.250  -1.523  0.00  0.00    -0.046 C 
BRANCH  26  27
ATOM     27  C   UNL     1       0.399  -1.744  -1.671  0.00  0.00    -0.064 A 
ATOM     28  C   UNL     1       1.367  -2.576  -1.142  0.00  0.00    +0.004 A 
ATOM     29  C   UNL     1       1.247  -3.947  -1.272  0.00  0.00    +0.038 A 
ATOM     30  C   UNL     1       0.162  -4.486  -1.942  0.00  0.00    +0.123 A 
ATOM     31  C   UNL     1      -0.805  -3.651  -2.477  0.00  0.00    +0.038 A 
ATOM     32  C   UNL     1      -0.685  -2.280  -2.340  0.00  0.00    +0.004 A 
ATOM     33  F   UNL     1       0.047  -5.825  -2.076  0.00  0.00    -0.205 F 
ENDBRANCH  26  27
ENDBRANCH  23  26
ENDBRANCH  22  23
ENDBRANCH   3  22
TORSDOF 7
