REMARK  Name = ZINC35523524
REMARK  9 active torsions:
REMARK  status: ('A' for Active; 'I' for Inactive)
REMARK    1  A    between atoms: C_1  and  C_2
REMARK    2  A    between atoms: C_2  and  C_4
REMARK    3  A    between atoms: C_2  and  N_12
REMARK    4  A    between atoms: C_4  and  C_5
REMARK    5  A    between atoms: C_5  and  C_6
REMARK    6  A    between atoms: C_13  and  C_15
REMARK    7  A    between atoms: C_18  and  C_20
REMARK    8  A    between atoms: C_20  and  N_21
REMARK    9  A    between atoms: C_29  and  C_31
REMARK                            x       y       z     vdW  Elec       q    Type
REMARK                         _______ _______ _______ _____ _____    ______ ____
ROOT
ATOM      1  C   UNL     1      -3.427  -1.150  -1.134  0.00  0.00    +0.189 A 
ATOM      2  C   UNL     1      -4.221  -1.337  -2.229  0.00  0.00    +0.055 A 
ATOM      3  C   UNL     1      -5.447  -1.835  -1.758  0.00  0.00    +0.043 A 
ATOM      4  C   UNL     1      -5.347  -1.929  -0.414  0.00  0.00    +0.090 A 
ATOM      5  O   UNL     1      -4.127  -1.520  -0.042  0.00  0.00    -0.457 OA
ENDROOT
BRANCH   1   7
ATOM      6  N   UNL     1      -1.372  -0.511   0.012  0.00  0.00    -0.306 N 
ATOM      7  C   UNL     1      -2.051  -0.643  -1.145  0.00  0.00    +0.280 C 
ATOM      8  O   UNL     1      -1.522  -0.340  -2.198  0.00  0.00    -0.267 OA
ATOM      9  H   UNL     1      -1.794  -0.752   0.852  0.00  0.00    +0.149 HD
BRANCH   6  11
ATOM     10  C   UNL     1      -0.019   1.526   0.010  0.00  0.00    +0.028 C 
ATOM     11  C   UNL     1       0.002  -0.004   0.002  0.00  0.00    +0.071 C 
BRANCH  11  12
ATOM     12  C   UNL     1       0.742  -0.511   1.242  0.00  0.00    +0.026 C 
BRANCH  12  13
ATOM     13  C   UNL     1       0.872  -2.034   1.171  0.00  0.00    +0.037 C 
BRANCH  13  14
ATOM     14  C   UNL     1       1.601  -2.533   2.392  0.00  0.00    -0.047 A 
ATOM     15  C   UNL     1       2.979  -2.641   2.378  0.00  0.00    +0.003 A 
ATOM     16  C   UNL     1       3.647  -3.099   3.498  0.00  0.00    +0.000 A 
ATOM     17  C   UNL     1       2.938  -3.448   4.632  0.00  0.00    +0.000 A 
ATOM     18  C   UNL     1       1.560  -3.340   4.646  0.00  0.00    +0.000 A 
ATOM     19  C   UNL     1       0.892  -2.878   3.527  0.00  0.00    +0.003 A 
ENDBRANCH  13  14
ENDBRANCH  12  13
ENDBRANCH  11  12
ENDBRANCH   6  11
ENDBRANCH   1   7
BRANCH   4  20
ATOM     20  C   UNL     1      -6.429  -2.417   0.514  0.00  0.00    -0.002 C 
BRANCH  20  21
ATOM     21  N   UNL     1      -6.305  -3.870   0.690  0.00  0.00    +0.394 N 
ATOM     22  C   UNL     1      -5.035  -4.173   1.363  0.00  0.00    -0.055 C 
ATOM     23  C   UNL     1      -4.742  -5.676   1.273  0.00  0.00    +0.103 C 
ATOM     24  N   UNL     1      -5.937  -6.399   1.727  0.00  0.00    -0.353 N 
ATOM     25  C   UNL     1      -6.040  -7.700   2.099  0.00  0.00    +0.086 A 
ATOM     26  C   UNL     1      -7.323  -7.937   2.449  0.00  0.00    +0.019 A 
ATOM     27  C   UNL     1      -8.037  -6.731   2.283  0.00  0.00    +0.021 A 
ATOM     28  C   UNL     1      -7.169  -5.810   1.839  0.00  0.00    +0.009 A 
ATOM     29  C   UNL     1      -7.432  -4.364   1.499  0.00  0.00    +0.014 C 
ATOM     30  H   UNL     1      -6.319  -4.319  -0.213  0.00  0.00    -0.080 HD
BRANCH  29  31
ATOM     31  C   UNL     1      -8.711  -4.251   0.711  0.00  0.00    -0.020 A 
ATOM     32  C   UNL     1      -8.674  -4.256  -0.671  0.00  0.00    +0.008 A 
ATOM     33  C   UNL     1      -9.847  -4.154  -1.396  0.00  0.00    +0.039 A 
ATOM     34  C   UNL     1     -11.060  -4.045  -0.738  0.00  0.00    +0.126 A 
ATOM     35  C   UNL     1     -11.099  -4.040   0.646  0.00  0.00    +0.077 A 
ATOM     36  C   UNL     1      -9.924  -4.149   1.370  0.00  0.00    +0.128 A 
ATOM     37  F   UNL     1      -9.961  -4.150   2.721  0.00  0.00    -0.205 F 
ATOM     38  F   UNL     1     -12.206  -3.944  -1.446  0.00  0.00    -0.205 F 
ENDBRANCH  29  31
ENDBRANCH  20  21
ENDBRANCH   4  20
TORSDOF 8
