REMARK  Name = ZINC13865100
REMARK  10 active torsions:
REMARK  status: ('A' for Active; 'I' for Inactive)
REMARK    1  A    between atoms: C_1  and  C_2
REMARK    2  A    between atoms: C_2  and  N_9
REMARK    3  A    between atoms: N_9  and  C_10
REMARK    4  A    between atoms: C_10  and  N_11
REMARK    5  A    between atoms: N_11  and  C_12
REMARK    6  A    between atoms: C_15  and  N_18
REMARK    7  A    between atoms: N_18  and  C_19
REMARK    8  A    between atoms: C_19  and  N_20
REMARK    9  A    between atoms: N_20  and  C_21
REMARK   10  A    between atoms: C_21  and  C_28
REMARK                            x       y       z     vdW  Elec       q    Type
REMARK                         _______ _______ _______ _____ _____    ______ ____
ROOT
ATOM      1  C   UNL     1       0.974  -0.048  -4.731  0.00  0.00    +0.033 A 
ATOM      2  C   UNL     1       0.449   1.232  -4.854  0.00  0.00    +0.025 A 
ATOM      3  C   UNL     1       0.045   1.696  -6.090  0.00  0.00    +0.025 A 
ATOM      4  C   UNL     1       0.166   0.884  -7.210  0.00  0.00    +0.033 A 
ATOM      5  C   UNL     1       0.693  -0.395  -7.087  0.00  0.00    +0.025 A 
ATOM      6  C   UNL     1       1.100  -0.858  -5.852  0.00  0.00    +0.025 A 
ENDROOT
BRANCH   1   7
ATOM      7  N   UNL     1       1.383  -0.519  -3.477  0.00  0.00    -0.297 N 
ATOM      8  H   UNL     1       1.822   0.080  -2.853  0.00  0.00    +0.154 HD
BRANCH   7   9
ATOM      9  C   UNL     1       1.167  -1.805  -3.137  0.00  0.00    +0.135 C 
ATOM     10  S   UNL     1       0.263  -2.824  -4.173  0.00  0.00    -0.019 S 
BRANCH   9  11
ATOM     11  N   UNL     1       1.663  -2.289  -1.981  0.00  0.00    -0.319 N 
ATOM     12  H   UNL     1       2.121  -1.697  -1.363  0.00  0.00    +0.148 HD
BRANCH  11  14
ATOM     13  C   UNL     1       2.148  -4.537  -2.774  0.00  0.00    +0.033 C 
ATOM     14  C   UNL     1       1.512  -3.710  -1.656  0.00  0.00    +0.052 C 
ATOM     15  C   UNL     1       2.256  -3.993  -0.352  0.00  0.00    +0.049 C 
ATOM     16  C   UNL     1       1.309  -3.795   0.864  0.00  0.00    +0.168 C 
ATOM     17  S   UNL     1      -0.239  -4.525   0.170  0.00  0.00    -0.029 S 
ATOM     18  O   UNL     1      -1.361  -3.827   0.692  0.00  0.00    -0.174 OA
ATOM     19  O   UNL     1      -0.178  -5.941   0.281  0.00  0.00    -0.174 OA
ATOM     20  C   UNL     1       0.008  -4.043  -1.590  0.00  0.00    +0.191 C 
ENDBRANCH  11  14
ENDBRANCH   9  11
ENDBRANCH   7   9
ENDBRANCH   1   7
BRANCH   4  21
ATOM     21  N   UNL     1      -0.244   1.355  -8.464  0.00  0.00    -0.297 N 
ATOM     22  H   UNL     1      -0.730   0.770  -9.066  0.00  0.00    +0.154 HD
BRANCH  21  23
ATOM     23  C   UNL     1       0.038   2.620  -8.834  0.00  0.00    +0.135 C 
ATOM     24  S   UNL     1       1.021   3.605  -7.836  0.00  0.00    -0.019 S 
BRANCH  23  25
ATOM     25  N   UNL     1      -0.455   3.110  -9.988  0.00  0.00    -0.319 N 
ATOM     26  H   UNL     1      -1.073   2.580 -10.516  0.00  0.00    +0.148 HD
BRANCH  25  27
ATOM     27  C   UNL     1      -0.058   4.444 -10.447  0.00  0.00    +0.052 C 
ATOM     28  C   UNL     1      -0.731   4.720 -11.791  0.00  0.00    +0.049 C 
ATOM     29  C   UNL     1      -2.111   5.402 -11.573  0.00  0.00    +0.168 C 
ATOM     30  S   UNL     1      -1.677   6.534 -10.180  0.00  0.00    -0.029 S 
ATOM     31  O   UNL     1      -2.804   6.676  -9.325  0.00  0.00    -0.174 OA
ATOM     32  O   UNL     1      -1.040   7.693 -10.700  0.00  0.00    -0.174 OA
ATOM     33  C   UNL     1      -0.422   5.469  -9.355  0.00  0.00    +0.191 C 
ATOM     34  C   UNL     1       1.458   4.460 -10.649  0.00  0.00    +0.033 C 
ENDBRANCH  25  27
ENDBRANCH  23  25
ENDBRANCH  21  23
ENDBRANCH   4  21
TORSDOF 8
