REMARK  Name = ZINC36003298
REMARK  12 active torsions:
REMARK  status: ('A' for Active; 'I' for Inactive)
REMARK    1  A    between atoms: C_1  and  C_2
REMARK    2  A    between atoms: C_2  and  N_3
REMARK    3  A    between atoms: N_10  and  C_13
REMARK    4  A    between atoms: C_13  and  C_14
REMARK    5  A    between atoms: C_15  and  C_36
REMARK    6  A    between atoms: C_16  and  C_23
REMARK    7  A    between atoms: N_21  and  C_22
REMARK    8  A    between atoms: C_27  and  O_29
REMARK    9  A    between atoms: O_29  and  C_30
REMARK   10  A    between atoms: C_36  and  O_38
REMARK   11  A    between atoms: O_38  and  C_39
REMARK   12  A    between atoms: C_39  and  C_40
REMARK                            x       y       z     vdW  Elec       q    Type
REMARK                         _______ _______ _______ _____ _____    ______ ____
ROOT
ATOM      1  C   UNL     1      -0.581  -5.896   5.046  0.00  0.00    +0.010 C 
ATOM      2  C   UNL     1      -0.117  -6.105   6.297  0.00  0.00    +0.076 C 
ATOM      3  C   UNL     1       0.100  -7.538   6.739  0.00  0.00    +0.144 C 
ATOM      4  N   UNL     1      -0.214  -8.593   5.761  0.00  0.00    -0.288 N 
ATOM      5  C   UNL     1      -0.670  -8.226   4.546  0.00  0.00    +0.307 C 
ATOM      6  O   UNL     1      -0.932  -9.089   3.732  0.00  0.00    -0.252 OA
ATOM      7  N   UNL     1      -0.849  -6.942   4.210  0.00  0.00    -0.264 N 
ATOM      8  C   UNL     1      -1.355  -6.643   2.869  0.00  0.00    +0.139 C 
ATOM      9  H   UNL     1      -0.095  -9.529   5.984  0.00  0.00    +0.151 HD
ENDROOT
BRANCH   3  10
ATOM     10  C   UNL     1       1.547  -7.688   7.135  0.00  0.00    -0.019 A 
ATOM     11  C   UNL     1       2.516  -7.851   6.161  0.00  0.00    +0.006 A 
ATOM     12  C   UNL     1       3.844  -7.988   6.521  0.00  0.00    +0.004 A 
ATOM     13  C   UNL     1       4.206  -7.963   7.854  0.00  0.00    +0.046 A 
ATOM     14  C   UNL     1       3.236  -7.799   8.832  0.00  0.00    +0.129 A 
ATOM     15  C   UNL     1       1.904  -7.656   8.468  0.00  0.00    +0.052 A 
BRANCH  14  16
ATOM     16  O   UNL     1       3.590  -7.774  10.144  0.00  0.00    -0.456 OA
BRANCH  16  17
ATOM     17  C   UNL     1       3.368  -8.891  10.885  0.00  0.00    +0.128 A 
ATOM     18  C   UNL     1       2.920 -10.053  10.275  0.00  0.00    +0.046 A 
ATOM     19  C   UNL     1       2.695 -11.187  11.031  0.00  0.00    +0.004 A 
ATOM     20  C   UNL     1       2.916 -11.164  12.396  0.00  0.00    +0.000 A 
ATOM     21  C   UNL     1       3.363 -10.007  13.007  0.00  0.00    +0.004 A 
ATOM     22  C   UNL     1       3.595  -8.872  12.254  0.00  0.00    +0.046 A 
ENDBRANCH  16  17
ENDBRANCH  14  16
ENDBRANCH   3  10
BRANCH   2  23
ATOM     23  C   UNL     1       0.156  -5.022   7.166  0.00  0.00    +0.339 C 
ATOM     24  O   UNL     1       0.052  -3.879   6.764  0.00  0.00    -0.245 OA
BRANCH  23  25
ATOM     25  O   UNL     1       0.531  -5.258   8.441  0.00  0.00    -0.462 OA
BRANCH  25  26
ATOM     26  C   UNL     1       0.791  -4.118   9.262  0.00  0.00    +0.229 C 
ATOM     27  C   UNL     1       1.201  -4.580  10.662  0.00  0.00    +0.048 C 
ENDBRANCH  25  26
ENDBRANCH  23  25
ENDBRANCH   2  23
BRANCH   1  28
ATOM     28  C   UNL     1      -0.811  -4.486   4.567  0.00  0.00    -0.026 C 
BRANCH  28  36
ATOM     29  N   UNL     1       2.074  -3.999   0.018  0.00  0.00    -0.300 N 
ATOM     30  C   UNL     1       2.180  -2.850   0.715  0.00  0.00    +0.302 C 
ATOM     31  O   UNL     1       2.163  -1.783   0.133  0.00  0.00    -0.253 OA
ATOM     32  N   UNL     1       2.307  -2.884   2.056  0.00  0.00    -0.287 N 
ATOM     33  C   UNL     1       2.336  -1.609   2.801  0.00  0.00    +0.107 C 
ATOM     34  C   UNL     1       1.504  -1.704   4.093  0.00  0.00    +0.000 C 
ATOM     35  C   UNL     1       0.240  -2.490   3.821  0.00  0.00    -0.077 C 
ATOM     36  N   UNL     1       0.467  -3.896   4.150  0.00  0.00    +0.384 N 
ATOM     37  C   UNL     1       0.997  -4.675   3.098  0.00  0.00    -0.059 C 
ATOM     38  C   UNL     1       2.402  -4.170   2.716  0.00  0.00    +0.091 C 
ATOM     39  H   UNL     1       2.163  -4.851   0.473  0.00  0.00    +0.150 HD
ATOM     40  H   UNL     1       1.104  -3.941   4.932  0.00  0.00    -0.081 HD
BRANCH  29  42
ATOM     41  C   UNL     1       1.749  -5.389  -1.968  0.00  0.00    +0.024 C 
ATOM     42  C   UNL     1       1.825  -3.961  -1.425  0.00  0.00    +0.102 C 
ENDBRANCH  29  42
ENDBRANCH  28  36
ENDBRANCH   1  28
TORSDOF 9
