REMARK  Name = ZINC40322849
REMARK  8 active torsions:
REMARK  status: ('A' for Active; 'I' for Inactive)
REMARK    1  A    between atoms: C_1  and  C_2
REMARK    2  A    between atoms: C_5  and  S_8
REMARK    3  A    between atoms: S_8  and  C_11
REMARK    4  A    between atoms: C_14  and  C_16
REMARK    5  A    between atoms: N_18  and  C_19
REMARK    6  A    between atoms: C_19  and  C_20
REMARK    7  A    between atoms: C_20  and  C_22
REMARK    8  A    between atoms: C_20  and  N_29
REMARK                            x       y       z     vdW  Elec       q    Type
REMARK                         _______ _______ _______ _____ _____    ______ ____
ROOT
ATOM      1  C   UNL     1       7.559  -5.032  -2.586  0.00  0.00    +0.279 C 
ATOM      2  O   UNL     1       7.289  -5.796  -1.678  0.00  0.00    -0.267 OA
ATOM      3  N   UNL     1       6.909  -5.129  -3.763  0.00  0.00    -0.310 N 
ATOM      4  H   UNL     1       7.124  -4.520  -4.487  0.00  0.00    +0.149 HD
ENDROOT
BRANCH   1   8
ATOM      5  C   UNL     1       9.947  -2.329  -2.801  0.00  0.00    +0.246 A 
ATOM      6  C   UNL     1      10.185  -2.726  -1.532  0.00  0.00    +0.070 A 
ATOM      7  C   UNL     1       9.322  -3.800  -1.266  0.00  0.00    +0.056 A 
ATOM      8  C   UNL     1       8.591  -4.007  -2.400  0.00  0.00    +0.192 A 
ATOM      9  O   UNL     1       8.982  -3.100  -3.319  0.00  0.00    -0.433 OA
BRANCH   5  10
ATOM     10  S   UNL     1      10.764  -1.009  -3.634  0.00  0.00    +0.058 S 
ATOM     11  O   UNL     1      11.261  -0.139  -2.627  0.00  0.00    -0.161 OA
ATOM     12  O   UNL     1       9.883  -0.566  -4.657  0.00  0.00    -0.161 OA
BRANCH  10  17
ATOM     13  C   UNL     1      15.580  -3.359  -6.408  0.00  0.00    +0.044 C 
ATOM     14  C   UNL     1      14.377  -2.772  -5.715  0.00  0.00    -0.050 A 
ATOM     15  C   UNL     1      13.163  -2.709  -6.373  0.00  0.00    +0.005 A 
ATOM     16  C   UNL     1      12.060  -2.171  -5.737  0.00  0.00    +0.028 A 
ATOM     17  C   UNL     1      12.171  -1.696  -4.444  0.00  0.00    +0.097 A 
ATOM     18  C   UNL     1      13.385  -1.760  -3.786  0.00  0.00    +0.028 A 
ATOM     19  C   UNL     1      14.487  -2.302  -4.420  0.00  0.00    +0.005 A 
ENDBRANCH  10  17
ENDBRANCH   5  10
ENDBRANCH   1   8
BRANCH   3  20
ATOM     20  C   UNL     1       5.878  -6.153  -3.948  0.00  0.00    +0.094 C 
BRANCH  20  21
ATOM     21  C   UNL     1       5.211  -5.964  -5.312  0.00  0.00    -0.019 C 
BRANCH  21  22
ATOM     22  N   UNL     1       4.734  -4.580  -5.437  0.00  0.00    +0.385 N 
ATOM     23  C   UNL     1       3.836  -4.286  -4.304  0.00  0.00    -0.078 C 
ATOM     24  C   UNL     1       3.833  -2.795  -4.077  0.00  0.00    -0.019 C 
ATOM     25  C   UNL     1       2.642  -2.119  -4.783  0.00  0.00    -0.002 C 
ATOM     26  C   UNL     1       2.394  -2.716  -6.183  0.00  0.00    -0.002 C 
ATOM     27  C   UNL     1       3.675  -2.973  -6.933  0.00  0.00    -0.019 C 
ATOM     28  C   UNL     1       4.123  -4.428  -6.683  0.00  0.00    -0.078 C 
ATOM     29  H   UNL     1       5.528  -3.959  -5.388  0.00  0.00    -0.081 HD
ENDBRANCH  21  22
BRANCH  21  30
ATOM     30  C   UNL     1       6.210  -6.251  -6.404  0.00  0.00    -0.041 A 
ATOM     31  C   UNL     1       6.928  -5.216  -6.974  0.00  0.00    +0.003 A 
ATOM     32  C   UNL     1       7.844  -5.479  -7.975  0.00  0.00    +0.000 A 
ATOM     33  C   UNL     1       8.044  -6.778  -8.406  0.00  0.00    +0.001 A 
ATOM     34  C   UNL     1       7.327  -7.813  -7.837  0.00  0.00    +0.020 A 
ATOM     35  C   UNL     1       6.414  -7.551  -6.831  0.00  0.00    +0.043 A 
ATOM     36 CL   UNL     1       5.518  -8.852  -6.111  0.00  0.00    -0.083 Cl
ENDBRANCH  21  30
ENDBRANCH  20  21
ENDBRANCH   3  20
TORSDOF 7
