REMARK  Name = ZINC63375466
REMARK  6 active torsions:
REMARK  status: ('A' for Active; 'I' for Inactive)
REMARK    1  A    between atoms: C_1  and  C_2
REMARK    2  A    between atoms: C_2  and  C_3
REMARK    3  A    between atoms: C_3  and  N_4
REMARK    4  A    between atoms: C_5  and  C_7
REMARK    5  A    between atoms: C_12  and  N_13
REMARK    6  A    between atoms: C_29  and  C_34
REMARK                            x       y       z     vdW  Elec       q    Type
REMARK                         _______ _______ _______ _____ _____    ______ ____
ROOT
ATOM      1  N   UNL     1      -4.976  -4.211   0.026  0.00  0.00    -0.192 N 
ATOM      2  C   UNL     1      -5.653  -3.844  -1.082  0.00  0.00    +0.248 C 
ATOM      3  O   UNL     1      -5.312  -4.005  -2.234  0.00  0.00    -0.273 OA
ATOM      4  C   UNL     1      -6.925  -3.191  -0.587  0.00  0.00    +0.169 C 
ATOM      5  C   UNL     1      -7.000  -1.741  -1.098  0.00  0.00    +0.065 C 
ATOM      6  C   UNL     1      -7.888  -0.992  -0.132  0.00  0.00    -0.034 C 
ATOM      7  C   UNL     1      -8.167   0.303  -0.037  0.00  0.00    -0.001 A 
ATOM      8  C   UNL     1      -7.792   1.449  -0.882  0.00  0.00    +0.010 A 
ATOM      9  C   UNL     1      -8.246   2.665  -0.478  0.00  0.00    +0.001 A 
ATOM     10  C   UNL     1      -9.025   2.853   0.668  0.00  0.00    +0.002 A 
ATOM     11  C   UNL     1      -9.422   1.856   1.499  0.00  0.00    +0.026 A 
ATOM     12  C   UNL     1      -9.011   0.530   1.175  0.00  0.00    +0.043 A 
ATOM     13  N   UNL     1      -9.258  -0.597   1.774  0.00  0.00    -0.375 N 
ATOM     14  C   UNL     1      -8.652  -1.678   0.995  0.00  0.00    +0.131 C 
ATOM     15  C   UNL     1      -7.625  -2.462   1.823  0.00  0.00    +0.135 C 
ATOM     16  N   UNL     1      -6.747  -3.172   0.879  0.00  0.00    -0.264 N 
ATOM     17  C   UNL     1      -5.625  -3.854   1.143  0.00  0.00    +0.317 C 
ATOM     18  O   UNL     1      -5.238  -4.114   2.265  0.00  0.00    -0.252 OA
ATOM     19  H   UNL     1      -9.758  -0.703   2.598  0.00  0.00    +0.160 HD
ENDROOT
BRANCH  15  20
ATOM     20  C   UNL     1      -6.828  -1.514   2.682  0.00  0.00    -0.023 A 
ATOM     21  C   UNL     1      -5.782  -0.796   2.131  0.00  0.00    +0.005 A 
ATOM     22  C   UNL     1      -5.051   0.073   2.917  0.00  0.00    +0.002 A 
ATOM     23  C   UNL     1      -5.363   0.225   4.256  0.00  0.00    +0.020 A 
ATOM     24  C   UNL     1      -6.408  -0.493   4.807  0.00  0.00    +0.041 A 
ATOM     25  C   UNL     1      -7.144  -1.359   4.018  0.00  0.00    +0.025 A 
ATOM     26 CL   UNL     1      -6.801  -0.304   6.488  0.00  0.00    -0.084 Cl
ENDBRANCH  15  20
BRANCH   1  32
ATOM     27  C   UNL     1      -2.551  -4.164   0.004  0.00  0.00    +0.059 A 
ATOM     28  C   UNL     1      -1.335  -4.850  -0.005  0.00  0.00    +0.015 A 
ATOM     29  C   UNL     1      -1.323  -6.228  -0.013  0.00  0.00    +0.001 A 
ATOM     30  C   UNL     1      -2.513  -6.937  -0.011  0.00  0.00    +0.002 A 
ATOM     31  C   UNL     1      -3.722  -6.272  -0.001  0.00  0.00    +0.025 A 
ATOM     32  C   UNL     1      -3.753  -4.885   0.012  0.00  0.00    +0.058 A 
BRANCH  27  34
ATOM     33  N   UNL     1      -1.413  -1.998   0.005  0.00  0.00    -0.311 N 
ATOM     34  C   UNL     1      -2.571  -2.688   0.012  0.00  0.00    +0.246 C 
ATOM     35  O   UNL     1      -3.632  -2.095   0.025  0.00  0.00    -0.270 OA
ATOM     36  H   UNL     1      -0.567  -2.472  -0.006  0.00  0.00    +0.149 HD
BRANCH  33  37
ATOM     37  C   UNL     1      -1.433  -0.534   0.013  0.00  0.00    +0.104 C 
BRANCH  37  39
ATOM     38  C   UNL     1      -0.019   1.526   0.010  0.00  0.00    +0.005 C 
ATOM     39  C   UNL     1       0.002  -0.004   0.002  0.00  0.00    +0.015 C 
ENDBRANCH  37  39
ENDBRANCH  33  37
ENDBRANCH  27  34
ENDBRANCH   1  32
TORSDOF 5
