REMARK  Name = ZINC66404896
REMARK  11 active torsions:
REMARK  status: ('A' for Active; 'I' for Inactive)
REMARK    1  A    between atoms: C_1  and  C_2
REMARK    2  A    between atoms: C_2  and  C_3
REMARK    3  A    between atoms: C_3  and  C_4
REMARK    4  A    between atoms: C_7  and  N_10
REMARK    5  A    between atoms: N_10  and  C_11
REMARK    6  A    between atoms: C_11  and  C_12
REMARK    7  A    between atoms: C_14  and  O_24
REMARK    8  A    between atoms: C_15  and  O_19
REMARK    9  A    between atoms: O_19  and  C_20
REMARK   10  A    between atoms: C_20  and  C_21
REMARK   11  A    between atoms: O_24  and  C_25
REMARK                            x       y       z     vdW  Elec       q    Type
REMARK                         _______ _______ _______ _____ _____    ______ ____
ROOT
ATOM      1  C   UNL     1       0.951  -8.068   3.706  0.00  0.00    -0.059 A 
ATOM      2  C   UNL     1      -0.074  -8.775   4.306  0.00  0.00    +0.051 A 
ATOM      3  C   UNL     1      -0.057 -10.161   4.300  0.00  0.00    +0.163 A 
ATOM      4  C   UNL     1       0.993 -10.838   3.689  0.00  0.00    +0.181 A 
ATOM      5  C   UNL     1       2.018 -10.124   3.088  0.00  0.00    +0.086 A 
ATOM      6  C   UNL     1       1.992  -8.740   3.093  0.00  0.00    +0.025 A 
ATOM      7 CL   UNL     1       3.331 -10.964   2.325  0.00  0.00    -0.080 Cl
ENDROOT
BRANCH   3   8
ATOM      8  O   UNL     1      -1.065 -10.857   4.891  0.00  0.00    -0.491 OA
ATOM      9  C   UNL     1      -2.110 -10.095   5.500  0.00  0.00    +0.277 C 
ENDBRANCH   3   8
BRANCH   1  10
ATOM     10  C   UNL     1       0.931  -6.561   3.714  0.00  0.00    -0.046 C 
BRANCH  10  11
ATOM     11  N   UNL     1       0.220  -6.075   2.524  0.00  0.00    +0.384 N 
ATOM     12  H   UNL     1      -0.726  -6.424   2.531  0.00  0.00    -0.085 HD
ATOM     13  H   UNL     1       0.693  -6.400   1.694  0.00  0.00    -0.085 HD
BRANCH  11  17
ATOM     14  C   UNL     1       0.763  -2.041   1.233  0.00  0.00    -0.011 C 
ATOM     15  C   UNL     1      -0.666  -2.571   1.370  0.00  0.00    +0.002 C 
ATOM     16  C   UNL     1      -0.645  -4.101   1.361  0.00  0.00    -0.015 C 
ATOM     17  C   UNL     1       0.200  -4.606   2.532  0.00  0.00    -0.071 C 
ATOM     18  C   UNL     1       1.629  -4.076   2.396  0.00  0.00    -0.015 C 
ATOM     19  C   UNL     1       1.608  -2.546   2.404  0.00  0.00    +0.002 C 
BRANCH  14  20
ATOM     20  C   UNL     1       0.742  -0.511   1.242  0.00  0.00    +0.003 C 
BRANCH  20  22
ATOM     21  C   UNL     1      -0.019   1.526   0.010  0.00  0.00    +0.004 C 
ATOM     22  C   UNL     1       0.002  -0.004   0.002  0.00  0.00    -0.003 C 
ENDBRANCH  20  22
ENDBRANCH  14  20
ENDBRANCH  11  17
ENDBRANCH  10  11
ENDBRANCH   1  10
BRANCH   4  23
ATOM     23  O   UNL     1       1.014 -12.198   3.681  0.00  0.00    -0.478 OA
BRANCH  23  24
ATOM     24  C   UNL     1       0.382 -12.850   2.577  0.00  0.00    +0.324 C 
BRANCH  24  25
ATOM     25  C   UNL     1       0.505 -14.343   2.739  0.00  0.00    +0.248 C 
ATOM     26  O   UNL     1       1.077 -14.804   3.704  0.00  0.00    -0.272 OA
ATOM     27  N   UNL     1      -0.021 -15.167   1.811  0.00  0.00    -0.327 N 
ATOM     28  H   UNL     1      -0.479 -14.799   1.040  0.00  0.00    +0.145 HD
ATOM     29  H   UNL     1       0.058 -16.128   1.915  0.00  0.00    +0.145 HD
ENDBRANCH  24  25
ENDBRANCH  23  24
ENDBRANCH   4  23
TORSDOF 9
