REMARK  Name = ZINC16038850
REMARK  10 active torsions:
REMARK  status: ('A' for Active; 'I' for Inactive)
REMARK    1  A    between atoms: C_1  and  C_2
REMARK    2  A    between atoms: C_2  and  C_3
REMARK    3  A    between atoms: C_3  and  C_4
REMARK    4  A    between atoms: C_7  and  C_10
REMARK    5  A    between atoms: C_10  and  C_12
REMARK    6  A    between atoms: C_14  and  C_36
REMARK    7  A    between atoms: C_36  and  C_38
REMARK    8  A    between atoms: C_38  and  C_39
REMARK    9  A    between atoms: C_38  and  C_40
REMARK   10  A    between atoms: C_38  and  C_41
REMARK                            x       y       z     vdW  Elec       q    Type
REMARK                         _______ _______ _______ _____ _____    ______ ____
ROOT
ATOM      1  C   UNL     1       1.808   5.468   0.819  0.00  0.00    +0.108 C 
ATOM      2  C   UNL     1       0.440   5.198   1.499  0.00  0.00    +0.136 C 
ATOM      3  C   UNL     1      -1.631   3.958   0.626  0.00  0.00    +0.054 C 
ATOM      4  C   UNL     1      -1.912   2.676   0.314  0.00  0.00    +0.022 C 
ATOM      5  C   UNL     1      -0.807   1.753  -0.017  0.00  0.00    -0.019 A 
ATOM      6  C   UNL     1      -1.010   0.372   0.023  0.00  0.00    +0.008 A 
ATOM      7  C   UNL     1       0.024  -0.482  -0.298  0.00  0.00    +0.001 A 
ATOM      8  C   UNL     1       1.261   0.022  -0.658  0.00  0.00    +0.000 A 
ATOM      9  C   UNL     1       1.472   1.391  -0.699  0.00  0.00    +0.006 A 
ATOM     10  C   UNL     1       0.450   2.253  -0.380  0.00  0.00    -0.020 A 
ATOM     11  C   UNL     1       0.649   3.745  -0.404  0.00  0.00    +0.107 C 
ATOM     12  C   UNL     1       2.047   4.148   0.055  0.00  0.00    +0.107 C 
ATOM     13  C   UNL     1       2.705   3.122   0.908  0.00  0.00    -0.008 A 
ATOM     14  C   UNL     1       2.330   2.525   2.093  0.00  0.00    +0.006 A 
ATOM     15  C   UNL     1       3.201   1.585   2.632  0.00  0.00    +0.000 A 
ATOM     16  C   UNL     1       4.390   1.266   2.009  0.00  0.00    +0.002 A 
ATOM     17  C   UNL     1       4.775   1.860   0.817  0.00  0.00    +0.023 A 
ATOM     18  C   UNL     1       3.909   2.804   0.264  0.00  0.00    +0.038 A 
ATOM     19  N   UNL     1       4.041   3.541  -0.901  0.00  0.00    -0.284 N 
ATOM     20  C   UNL     1       2.985   4.360  -1.104  0.00  0.00    +0.231 C 
ATOM     21  O   UNL     1       2.824   5.117  -2.038  0.00  0.00    -0.274 OA
ATOM     22  H   UNL     1       4.801   3.476  -1.501  0.00  0.00    +0.155 HD
ATOM     23  N   UNL     1      -0.269   4.572   0.342  0.00  0.00    -0.384 NA
ATOM     24  H   UNL     1      -0.480   5.355  -0.287  0.00  0.00    +0.127 HD
ENDROOT
BRANCH   1  25
ATOM     25  C   UNL     1       1.717   6.634  -0.132  0.00  0.00    +0.170 C 
ATOM     26  O   UNL     1       0.713   6.802  -0.790  0.00  0.00    -0.292 OA
BRANCH  25  30
ATOM     27  C   UNL     1       4.973   9.326  -0.505  0.00  0.00    -0.047 A 
ATOM     28  C   UNL     1       3.788   9.583  -1.172  0.00  0.00    +0.004 A 
ATOM     29  C   UNL     1       2.725   8.712  -1.056  0.00  0.00    +0.011 A 
ATOM     30  C   UNL     1       2.846   7.568  -0.262  0.00  0.00    +0.018 A 
ATOM     31  C   UNL     1       4.046   7.318   0.413  0.00  0.00    +0.011 A 
ATOM     32  C   UNL     1       5.102   8.195   0.283  0.00  0.00    +0.004 A 
BRANCH  27  33
ATOM     33  C   UNL     1       6.130  10.283  -0.637  0.00  0.00    +0.035 C 
BRANCH  33  35
ATOM     34  C   UNL     1       7.214  12.318   0.324  0.00  0.00    +0.004 C 
ATOM     35  C   UNL     1       6.040  11.347   0.459  0.00  0.00    +0.001 C 
ENDBRANCH  33  35
ENDBRANCH  27  33
ENDBRANCH  25  30
ENDBRANCH   1  25
BRANCH   2  36
ATOM     36  C   UNL     1      -0.313   6.490   1.684  0.00  0.00    +0.158 C 
ATOM     37  O   UNL     1      -1.111   6.850   0.852  0.00  0.00    -0.295 OA
BRANCH  36  38
ATOM     38  C   UNL     1      -0.070   7.335   2.909  0.00  0.00    +0.022 C 
ATOM     39  C   UNL     1      -0.848   8.646   2.787  0.00  0.00    +0.018 C 
ATOM     40  C   UNL     1      -0.539   6.577   4.152  0.00  0.00    +0.018 C 
ATOM     41  C   UNL     1       1.425   7.638   3.031  0.00  0.00    +0.018 C 
ENDBRANCH  36  38
ENDBRANCH   2  36
TORSDOF 6
