REMARK  Name = ZINC39853518
REMARK  11 active torsions:
REMARK  status: ('A' for Active; 'I' for Inactive)
REMARK    1  A    between atoms: C_1  and  C_2
REMARK    2  A    between atoms: N_4  and  C_5
REMARK    3  A    between atoms: C_6  and  C_14
REMARK    4  A    between atoms: C_14  and  C_16
REMARK    5  A    between atoms: C_14  and  N_26
REMARK    6  A    between atoms: C_19  and  O_24
REMARK    7  A    between atoms: C_20  and  O_22
REMARK    8  A    between atoms: O_22  and  C_23
REMARK    9  A    between atoms: O_24  and  C_25
REMARK   10  A    between atoms: C_29  and  C_32
REMARK   11  A    between atoms: C_32  and  C_33
REMARK                            x       y       z     vdW  Elec       q    Type
REMARK                         _______ _______ _______ _____ _____    ______ ____
ROOT
ATOM      1  C   UNL     1      -3.585  -2.446   0.226  0.00  0.00    -0.004 C 
ENDROOT
BRANCH   1   3
ATOM      2  C   UNL     1      -1.160  -2.954   0.050  0.00  0.00    +0.074 A 
ATOM      3  C   UNL     1      -2.418  -3.394   0.320  0.00  0.00    -0.025 A 
ATOM      4  C   UNL     1      -2.625  -4.724   0.684  0.00  0.00    -0.033 A 
ATOM      5  C   UNL     1      -1.522  -5.518   0.748  0.00  0.00    -0.005 A 
ATOM      6  S   UNL     1      -0.192  -4.435   0.298  0.00  0.00    -0.078 S 
ATOM      7  C   UNL     1      -1.462  -6.966   1.111  0.00  0.00    +0.043 C 
ATOM      8  C   UNL     1      -2.796  -7.357   1.764  0.00  0.00    +0.005 C 
ATOM      9  C   UNL     1      -3.941  -6.821   0.900  0.00  0.00    +0.005 C 
ATOM     10  C   UNL     1      -4.004  -5.296   1.002  0.00  0.00    +0.036 C 
BRANCH   2  14
ATOM     11  C   UNL     1       1.038  -0.036  -0.853  0.00  0.00    +0.109 C 
ATOM     12  C   UNL     1       0.581  -1.412  -0.445  0.00  0.00    +0.214 C 
ATOM     13  O   UNL     1       1.397  -2.281  -0.221  0.00  0.00    -0.276 OA
ATOM     14  N   UNL     1      -0.736  -1.678  -0.329  0.00  0.00    -0.280 N 
ATOM     15  H   UNL     1      -1.388  -0.983  -0.508  0.00  0.00    +0.155 HD
ENDBRANCH   2  14
ENDBRANCH   1   3
BRANCH   1  16
ATOM     16  N   UNL     1      -3.239  -1.175   0.878  0.00  0.00    +0.387 N 
ATOM     17  C   UNL     1      -4.412  -0.294   0.884  0.00  0.00    -0.077 C 
ATOM     18  C   UNL     1      -4.035   1.060   1.489  0.00  0.00    -0.015 C 
ATOM     19  C   UNL     1      -3.542   0.852   2.924  0.00  0.00    -0.010 C 
ATOM     20  C   UNL     1      -2.365  -0.127   2.913  0.00  0.00    -0.015 C 
ATOM     21  C   UNL     1      -2.804  -1.437   2.255  0.00  0.00    -0.077 C 
ATOM     22  H   UNL     1      -2.490  -0.731   0.368  0.00  0.00    -0.080 HD
BRANCH  19  23
ATOM     23  C   UNL     1      -3.088   2.192   3.508  0.00  0.00    +0.038 C 
BRANCH  23  24
ATOM     24  C   UNL     1      -2.719   2.009   4.958  0.00  0.00    -0.047 A 
ATOM     25  C   UNL     1      -3.680   2.163   5.940  0.00  0.00    +0.003 A 
ATOM     26  C   UNL     1      -3.342   1.995   7.270  0.00  0.00    +0.000 A 
ATOM     27  C   UNL     1      -2.043   1.673   7.617  0.00  0.00    +0.000 A 
ATOM     28  C   UNL     1      -1.083   1.517   6.635  0.00  0.00    +0.000 A 
ATOM     29  C   UNL     1      -1.422   1.681   5.305  0.00  0.00    +0.003 A 
ENDBRANCH  23  24
ENDBRANCH  19  23
ENDBRANCH   1  16
BRANCH   1  30
ATOM     30  C   UNL     1      -3.913  -2.194  -1.223  0.00  0.00    -0.053 A 
ATOM     31  C   UNL     1      -3.324  -1.135  -1.889  0.00  0.00    +0.006 A 
ATOM     32  C   UNL     1      -3.620  -0.900  -3.219  0.00  0.00    +0.049 A 
ATOM     33  C   UNL     1      -4.510  -1.726  -3.887  0.00  0.00    +0.161 A 
ATOM     34  C   UNL     1      -5.103  -2.791  -3.216  0.00  0.00    +0.162 A 
ATOM     35  C   UNL     1      -4.797  -3.025  -1.885  0.00  0.00    +0.051 A 
BRANCH  34  36
ATOM     36  O   UNL     1      -5.977  -3.605  -3.867  0.00  0.00    -0.491 OA
ATOM     37  C   UNL     1      -6.547  -4.679  -3.116  0.00  0.00    +0.277 C 
ENDBRANCH  34  36
BRANCH  33  38
ATOM     38  O   UNL     1      -4.804  -1.495  -5.194  0.00  0.00    -0.491 OA
ATOM     39  C   UNL     1      -4.158  -0.384  -5.818  0.00  0.00    +0.277 C 
ENDBRANCH  33  38
ENDBRANCH   1  30
TORSDOF 8
