REMARK  Name = ZINC10922650
REMARK  10 active torsions:
REMARK  status: ('A' for Active; 'I' for Inactive)
REMARK    1  A    between atoms: C_1  and  C_2
REMARK    2  A    between atoms: C_2  and  C_3
REMARK    3  A    between atoms: C_2  and  C_4
REMARK    4  A    between atoms: C_4  and  C_6
REMARK    5  A    between atoms: C_4  and  N_18
REMARK    6  A    between atoms: N_8  and  C_9
REMARK    7  A    between atoms: C_14  and  C_15
REMARK    8  A    between atoms: C_14  and  N_55
REMARK    9  A    between atoms: N_18  and  S_19
REMARK   10  A    between atoms: S_19  and  C_22
REMARK                            x       y       z     vdW  Elec       q    Type
REMARK                         _______ _______ _______ _____ _____    ______ ____
ROOT
ATOM      1  C   UNL     1       0.382   1.232   0.349  0.00  0.00    +0.232 C 
ATOM      2  O   UNL     1       0.422   0.020   0.344  0.00  0.00    -0.274 OA
ATOM      3  N   UNL     1      -0.806   1.867   0.384  0.00  0.00    -0.311 N 
ATOM      4  H   UNL     1      -0.838   2.837   0.388  0.00  0.00    +0.149 HD
ENDROOT
BRANCH   3   5
ATOM      5  C   UNL     1      -2.050   1.093   0.417  0.00  0.00    +0.069 C 
ATOM      6  C   UNL     1      -2.462   0.727  -1.012  0.00  0.00    +0.003 C 
ATOM      7  C   UNL     1      -3.793  -0.028  -0.975  0.00  0.00    -0.076 C 
ATOM      8  C   UNL     1      -4.468   1.141   1.037  0.00  0.00    -0.076 C 
ATOM      9  C   UNL     1      -3.158   1.932   1.061  0.00  0.00    +0.003 C 
ATOM     10  N   UNL     1      -4.822   0.842  -0.367  0.00  0.00    +0.385 N 
ATOM     11  H   UNL     1      -4.868   1.722  -0.893  0.00  0.00    -0.081 HD
BRANCH  10  12
ATOM     12  C   UNL     1      -6.141   0.179  -0.424  0.00  0.00    +0.018 C 
BRANCH  12  13
ATOM     13  C   UNL     1      -7.199   1.167  -0.007  0.00  0.00    +0.194 C 
ATOM     14  O   UNL     1      -6.898   2.321   0.213  0.00  0.00    -0.278 OA
ATOM     15  N   UNL     1      -8.480   0.769   0.122  0.00  0.00    -0.331 N 
ATOM     16  H   UNL     1      -8.721  -0.154  -0.054  0.00  0.00    +0.145 HD
ATOM     17  H   UNL     1      -9.162   1.405   0.390  0.00  0.00    +0.145 HD
ENDBRANCH  12  13
ENDBRANCH  10  12
ENDBRANCH   3   5
BRANCH   1  18
ATOM     18  C   UNL     1       1.661   2.028   0.309  0.00  0.00    +0.165 C 
BRANCH  18  20
ATOM     19  C   UNL     1       2.979   3.707  -0.990  0.00  0.00    +0.009 C 
ATOM     20  C   UNL     1       1.672   2.913  -0.939  0.00  0.00    +0.010 C 
ATOM     21  C   UNL     1       1.558   2.037  -2.187  0.00  0.00    +0.009 C 
ENDBRANCH  18  20
BRANCH  18  22
ATOM     22  N   UNL     1       2.804   1.113   0.269  0.00  0.00    -0.178 NA
ATOM     23  H   UNL     1       2.867   0.446  -0.432  0.00  0.00    +0.149 HD
BRANCH  22  24
ATOM     24  S   UNL     1       3.990   1.218   1.420  0.00  0.00    +0.059 S 
ATOM     25  O   UNL     1       4.929   0.192   1.131  0.00  0.00    -0.153 OA
ATOM     26  O   UNL     1       4.359   2.588   1.499  0.00  0.00    -0.153 OA
BRANCH  24  27
ATOM     27  C   UNL     1       3.253   0.805   2.966  0.00  0.00    +0.105 A 
ATOM     28  C   UNL     1       2.695   1.796   3.752  0.00  0.00    +0.030 A 
ATOM     29  C   UNL     1       2.111   1.472   4.962  0.00  0.00    +0.022 A 
ATOM     30  C   UNL     1       2.096   0.157   5.393  0.00  0.00    +0.041 A 
ATOM     31  C   UNL     1       2.660  -0.833   4.608  0.00  0.00    +0.022 A 
ATOM     32  C   UNL     1       3.238  -0.509   3.395  0.00  0.00    +0.030 A 
ATOM     33 CL   UNL     1       1.369  -0.250   6.916  0.00  0.00    -0.084 Cl
ENDBRANCH  24  27
ENDBRANCH  22  24
ENDBRANCH  18  22
ENDBRANCH   1  18
TORSDOF 8
