REMARK  Name = ZINC67332177
REMARK  10 active torsions:
REMARK  status: ('A' for Active; 'I' for Inactive)
REMARK    1  A    between atoms: C_1  and  C_2
REMARK    2  A    between atoms: C_2  and  C_3
REMARK    3  A    between atoms: C_3  and  C_4
REMARK    4  A    between atoms: C_4  and  C_5
REMARK    5  A    between atoms: C_5  and  C_7
REMARK    6  A    between atoms: C_5  and  N_24
REMARK    7  A    between atoms: N_9  and  C_10
REMARK    8  A    between atoms: C_10  and  C_11
REMARK    9  A    between atoms: N_16  and  C_17
REMARK   10  A    between atoms: C_17  and  C_18
REMARK                            x       y       z     vdW  Elec       q    Type
REMARK                         _______ _______ _______ _____ _____    ______ ____
ROOT
ATOM      1  C   UNL     1       1.222  -3.590  -2.485  0.00  0.00    +0.233 C 
ATOM      2  O   UNL     1       2.219  -4.174  -2.115  0.00  0.00    -0.274 OA
ATOM      3  N   UNL     1       0.172  -4.286  -2.963  0.00  0.00    -0.315 N 
ATOM      4  H   UNL     1      -0.625  -3.819  -3.258  0.00  0.00    +0.149 HD
ENDROOT
BRANCH   1   5
ATOM      5  C   UNL     1       1.159  -2.086  -2.410  0.00  0.00    +0.160 C 
BRANCH   5   6
ATOM      6  N   UNL     1       2.517  -1.543  -2.328  0.00  0.00    -0.288 N 
ATOM      7  C   UNL     1       3.319  -1.886  -1.300  0.00  0.00    +0.298 C 
ATOM      8  O   UNL     1       2.915  -2.647  -0.442  0.00  0.00    -0.253 OA
ATOM      9  N   UNL     1       4.568  -1.387  -1.225  0.00  0.00    -0.313 N 
ATOM     10  H   UNL     1       2.838  -0.936  -3.013  0.00  0.00    +0.151 HD
ATOM     11  H   UNL     1       4.890  -0.780  -1.910  0.00  0.00    +0.146 HD
ATOM     12  H   UNL     1       5.146  -1.634  -0.486  0.00  0.00    +0.146 HD
ENDBRANCH   5   6
BRANCH   5  13
ATOM     13  C   UNL     1       0.367  -1.671  -1.168  0.00  0.00    +0.032 C 
BRANCH  13  14
ATOM     14  C   UNL     1       0.195  -0.150  -1.158  0.00  0.00    +0.002 C 
BRANCH  14  16
ATOM     15  C   UNL     1      -0.768   1.785   0.094  0.00  0.00    +0.004 C 
ATOM     16  C   UNL     1      -0.596   0.265   0.084  0.00  0.00    -0.003 C 
ENDBRANCH  14  16
ENDBRANCH  13  14
ENDBRANCH   5  13
ENDBRANCH   1   5
BRANCH   3  17
ATOM     17  C   UNL     1       0.234  -5.748  -3.036  0.00  0.00    +0.089 C 
BRANCH  17  18
ATOM     18  C   UNL     1      -1.078  -6.286  -3.610  0.00  0.00    -0.051 C 
ATOM     19  C   UNL     1      -1.090  -7.827  -3.535  0.00  0.00    -0.016 C 
ATOM     20  C   UNL     1      -1.889  -8.107  -2.235  0.00  0.00    -0.020 C 
ATOM     21  C   UNL     1      -2.938  -6.968  -2.261  0.00  0.00    -0.078 C 
ATOM     22  N   UNL     1      -2.214  -5.797  -2.808  0.00  0.00    +0.383 N 
ATOM     23  H   UNL     1      -1.874  -5.223  -2.052  0.00  0.00    -0.081 HD
BRANCH  22  24
ATOM     24  C   UNL     1      -3.116  -5.008  -3.659  0.00  0.00    -0.075 C 
BRANCH  24  25
ATOM     25  C   UNL     1      -4.217  -4.388  -2.797  0.00  0.00    -0.028 C 
ATOM     26  C   UNL     1      -5.234  -3.683  -3.697  0.00  0.00    +0.002 C 
ATOM     27  C   UNL     1      -6.335  -3.063  -2.835  0.00  0.00    +0.000 C 
ATOM     28  C   UNL     1      -5.717  -2.047  -1.872  0.00  0.00    +0.000 C 
ATOM     29  C   UNL     1      -4.701  -2.752  -0.971  0.00  0.00    +0.000 C 
ATOM     30  C   UNL     1      -3.599  -3.372  -1.833  0.00  0.00    +0.002 C 
ENDBRANCH  24  25
ENDBRANCH  22  24
ENDBRANCH  17  18
ENDBRANCH   3  17
TORSDOF 9
