REMARK  Name = ZINC02203124
REMARK  5 active torsions:
REMARK  status: ('A' for Active; 'I' for Inactive)
REMARK    1  A    between atoms: C_1  and  C_2
REMARK    2  A    between atoms: C_5  and  N_8
REMARK    3  A    between atoms: C_11  and  C_16
REMARK    4  A    between atoms: C_16  and  S_17
REMARK    5  A    between atoms: S_17  and  C_18
REMARK                            x       y       z     vdW  Elec       q    Type
REMARK                         _______ _______ _______ _____ _____    ______ ____
ROOT
ATOM      1  N   UNL     1       1.162   3.484   0.009  0.00  0.00    -0.284 N 
ATOM      2  C   UNL     1       2.347   4.188   0.106  0.00  0.00    +0.224 A 
ATOM      3  N   UNL     1       2.328   5.515   0.208  0.00  0.00    -0.198 NA
ATOM      4  C   UNL     1       3.461   6.188   0.306  0.00  0.00    +0.146 A 
ATOM      5  N   UNL     1       4.617   5.548   0.292  0.00  0.00    -0.199 NA
ATOM      6  C   UNL     1       4.644   4.222   0.185  0.00  0.00    +0.217 A 
ATOM      7  N   UNL     1       3.507   3.541   0.092  0.00  0.00    -0.181 NA
ATOM      8  N   UNL     1       5.852   3.554   0.172  0.00  0.00    -0.327 N 
ATOM      9  H   UNL     1       0.320   3.960  -0.061  0.00  0.00    +0.155 HD
ATOM     10  H   UNL     1       5.872   2.588   0.094  0.00  0.00    +0.145 HD
ATOM     11  H   UNL     1       6.682   4.052   0.240  0.00  0.00    +0.145 HD
ENDROOT
BRANCH   1  16
ATOM     12  C   UNL     1       1.221  -2.188   0.024  0.00  0.00    +0.044 C 
ATOM     13  C   UNL     1       1.205  -0.681   0.021  0.00  0.00    -0.050 A 
ATOM     14  C   UNL     1       2.143   0.021   0.755  0.00  0.00    +0.005 A 
ATOM     15  C   UNL     1       2.132   1.402   0.754  0.00  0.00    +0.023 A 
ATOM     16  C   UNL     1       1.177   2.086   0.013  0.00  0.00    +0.034 A 
ATOM     17  C   UNL     1       0.236   1.378  -0.725  0.00  0.00    +0.023 A 
ATOM     18  C   UNL     1       0.253  -0.003  -0.718  0.00  0.00    +0.005 A 
ENDBRANCH   1  16
BRANCH   4  19
ATOM     19  C   UNL     1       3.434   7.690   0.428  0.00  0.00    +0.153 C 
BRANCH  19  20
ATOM     20  S   UNL     1       3.481   8.430  -1.224  0.00  0.00    -0.080 S 
BRANCH  20  21
ATOM     21  C   UNL     1       3.441  10.138  -0.794  0.00  0.00    +0.168 A 
ATOM     22  N   UNL     1       3.457  11.173  -1.687  0.00  0.00    -0.333 N 
ATOM     23  H   UNL     1       3.492  11.096  -2.683  0.00  0.00    +0.168 HD
ATOM     24  C   UNL     1       3.414  12.348  -0.954  0.00  0.00    +0.067 A 
ATOM     25  C   UNL     1       3.405  13.692  -1.293  0.00  0.00    +0.028 A 
ATOM     26  C   UNL     1       3.356  14.650  -0.301  0.00  0.00    +0.002 A 
ATOM     27  C   UNL     1       3.315  14.278   1.034  0.00  0.00    +0.002 A 
ATOM     28  C   UNL     1       3.322  12.948   1.389  0.00  0.00    +0.030 A 
ATOM     29  C   UNL     1       3.372  11.965   0.397  0.00  0.00    +0.090 A 
ATOM     30  N   UNL     1       3.385  10.607   0.428  0.00  0.00    -0.222 NA
ENDBRANCH  20  21
ENDBRANCH  19  20
ENDBRANCH   4  19
TORSDOF 4
