REMARK  Name = ZINC49529675
REMARK  7 active torsions:
REMARK  status: ('A' for Active; 'I' for Inactive)
REMARK    1  A    between atoms: C_1  and  C_2
REMARK    2  A    between atoms: C_2  and  C_3
REMARK    3  A    between atoms: C_3  and  C_5
REMARK    4  A    between atoms: C_3  and  N_10
REMARK    5  A    between atoms: N_10  and  C_11
REMARK    6  A    between atoms: C_14  and  C_23
REMARK    7  A    between atoms: C_17  and  C_22
REMARK                            x       y       z     vdW  Elec       q    Type
REMARK                         _______ _______ _______ _____ _____    ______ ____
ROOT
ATOM      1  C   UNL     1      -2.147   1.093  -1.506  0.00  0.00    +0.050 C 
ATOM      2  C   UNL     1      -2.614   1.416  -2.906  0.00  0.00    -0.028 A 
ATOM      3  C   UNL     1      -2.074   1.182  -4.151  0.00  0.00    -0.047 A 
ATOM      4  C   UNL     1      -2.745   1.604  -5.285  0.00  0.00    +0.004 A 
ATOM      5  C   UNL     1      -3.957   2.260  -5.163  0.00  0.00    +0.005 A 
ATOM      6  C   UNL     1      -4.500   2.495  -3.918  0.00  0.00    -0.029 A 
ATOM      7  C   UNL     1      -3.830   2.074  -2.771  0.00  0.00    +0.039 A 
ATOM      8  N   UNL     1      -4.167   2.191  -1.422  0.00  0.00    -0.286 N 
ATOM      9  C   UNL     1      -3.238   1.647  -0.614  0.00  0.00    +0.208 C 
ATOM     10  O   UNL     1      -3.268   1.605   0.598  0.00  0.00    -0.277 OA
ATOM     11  C   UNL     1      -5.821   3.211  -3.797  0.00  0.00    +0.045 C 
ATOM     12  C   UNL     1      -0.753   0.468  -4.278  0.00  0.00    +0.044 C 
ATOM     13  H   UNL     1      -4.978   2.618  -1.103  0.00  0.00    +0.155 HD
ENDROOT
BRANCH   1  14
ATOM     14  N   UNL     1      -2.024  -0.360  -1.327  0.00  0.00    +0.394 N 
ATOM     15  H   UNL     1      -1.372  -0.728  -2.004  0.00  0.00    -0.083 HD
ATOM     16  H   UNL     1      -2.926  -0.793  -1.458  0.00  0.00    -0.083 HD
BRANCH  14  17
ATOM     17  C   UNL     1      -1.536  -0.647   0.029  0.00  0.00    -0.033 C 
BRANCH  17  18
ATOM     18  C   UNL     1      -1.551  -2.135   0.264  0.00  0.00    -0.024 A 
ATOM     19  C   UNL     1      -1.910  -2.820   1.377  0.00  0.00    +0.009 A 
ATOM     20  C   UNL     1      -1.845  -4.201   1.365  0.00  0.00    +0.008 A 
ATOM     21  C   UNL     1      -1.422  -4.829   0.240  0.00  0.00    +0.045 A 
ATOM     22  S   UNL     1      -1.108  -3.454  -0.855  0.00  0.00    -0.103 S 
ENDBRANCH  17  18
BRANCH  17  24
ATOM     23  C   UNL     1       0.372  -0.349   1.613  0.00  0.00    +0.002 C 
ATOM     24  C   UNL     1      -0.107  -0.121   0.178  0.00  0.00    -0.014 C 
ENDBRANCH  17  24
ENDBRANCH  14  17
ENDBRANCH   1  14
TORSDOF 4
