REMARK  Name = ZINC24228525
REMARK  13 active torsions:
REMARK  status: ('A' for Active; 'I' for Inactive)
REMARK    1  A    between atoms: C_1  and  C_2
REMARK    2  A    between atoms: C_2  and  C_4
REMARK    3  A    between atoms: C_2  and  N_32
REMARK    4  A    between atoms: C_7  and  S_16
REMARK    5  A    between atoms: N_8  and  C_9
REMARK    6  A    between atoms: S_16  and  C_17
REMARK    7  A    between atoms: C_17  and  C_19
REMARK    8  A    between atoms: C_17  and  C_20
REMARK    9  A    between atoms: N_22  and  C_23
REMARK   10  A    between atoms: C_26  and  O_30
REMARK   11  A    between atoms: O_30  and  C_31
REMARK   12  A    between atoms: N_32  and  C_33
REMARK   13  A    between atoms: N_32  and  C_34
REMARK                            x       y       z     vdW  Elec       q    Type
REMARK                         _______ _______ _______ _____ _____    ______ ____
ROOT
ATOM      1  C   UNL     1       0.037   1.552  -0.389  0.00  0.00    +0.125 A 
ATOM      2  N   UNL     1      -1.028   2.279  -0.199  0.00  0.00    -0.135 NA
ATOM      3  N   UNL     1      -0.713   3.524  -0.164  0.00  0.00    -0.122 NA
ATOM      4  C   UNL     1       0.581   3.664  -0.342  0.00  0.00    +0.197 A 
ATOM      5  N   UNL     1       1.101   2.408  -0.492  0.00  0.00    -0.275 N 
ENDROOT
BRANCH   5   6
ATOM      6  C   UNL     1       2.445   2.067  -0.706  0.00  0.00    +0.050 A 
ATOM      7  C   UNL     1       3.142   1.347   0.255  0.00  0.00    +0.028 A 
ATOM      8  C   UNL     1       4.463   1.008   0.040  0.00  0.00    +0.022 A 
ATOM      9  C   UNL     1       5.096   1.396  -1.128  0.00  0.00    +0.041 A 
ATOM     10  C   UNL     1       4.406   2.118  -2.085  0.00  0.00    +0.022 A 
ATOM     11  C   UNL     1       3.083   2.454  -1.877  0.00  0.00    +0.028 A 
ATOM     12 CL   UNL     1       6.760   0.974  -1.393  0.00  0.00    -0.084 Cl
ENDBRANCH   5   6
BRANCH   1  14
ATOM     13  C   UNL     1      -0.464  -0.394  -1.843  0.00  0.00    -0.005 C 
ATOM     14  C   UNL     1       0.086   0.049  -0.486  0.00  0.00    -0.003 C 
BRANCH  14  15
ATOM     15  N   UNL     1      -0.727  -0.538   0.587  0.00  0.00    +0.382 N 
ATOM     16  C   UNL     1      -0.703  -2.005   0.524  0.00  0.00    -0.096 C 
ATOM     17  C   UNL     1      -0.285  -0.060   1.904  0.00  0.00    -0.096 C 
ATOM     18  H   UNL     1      -1.767  -0.211   0.440  0.00  0.00    -0.082 HD
ENDBRANCH  14  15
ENDBRANCH   1  14
BRANCH   4  19
ATOM     19  S   UNL     1       1.476   5.181  -0.381  0.00  0.00    -0.073 S 
BRANCH  19  20
ATOM     20  C   UNL     1       0.122   6.352  -0.116  0.00  0.00    +0.137 C 
ATOM     21  C   UNL     1      -0.841   6.295  -1.304  0.00  0.00    +0.029 C 
BRANCH  20  22
ATOM     22  C   UNL     1       0.680   7.746   0.011  0.00  0.00    +0.230 C 
ATOM     23  O   UNL     1       1.748   8.020  -0.495  0.00  0.00    -0.274 OA
ATOM     24  N   UNL     1      -0.006   8.688   0.688  0.00  0.00    -0.285 N 
ATOM     25  H   UNL     1      -1.012   8.465   1.073  0.00  0.00    +0.155 HD
BRANCH  24  26
ATOM     26  C   UNL     1       0.562   9.950   0.902  0.00  0.00    +0.035 A 
ATOM     27  C   UNL     1       1.933  10.073   1.082  0.00  0.00    +0.027 A 
ATOM     28  C   UNL     1       2.494  11.319   1.288  0.00  0.00    +0.049 A 
ATOM     29  C   UNL     1       1.686  12.446   1.325  0.00  0.00    +0.138 A 
ATOM     30  C   UNL     1       0.315  12.323   1.150  0.00  0.00    +0.084 A 
ATOM     31  C   UNL     1      -0.246  11.078   0.939  0.00  0.00    +0.047 A 
ATOM     32 CL   UNL     1      -0.696  13.734   1.195  0.00  0.00    -0.080 Cl
BRANCH  29  33
ATOM     33  O   UNL     1       2.238  13.671   1.533  0.00  0.00    -0.494 OA
ATOM     34  C   UNL     1       3.656  13.723   1.705  0.00  0.00    +0.277 C 
ENDBRANCH  29  33
ENDBRANCH  24  26
ENDBRANCH  20  22
ENDBRANCH  19  20
ENDBRANCH   4  19
TORSDOF 8
