REMARK  Name = ZINC39306827
REMARK  6 active torsions:
REMARK  status: ('A' for Active; 'I' for Inactive)
REMARK    1  A    between atoms: C_1  and  C_2
REMARK    2  A    between atoms: C_6  and  O_26
REMARK    3  A    between atoms: C_7  and  O_25
REMARK    4  A    between atoms: N_12  and  C_13
REMARK    5  A    between atoms: C_13  and  C_14
REMARK    6  A    between atoms: N_16  and  C_17
REMARK                            x       y       z     vdW  Elec       q    Type
REMARK                         _______ _______ _______ _____ _____    ______ ____
ROOT
ATOM      1  C   UNL     1       0.005   1.559   0.022  0.00  0.00    -0.008 C 
ATOM      2  C   UNL     1       0.021   0.029   0.003  0.00  0.00    -0.040 C 
ATOM      3  C   UNL     1       0.718  -0.445  -1.245  0.00  0.00    -0.054 A 
ATOM      4  C   UNL     1       0.464   0.218  -2.437  0.00  0.00    +0.051 A 
ATOM      5  C   UNL     1       1.081  -0.185  -3.607  0.00  0.00    +0.158 A 
ATOM      6  C   UNL     1       1.960  -1.264  -3.588  0.00  0.00    +0.158 A 
ATOM      7  C   UNL     1       2.211  -1.922  -2.397  0.00  0.00    +0.053 A 
ATOM      8  C   UNL     1       1.591  -1.512  -1.226  0.00  0.00    -0.044 A 
ATOM      9  C   UNL     1       1.900  -2.253   0.050  0.00  0.00    +0.017 C 
ATOM     10  C   UNL     1       0.846  -1.923   1.108  0.00  0.00    -0.073 C 
ATOM     11  N   UNL     1       0.713  -0.462   1.198  0.00  0.00    +0.390 N 
ATOM     12  H   UNL     1       1.629  -0.042   1.254  0.00  0.00    -0.080 HD
ENDROOT
BRANCH   6  13
ATOM     13  O   UNL     1       2.570  -1.669  -4.734  0.00  0.00    -0.503 OA
ATOM     14  H   UNL     1       3.418  -1.236  -4.903  0.00  0.00    +0.292 HD
ENDBRANCH   6  13
BRANCH   5  15
ATOM     15  O   UNL     1       0.828   0.469  -4.772  0.00  0.00    -0.503 OA
ATOM     16  H   UNL     1       1.426   1.209  -4.946  0.00  0.00    +0.292 HD
ENDBRANCH   5  15
BRANCH  11  17
ATOM     17  C   UNL     1      -0.064  -0.112   2.395  0.00  0.00    +0.020 C 
BRANCH  17  18
ATOM     18  C   UNL     1       0.707  -0.508   3.628  0.00  0.00    +0.201 C 
ATOM     19  O   UNL     1       1.797  -1.030   3.520  0.00  0.00    -0.278 OA
ATOM     20  N   UNL     1       0.186  -0.282   4.850  0.00  0.00    -0.285 N 
ATOM     21  H   UNL     1      -0.655   0.193   4.939  0.00  0.00    +0.155 HD
BRANCH  20  22
ATOM     22  C   UNL     1       0.860  -0.734   5.993  0.00  0.00    +0.069 A 
ATOM     23  C   UNL     1       2.247  -0.741   6.025  0.00  0.00    +0.029 A 
ATOM     24  C   UNL     1       2.909  -1.186   7.153  0.00  0.00    +0.040 A 
ATOM     25  C   UNL     1       2.190  -1.626   8.252  0.00  0.00    +0.126 A 
ATOM     26  C   UNL     1       0.806  -1.621   8.223  0.00  0.00    +0.078 A 
ATOM     27  C   UNL     1       0.139  -1.170   7.099  0.00  0.00    +0.147 A 
ATOM     28  F   UNL     1      -1.212  -1.160   7.073  0.00  0.00    -0.203 F 
ATOM     29  F   UNL     1       2.841  -2.061   9.353  0.00  0.00    -0.205 F 
ENDBRANCH  20  22
ENDBRANCH  17  18
ENDBRANCH  11  17
TORSDOF 5
