REMARK  Name = ZINC09507030
REMARK  8 active torsions:
REMARK  status: ('A' for Active; 'I' for Inactive)
REMARK    1  A    between atoms: C_3  and  C_19
REMARK    2  A    between atoms: C_5  and  N_7
REMARK    3  A    between atoms: N_7  and  S_8
REMARK    4  A    between atoms: S_8  and  C_11
REMARK    5  A    between atoms: N_21  and  N_22
REMARK    6  A    between atoms: N_22  and  C_23
REMARK    7  A    between atoms: C_23  and  N_25
REMARK    8  A    between atoms: N_25  and  C_26
REMARK                            x       y       z     vdW  Elec       q    Type
REMARK                         _______ _______ _______ _____ _____    ______ ____
ROOT
ATOM      1  C   UNL     1      -0.128  -2.001   1.440  0.00  0.00    +0.003 A 
ATOM      2  C   UNL     1      -0.646  -2.731   0.389  0.00  0.00    +0.013 A 
ATOM      3  C   UNL     1      -1.204  -2.074  -0.709  0.00  0.00    +0.040 A 
ATOM      4  C   UNL     1      -1.240  -0.680  -0.738  0.00  0.00    +0.037 A 
ATOM      5  C   UNL     1      -0.712   0.044   0.320  0.00  0.00    +0.049 A 
ATOM      6  C   UNL     1      -0.159  -0.620   1.409  0.00  0.00    +0.024 A 
ENDROOT
BRANCH   3   7
ATOM      7  C   UNL     1      -1.760  -2.854  -1.836  0.00  0.00    +0.260 C 
ATOM      8  O   UNL     1      -2.245  -2.280  -2.791  0.00  0.00    -0.269 OA
ATOM      9  N   UNL     1      -1.729  -4.201  -1.803  0.00  0.00    -0.231 N 
ATOM     10  H   UNL     1      -1.342  -4.659  -1.041  0.00  0.00    +0.173 HD
BRANCH   9  11
ATOM     11  N   UNL     1      -2.256  -4.940  -2.871  0.00  0.00    -0.245 N 
ATOM     12  H   UNL     1      -2.643  -4.482  -3.633  0.00  0.00    +0.172 HD
BRANCH  11  13
ATOM     13  C   UNL     1      -2.225  -6.287  -2.838  0.00  0.00    +0.151 C 
ATOM     14  S   UNL     1      -2.869  -7.190  -4.143  0.00  0.00    -0.017 S 
BRANCH  13  15
ATOM     15  N   UNL     1      -1.687  -6.923  -1.779  0.00  0.00    -0.296 N 
ATOM     16  H   UNL     1      -1.267  -6.413  -1.069  0.00  0.00    +0.154 HD
BRANCH  15  17
ATOM     17  C   UNL     1      -1.735  -8.319  -1.703  0.00  0.00    +0.034 A 
ATOM     18  C   UNL     1      -2.103  -8.939  -0.516  0.00  0.00    +0.023 A 
ATOM     19  C   UNL     1      -2.154 -10.318  -0.445  0.00  0.00    +0.003 A 
ATOM     20  C   UNL     1      -1.829 -11.081  -1.551  0.00  0.00    +0.020 A 
ATOM     21  C   UNL     1      -1.458 -10.467  -2.734  0.00  0.00    +0.043 A 
ATOM     22  C   UNL     1      -1.410  -9.088  -2.813  0.00  0.00    +0.043 A 
ATOM     23 CL   UNL     1      -1.052 -11.429  -4.121  0.00  0.00    -0.083 Cl
ENDBRANCH  15  17
ENDBRANCH  13  15
ENDBRANCH  11  13
ENDBRANCH   9  11
ENDBRANCH   3   7
BRANCH   5  24
ATOM     24  N   UNL     1      -0.742   1.441   0.294  0.00  0.00    -0.216 N 
ATOM     25  H   UNL     1      -1.547   1.904   0.016  0.00  0.00    +0.174 HD
BRANCH  24  26
ATOM     26  S   UNL     1       0.602   2.305   0.731  0.00  0.00    +0.072 S 
ATOM     27  O   UNL     1       0.269   3.678   0.576  0.00  0.00    -0.150 OA
ATOM     28  O   UNL     1       1.048   1.765   1.967  0.00  0.00    -0.150 OA
BRANCH  26  29
ATOM     29  C   UNL     1       1.856   1.954  -0.455  0.00  0.00    +0.111 A 
ATOM     30  C   UNL     1       2.726   0.899  -0.248  0.00  0.00    +0.032 A 
ATOM     31  C   UNL     1       3.708   0.618  -1.179  0.00  0.00    +0.043 A 
ATOM     32  C   UNL     1       3.828   1.400  -2.315  0.00  0.00    +0.159 A 
ATOM     33  C   UNL     1       2.959   2.461  -2.520  0.00  0.00    +0.160 A 
ATOM     34  C   UNL     1       1.974   2.736  -1.588  0.00  0.00    +0.070 A 
ATOM     35  F   UNL     1       3.074   3.224  -3.629  0.00  0.00    -0.202 F 
ATOM     36  F   UNL     1       4.790   1.129  -3.224  0.00  0.00    -0.202 F 
ENDBRANCH  26  29
ENDBRANCH  24  26
ENDBRANCH   5  24
TORSDOF 8
