REMARK  Name = ZINC13057141
REMARK  14 active torsions:
REMARK  status: ('A' for Active; 'I' for Inactive)
REMARK    1  A    between atoms: C_1  and  C_2
REMARK    2  A    between atoms: C_2  and  O_3
REMARK    3  A    between atoms: O_3  and  C_4
REMARK    4  A    between atoms: C_4  and  C_6
REMARK    5  A    between atoms: C_7  and  C_35
REMARK    6  A    between atoms: C_8  and  C_24
REMARK    7  A    between atoms: C_10  and  N_11
REMARK    8  A    between atoms: C_12  and  C_14
REMARK    9  A    between atoms: C_14  and  N_69
REMARK   10  A    between atoms: C_16  and  C_23
REMARK   11  A    between atoms: C_19  and  C_22
REMARK   12  A    between atoms: N_26  and  C_27
REMARK   13  A    between atoms: C_30  and  C_34
REMARK   14  A    between atoms: C_32  and  C_33
REMARK                            x       y       z     vdW  Elec       q    Type
REMARK                         _______ _______ _______ _____ _____    ______ ____
ROOT
ATOM      1  C   UNL     1       1.623  -0.404  -7.384  0.00  0.00    +0.091 A 
ATOM      2  C   UNL     1       0.594  -0.087  -8.258  0.00  0.00    -0.015 A 
ATOM      3  C   UNL     1      -0.587   0.348  -7.721  0.00  0.00    +0.080 A 
ATOM      4  S   UNL     1      -0.259   0.306  -5.969  0.00  0.00    -0.068 S 
ATOM      5  C   UNL     1       1.377  -0.267  -6.013  0.00  0.00    +0.087 A 
ATOM      6  C   UNL     1       0.773  -0.212  -9.750  0.00  0.00    +0.046 C 
ENDROOT
BRANCH   5   7
ATOM      7  N   UNL     1       2.229  -0.521  -4.956  0.00  0.00    -0.281 N 
ATOM      8  C   UNL     1       1.810  -0.322  -3.691  0.00  0.00    +0.201 C 
ATOM      9  O   UNL     1       0.685   0.079  -3.480  0.00  0.00    -0.278 OA
ATOM     10  H   UNL     1       3.128  -0.842  -5.125  0.00  0.00    +0.155 HD
BRANCH   8  11
ATOM     11  C   UNL     1       2.740  -0.599  -2.537  0.00  0.00    +0.019 C 
BRANCH  11  19
ATOM     12  C   UNL     1       1.938   1.284  -1.244  0.00  0.00    -0.075 C 
ATOM     13  C   UNL     1       1.145   1.676   0.005  0.00  0.00    -0.031 C 
ATOM     14  C   UNL     1       1.895   1.195   1.251  0.00  0.00    +0.003 C 
ATOM     15  C   UNL     1       2.097  -0.320   1.162  0.00  0.00    -0.031 C 
ATOM     16  C   UNL     1       2.862  -0.654  -0.120  0.00  0.00    -0.075 C 
ATOM     17  C   UNL     1       0.734  -1.016   1.140  0.00  0.00    +0.005 C 
ATOM     18  C   UNL     1       0.992   3.197   0.056  0.00  0.00    +0.005 C 
ATOM     19  N   UNL     1       2.077  -0.187  -1.283  0.00  0.00    +0.386 N 
ATOM     20  H   UNL     1       1.142  -0.611  -1.245  0.00  0.00    -0.081 HD
ENDBRANCH  11  19
ENDBRANCH   8  11
ENDBRANCH   5   7
BRANCH   3  21
ATOM     21  C   UNL     1      -1.814   0.748  -8.412  0.00  0.00    +0.255 C 
ATOM     22  O   UNL     1      -1.866   0.715  -9.627  0.00  0.00    -0.269 OA
ATOM     23  N   UNL     1      -2.886   1.152  -7.702  0.00  0.00    -0.281 N 
ATOM     24  H   UNL     1      -2.820   1.253  -6.739  0.00  0.00    +0.155 HD
BRANCH  23  25
ATOM     25  C   UNL     1      -4.093   1.425  -8.353  0.00  0.00    +0.037 A 
ATOM     26  C   UNL     1      -4.089   1.864  -9.671  0.00  0.00    +0.024 A 
ATOM     27  C   UNL     1      -5.283   2.133 -10.311  0.00  0.00    +0.005 A 
ATOM     28  C   UNL     1      -6.481   1.966  -9.641  0.00  0.00    -0.050 A 
ATOM     29  C   UNL     1      -6.488   1.530  -8.329  0.00  0.00    +0.008 A 
ATOM     30  C   UNL     1      -5.298   1.253  -7.685  0.00  0.00    -0.029 A 
ATOM     31  C   UNL     1      -5.307   0.771  -6.257  0.00  0.00    +0.045 C 
ATOM     32  C   UNL     1      -7.782   2.260 -10.343  0.00  0.00    +0.044 C 
ENDBRANCH  23  25
ENDBRANCH   3  21
BRANCH   1  33
ATOM     33  C   UNL     1       2.923  -0.870  -7.878  0.00  0.00    +0.342 C 
ATOM     34  O   UNL     1       3.119  -2.058  -8.046  0.00  0.00    -0.245 OA
BRANCH  33  35
ATOM     35  O   UNL     1       3.901   0.019  -8.147  0.00  0.00    -0.461 OA
BRANCH  35  37
ATOM     36  C   UNL     1       6.139   0.637  -8.880  0.00  0.00    +0.048 C 
ATOM     37  C   UNL     1       5.161  -0.513  -8.633  0.00  0.00    +0.229 C 
ENDBRANCH  35  37
ENDBRANCH  33  35
ENDBRANCH   1  33
TORSDOF 8
