REMARK  Name = ZINC08952763
REMARK  14 active torsions:
REMARK  status: ('A' for Active; 'I' for Inactive)
REMARK    1  A    between atoms: C_1  and  C_2
REMARK    2  A    between atoms: C_2  and  C_3
REMARK    3  A    between atoms: C_2  and  C_4
REMARK    4  A    between atoms: C_7  and  N_10
REMARK    5  A    between atoms: C_11  and  C_13
REMARK    6  A    between atoms: C_13  and  C_15
REMARK    7  A    between atoms: C_13  and  N_16
REMARK    8  A    between atoms: C_17  and  C_19
REMARK    9  A    between atoms: C_25  and  C_27
REMARK   10  A    between atoms: C_27  and  C_29
REMARK   11  A    between atoms: C_27  and  N_33
REMARK   12  A    between atoms: C_29  and  C_30
REMARK   13  A    between atoms: C_30  and  S_31
REMARK   14  A    between atoms: S_31  and  C_32
REMARK                            x       y       z     vdW  Elec       q    Type
REMARK                         _______ _______ _______ _____ _____    ______ ____
ROOT
ATOM      1  N   UNL     1      -7.495  -3.822  -2.292  0.00  0.00    -0.304 N 
ATOM      2  C   UNL     1      -8.507  -4.711  -2.349  0.00  0.00    +0.217 C 
ATOM      3  O   UNL     1      -9.201  -4.903  -1.374  0.00  0.00    -0.275 OA
ATOM      4  H   UNL     1      -6.939  -3.669  -3.072  0.00  0.00    +0.149 HD
ENDROOT
BRANCH   2   5
ATOM      5  C   UNL     1      -8.774  -5.468  -3.625  0.00  0.00    +0.078 C 
ATOM      6  C   UNL     1      -9.086  -4.477  -4.749  0.00  0.00    +0.032 C 
ATOM      7  C   UNL     1      -9.323  -5.247  -6.052  0.00  0.00    +0.108 C 
ATOM      8  N   UNL     1     -10.371  -6.251  -5.824  0.00  0.00    -0.303 N 
ATOM      9  C   UNL     1     -10.213  -7.197  -4.710  0.00  0.00    +0.108 C 
ATOM     10  C   UNL     1      -9.966  -6.405  -3.422  0.00  0.00    +0.032 C 
ATOM     11  C   UNL     1     -11.457  -6.304  -6.621  0.00  0.00    +0.201 C 
ATOM     12  O   UNL     1     -11.576  -5.518  -7.536  0.00  0.00    -0.277 OA
BRANCH  11  13
ATOM     13  C   UNL     1     -12.523  -7.340  -6.374  0.00  0.00    +0.014 C 
BRANCH  13  14
ATOM     14  N   UNL     1     -13.774  -6.918  -7.017  0.00  0.00    +0.386 N 
ATOM     15  H   UNL     1     -13.625  -6.819  -8.010  0.00  0.00    -0.089 HD
ATOM     16  H   UNL     1     -14.488  -7.611  -6.852  0.00  0.00    -0.089 HD
ATOM     17  H   UNL     1     -14.069  -6.033  -6.632  0.00  0.00    -0.089 HD
ENDBRANCH  13  14
BRANCH  13  18
ATOM     18  C   UNL     1     -12.076  -8.681  -6.958  0.00  0.00    +0.003 C 
BRANCH  18  19
ATOM     19  C   UNL     1     -13.100  -9.760  -6.600  0.00  0.00    +0.068 C 
BRANCH  19  20
ATOM     20  S   UNL     1     -12.570 -11.351  -7.293  0.00  0.00    -0.164 S 
ATOM     21  C   UNL     1     -13.873 -12.506  -6.786  0.00  0.00    +0.084 C 
ENDBRANCH  19  20
ENDBRANCH  18  19
ENDBRANCH  13  18
ENDBRANCH  11  13
ENDBRANCH   2   5
BRANCH   1  22
ATOM     22  C   UNL     1      -7.236  -3.087  -1.052  0.00  0.00    +0.156 C 
ATOM     23  C   UNL     1      -8.133  -1.849  -0.995  0.00  0.00    +0.038 C 
BRANCH  22  25
ATOM     24  N   UNL     1      -5.320  -1.968   0.042  0.00  0.00    -0.284 N 
ATOM     25  C   UNL     1      -5.790  -2.663  -1.013  0.00  0.00    +0.237 C 
ATOM     26  O   UNL     1      -5.050  -2.946  -1.931  0.00  0.00    -0.273 OA
ATOM     27  H   UNL     1      -5.894  -1.799   0.806  0.00  0.00    +0.155 HD
BRANCH  24  31
ATOM     28  C   UNL     1      -1.405  -0.544   0.021  0.00  0.00    -0.045 A 
ATOM     29  C   UNL     1      -1.701  -1.756  -0.574  0.00  0.00    +0.006 A 
ATOM     30  C   UNL     1      -2.998  -2.231  -0.568  0.00  0.00    +0.023 A 
ATOM     31  C   UNL     1      -4.005  -1.490   0.035  0.00  0.00    +0.033 A 
ATOM     32  C   UNL     1      -3.704  -0.272   0.632  0.00  0.00    +0.023 A 
ATOM     33  C   UNL     1      -2.405   0.195   0.627  0.00  0.00    +0.006 A 
BRANCH  28  35
ATOM     34  C   UNL     1       0.922  -1.029   0.727  0.00  0.00    +0.012 C 
ATOM     35  C   UNL     1       0.011  -0.029   0.013  0.00  0.00    +0.013 C 
ATOM     36  C   UNL     1       0.481   0.148  -1.433  0.00  0.00    +0.012 C 
ENDBRANCH  28  35
ENDBRANCH  24  31
ENDBRANCH  22  25
ENDBRANCH   1  22
TORSDOF 10
