REMARK  Name = ZINC66244032
REMARK  7 active torsions:
REMARK  status: ('A' for Active; 'I' for Inactive)
REMARK    1  A    between atoms: C_1  and  C_2
REMARK    2  A    between atoms: N_5  and  C_11
REMARK    3  A    between atoms: C_7  and  C_10
REMARK    4  A    between atoms: C_11  and  C_12
REMARK    5  A    between atoms: C_17  and  C_18
REMARK    6  A    between atoms: C_18  and  N_19
REMARK    7  A    between atoms: N_22  and  C_23
REMARK                            x       y       z     vdW  Elec       q    Type
REMARK                         _______ _______ _______ _____ _____    ______ ____
ROOT
ATOM      1  C   UNL     1      -2.763  -4.074  -0.003  0.00  0.00    -0.029 A 
ATOM      2  C   UNL     1      -2.851  -4.724  -1.220  0.00  0.00    +0.005 A 
ATOM      3  C   UNL     1      -2.613  -6.083  -1.296  0.00  0.00    +0.000 A 
ATOM      4  C   UNL     1      -2.287  -6.793  -0.155  0.00  0.00    +0.000 A 
ATOM      5  C   UNL     1      -2.198  -6.143   1.062  0.00  0.00    +0.006 A 
ATOM      6  C   UNL     1      -2.432  -4.782   1.137  0.00  0.00    -0.024 A 
ENDROOT
BRANCH   1   7
ATOM      7  C   UNL     1      -3.023  -2.592   0.081  0.00  0.00    +0.120 C 
BRANCH   7  11
ATOM      8  C   UNL     1      -6.117   0.682   2.064  0.00  0.00    +0.039 C 
ATOM      9  C   UNL     1      -5.918  -0.784   1.674  0.00  0.00    +0.130 C 
ATOM     10  C   UNL     1      -4.525  -0.967   1.064  0.00  0.00    +0.116 C 
ATOM     11  N   UNL     1      -4.368  -2.360   0.622  0.00  0.00    -0.293 NA
ATOM     12  C   UNL     1      -5.401  -2.712  -0.364  0.00  0.00    +0.116 C 
ATOM     13  C   UNL     1      -6.784  -2.513   0.260  0.00  0.00    +0.130 C 
ATOM     14  O   UNL     1      -6.908  -1.162   0.714  0.00  0.00    -0.371 OA
ATOM     15  C   UNL     1      -7.863  -2.803  -0.785  0.00  0.00    +0.039 C 
ENDBRANCH   7  11
ENDBRANCH   1   7
BRANCH   6  16
ATOM     16  C   UNL     1      -2.330  -4.072   2.463  0.00  0.00    +0.151 C 
BRANCH  16  17
ATOM     17  N   UNL     1      -3.673  -3.858   3.006  0.00  0.00    -0.354 N 
ATOM     18  C   UNL     1      -3.832  -3.225   4.216  0.00  0.00    +0.169 C 
ATOM     19  N   UNL     1      -2.788  -2.814   4.879  0.00  0.00    -0.371 N 
ATOM     20  N   UNL     1      -5.093  -3.024   4.726  0.00  0.00    -0.355 N 
ATOM     21  H   UNL     1      -4.451  -4.164   2.513  0.00  0.00    +0.163 HD
ATOM     22  H   UNL     1      -2.900  -2.367   5.733  0.00  0.00    +0.159 HD
ATOM     23  H   UNL     1      -5.870  -3.329   4.233  0.00  0.00    +0.163 HD
ATOM     24  H   UNL     1      -1.898  -2.956   4.519  0.00  0.00    +0.159 HD
BRANCH  20  25
ATOM     25  C   UNL     1      -5.262  -2.349   6.016  0.00  0.00    +0.082 C 
ATOM     26  C   UNL     1      -5.198  -3.377   7.163  0.00  0.00    +0.024 C 
ATOM     27  C   UNL     1      -6.244  -2.870   8.187  0.00  0.00    +0.002 C 
ATOM     28  C   UNL     1      -7.385  -2.348   7.279  0.00  0.00    +0.002 C 
ATOM     29  C   UNL     1      -6.653  -1.694   6.089  0.00  0.00    +0.024 C 
ENDBRANCH  20  25
ENDBRANCH  16  17
ENDBRANCH   6  16
TORSDOF 5
