REMARK  Name = ZINC01121765
REMARK  6 active torsions:
REMARK  status: ('A' for Active; 'I' for Inactive)
REMARK    1  A    between atoms: C_3  and  S_21
REMARK    2  A    between atoms: C_6  and  N_7
REMARK    3  A    between atoms: N_7  and  C_8
REMARK    4  A    between atoms: C_8  and  N_10
REMARK    5  A    between atoms: N_10  and  C_11
REMARK    6  A    between atoms: S_21  and  N_24
REMARK                            x       y       z     vdW  Elec       q    Type
REMARK                         _______ _______ _______ _____ _____    ______ ____
ROOT
ATOM      1  N   UNL     1       4.814  -2.662   0.131  0.00  0.00    -0.297 N 
ATOM      2  H   UNL     1       5.615  -2.162  -0.089  0.00  0.00    +0.154 HD
ENDROOT
BRANCH   1   8
ATOM      3  C   UNL     1       4.267  -4.773   1.169  0.00  0.00    +0.025 A 
ATOM      4  C   UNL     1       4.287  -6.154   1.154  0.00  0.00    +0.030 A 
ATOM      5  C   UNL     1       4.885  -6.827   0.105  0.00  0.00    +0.105 A 
ATOM      6  C   UNL     1       5.460  -6.121  -0.936  0.00  0.00    +0.030 A 
ATOM      7  C   UNL     1       5.437  -4.740  -0.930  0.00  0.00    +0.025 A 
ATOM      8  C   UNL     1       4.838  -4.060   0.122  0.00  0.00    +0.033 A 
BRANCH   5   9
ATOM      9  S   UNL     1       4.915  -8.589   0.094  0.00  0.00    +0.056 S 
ATOM     10  O   UNL     1       3.833  -9.018   0.908  0.00  0.00    -0.153 OA
ATOM     11  O   UNL     1       5.051  -8.984  -1.264  0.00  0.00    -0.153 OA
BRANCH   9  12
ATOM     12  N   UNL     1       6.303  -9.059   0.865  0.00  0.00    -0.204 NA
ATOM     13  H   UNL     1       6.913  -8.392   1.217  0.00  0.00    +0.144 HD
ATOM     14  H   UNL     1       6.507 -10.003   0.964  0.00  0.00    +0.144 HD
ENDBRANCH   9  12
ENDBRANCH   5   9
ENDBRANCH   1   8
BRANCH   1  15
ATOM     15  C   UNL     1       3.677  -2.009   0.445  0.00  0.00    +0.139 C 
ATOM     16  S   UNL     1       2.293  -2.888   0.938  0.00  0.00    -0.018 S 
BRANCH  15  17
ATOM     17  N   UNL     1       3.630  -0.664   0.370  0.00  0.00    -0.297 N 
ATOM     18  H   UNL     1       4.393  -0.170   0.032  0.00  0.00    +0.154 HD
BRANCH  17  19
ATOM     19  C   UNL     1       2.478   0.020   0.780  0.00  0.00    +0.036 A 
ATOM     20  C   UNL     1       2.589   1.148   1.581  0.00  0.00    +0.027 A 
ATOM     21  C   UNL     1       1.454   1.823   1.987  0.00  0.00    +0.051 A 
ATOM     22  C   UNL     1       0.201   1.375   1.596  0.00  0.00    +0.162 A 
ATOM     23  C   UNL     1       0.086   0.247   0.792  0.00  0.00    +0.164 A 
ATOM     24  C   UNL     1       1.226  -0.430   0.386  0.00  0.00    +0.072 A 
ATOM     25  O   UNL     1      -1.134  -0.202   0.391  0.00  0.00    -0.485 OA
ATOM     26  C   UNL     1      -2.269   0.279   1.120  0.00  0.00    +0.270 C 
ATOM     27  C   UNL     1      -2.121   1.796   1.294  0.00  0.00    +0.270 C 
ATOM     28  O   UNL     1      -0.908   2.048   2.012  0.00  0.00    -0.485 OA
ENDBRANCH  17  19
ENDBRANCH  15  17
ENDBRANCH   1  15
TORSDOF 6
