REMARK  Name = ZINC49799110
REMARK  12 active torsions:
REMARK  status: ('A' for Active; 'I' for Inactive)
REMARK    1  A    between atoms: C_1  and  C_2
REMARK    2  A    between atoms: C_2  and  C_3
REMARK    3  A    between atoms: C_6  and  C_9
REMARK    4  A    between atoms: C_9  and  C_11
REMARK    5  A    between atoms: C_9  and  N_27
REMARK    6  A    between atoms: C_11  and  N_12
REMARK    7  A    between atoms: N_15  and  C_16
REMARK    8  A    between atoms: C_18  and  C_24
REMARK    9  A    between atoms: C_21  and  O_22
REMARK   10  A    between atoms: O_22  and  C_23
REMARK   11  A    between atoms: N_27  and  C_28
REMARK   12  A    between atoms: N_27  and  C_29
REMARK                            x       y       z     vdW  Elec       q    Type
REMARK                         _______ _______ _______ _____ _____    ______ ____
ROOT
ATOM      1  N   UNL     1       1.972   0.043  -5.780  0.00  0.00    -0.300 N 
ATOM      2  C   UNL     1       2.172   1.156  -6.514  0.00  0.00    +0.304 C 
ATOM      3  O   UNL     1       3.301   1.490  -6.816  0.00  0.00    -0.253 OA
ATOM      4  N   UNL     1       1.119   1.897  -6.913  0.00  0.00    -0.266 N 
ATOM      5  H   UNL     1       1.071  -0.224  -5.540  0.00  0.00    +0.150 HD
ATOM      6  H   UNL     1       0.216   1.594  -6.733  0.00  0.00    +0.156 HD
ENDROOT
BRANCH   4   7
ATOM      7  C   UNL     1       1.331   3.107  -7.589  0.00  0.00    +0.077 A 
ATOM      8  C   UNL     1       2.408   3.242  -8.446  0.00  0.00    +0.040 A 
ATOM      9  C   UNL     1       2.615   4.449  -9.118  0.00  0.00    +0.038 A 
ATOM     10  C   UNL     1       1.732   5.515  -8.922  0.00  0.00    +0.017 A 
ATOM     11  C   UNL     1       0.661   5.374  -8.068  0.00  0.00    +0.048 A 
ATOM     12  C   UNL     1       0.451   4.174  -7.403  0.00  0.00    +0.141 A 
BRANCH   9  13
ATOM     13  C   UNL     1       3.764   4.599 -10.033  0.00  0.00    +0.242 C 
ATOM     14  O   UNL     1       4.531   3.671 -10.202  0.00  0.00    -0.270 OA
ATOM     15  N   UNL     1       3.962   5.764 -10.681  0.00  0.00    -0.325 N 
ATOM     16  H   UNL     1       3.349   6.504 -10.546  0.00  0.00    +0.145 HD
ATOM     17  H   UNL     1       4.716   5.862 -11.282  0.00  0.00    +0.145 HD
ENDBRANCH   9  13
BRANCH  12  18
ATOM     18  O   UNL     1      -0.610   4.039  -6.566  0.00  0.00    -0.493 OA
ATOM     19  C   UNL     1      -1.470   5.170  -6.422  0.00  0.00    +0.277 C 
ENDBRANCH  12  18
ENDBRANCH   4   7
BRANCH   1  20
ATOM     20  C   UNL     1       3.116  -0.763  -5.346  0.00  0.00    +0.095 C 
BRANCH  20  21
ATOM     21  C   UNL     1       2.613  -2.024  -4.641  0.00  0.00    -0.021 C 
BRANCH  21  25
ATOM     22  C   UNL     1       0.495  -0.927  -1.097  0.00  0.00    -0.048 A 
ATOM     23  C   UNL     1      -0.202  -1.249  -2.247  0.00  0.00    +0.004 A 
ATOM     24  C   UNL     1       0.484  -1.604  -3.394  0.00  0.00    +0.002 A 
ATOM     25  C   UNL     1       1.866  -1.636  -3.391  0.00  0.00    -0.059 A 
ATOM     26  C   UNL     1       2.562  -1.313  -2.241  0.00  0.00    +0.002 A 
ATOM     27  C   UNL     1       1.877  -0.954  -1.096  0.00  0.00    +0.004 A 
BRANCH  22  29
ATOM     28  C   UNL     1      -0.478   0.974   0.164  0.00  0.00    +0.009 C 
ATOM     29  C   UNL     1      -0.253  -0.540   0.153  0.00  0.00    +0.032 C 
ENDBRANCH  22  29
ENDBRANCH  21  25
BRANCH  21  30
ATOM     30  N   UNL     1       3.756  -2.874  -4.284  0.00  0.00    +0.382 N 
ATOM     31  C   UNL     1       3.269  -4.126  -3.688  0.00  0.00    -0.096 C 
ATOM     32  C   UNL     1       4.537  -3.178  -5.491  0.00  0.00    -0.096 C 
ATOM     33  H   UNL     1       4.340  -2.391  -3.618  0.00  0.00    -0.082 HD
ENDBRANCH  21  30
ENDBRANCH  20  21
ENDBRANCH   1  20
TORSDOF 8
