REMARK  Name = ZINC22833646
REMARK  7 active torsions:
REMARK  status: ('A' for Active; 'I' for Inactive)
REMARK    1  A    between atoms: C_5  and  C_7
REMARK    2  A    between atoms: C_7  and  C_9
REMARK    3  A    between atoms: C_7  and  N_27
REMARK    4  A    between atoms: C_9  and  N_10
REMARK    5  A    between atoms: C_11  and  C_13
REMARK    6  A    between atoms: C_18  and  N_19
REMARK    7  A    between atoms: C_20  and  C_22
REMARK                            x       y       z     vdW  Elec       q    Type
REMARK                         _______ _______ _______ _____ _____    ______ ____
ROOT
ATOM      1  N   UNL     1      -4.317   0.405  -1.412  0.00  0.00    -0.313 N 
ATOM      2  C   UNL     1      -4.812  -0.241  -2.487  0.00  0.00    +0.246 C 
ATOM      3  O   UNL     1      -4.131  -0.368  -3.486  0.00  0.00    -0.270 OA
ATOM      4  H   UNL     1      -4.934   0.520  -0.508  0.00  0.00    +0.149 HD
ENDROOT
BRANCH   2   5
ATOM      5  C   UNL     1      -6.179  -0.794  -2.451  0.00  0.00    +0.058 A 
ATOM      6  C   UNL     1      -6.926  -0.745  -1.271  0.00  0.00    +0.015 A 
ATOM      7  C   UNL     1      -8.204  -1.258  -1.246  0.00  0.00    +0.001 A 
ATOM      8  C   UNL     1      -8.750  -1.833  -2.382  0.00  0.00    +0.002 A 
ATOM      9  C   UNL     1      -8.023  -1.894  -3.553  0.00  0.00    +0.024 A 
ATOM     10  C   UNL     1      -6.735  -1.377  -3.599  0.00  0.00    +0.046 A 
BRANCH  10  11
ATOM     11  N   UNL     1      -5.999  -1.437  -4.779  0.00  0.00    -0.280 N 
ATOM     12  C   UNL     1      -6.621  -1.310  -5.968  0.00  0.00    +0.255 C 
ATOM     13  O   UNL     1      -7.809  -1.049  -6.009  0.00  0.00    -0.269 OA
ATOM     14  H   UNL     1      -4.910  -1.587  -4.741  0.00  0.00    +0.155 HD
BRANCH  12  15
ATOM     15  C   UNL     1      -5.867  -1.486  -7.212  0.00  0.00    +0.074 A 
ATOM     16  C   UNL     1      -6.310  -1.400  -8.523  0.00  0.00    +0.021 A 
ATOM     17  C   UNL     1      -5.383  -1.612  -9.512  0.00  0.00    +0.008 A 
ATOM     18  C   UNL     1      -4.098  -1.891  -9.168  0.00  0.00    +0.046 A 
ATOM     19  S   UNL     1      -4.137  -1.860  -7.435  0.00  0.00    -0.092 S 
ENDBRANCH  12  15
ENDBRANCH  10  11
ENDBRANCH   2   5
BRANCH   1  20
ATOM     20  C   UNL     1      -2.960   0.954  -1.448  0.00  0.00    +0.094 C 
BRANCH  20  21
ATOM     21  C   UNL     1      -2.603   1.523  -0.073  0.00  0.00    -0.019 C 
BRANCH  21  26
ATOM     22  C   UNL     1      -5.421   3.597   1.346  0.00  0.00    +0.000 A 
ATOM     23  C   UNL     1      -5.154   4.838   0.798  0.00  0.00    +0.001 A 
ATOM     24  C   UNL     1      -4.061   5.007  -0.030  0.00  0.00    +0.020 A 
ATOM     25  C   UNL     1      -3.232   3.935  -0.310  0.00  0.00    +0.043 A 
ATOM     26  C   UNL     1      -3.502   2.692   0.236  0.00  0.00    -0.041 A 
ATOM     27  C   UNL     1      -4.593   2.525   1.067  0.00  0.00    +0.003 A 
ATOM     28 CL   UNL     1      -1.858   4.147  -1.350  0.00  0.00    -0.083 Cl
ENDBRANCH  21  26
BRANCH  21  29
ATOM     29  N   UNL     1      -2.784   0.483   0.949  0.00  0.00    +0.385 N 
ATOM     30  C   UNL     1      -2.037  -0.750   0.593  0.00  0.00    -0.078 C 
ATOM     31  C   UNL     1      -1.900  -1.486   1.949  0.00  0.00    -0.020 C 
ATOM     32  C   UNL     1      -1.674  -0.330   2.949  0.00  0.00    -0.020 C 
ATOM     33  C   UNL     1      -2.242   0.921   2.253  0.00  0.00    -0.078 C 
ATOM     34  H   UNL     1      -3.868   0.302   1.004  0.00  0.00    -0.081 HD
ENDBRANCH  21  29
ENDBRANCH  20  21
ENDBRANCH   1  20
TORSDOF 7
