REMARK  Name = ZINC62506835
REMARK  8 active torsions:
REMARK  status: ('A' for Active; 'I' for Inactive)
REMARK    1  A    between atoms: C_1  and  C_2
REMARK    2  A    between atoms: C_2  and  C_3
REMARK    3  A    between atoms: C_2  and  N_8
REMARK    4  A    between atoms: C_3  and  C_4
REMARK    5  A    between atoms: C_4  and  N_5
REMARK    6  A    between atoms: N_5  and  C_6
REMARK    7  A    between atoms: N_5  and  C_7
REMARK    8  A    between atoms: N_11  and  N_12
REMARK                            x       y       z     vdW  Elec       q    Type
REMARK                         _______ _______ _______ _____ _____    ______ ____
ROOT
ATOM      1  N   UNL     1       0.711  -0.489   1.189  0.00  0.00    -0.296 N 
ATOM      2  C   UNL     1       2.054  -0.600   1.174  0.00  0.00    +0.316 C 
ATOM      3  O   UNL     1       2.677  -0.297   0.175  0.00  0.00    -0.251 OA
ATOM      4  N   UNL     1       2.706  -1.046   2.266  0.00  0.00    -0.219 N 
ATOM      5  H   UNL     1       0.213  -0.731   1.986  0.00  0.00    +0.151 HD
ATOM      6  H   UNL     1       3.672  -1.126   2.255  0.00  0.00    +0.174 HD
ENDROOT
BRANCH   4   7
ATOM      7  N   UNL     1       1.987  -1.396   3.416  0.00  0.00    -0.246 N 
ATOM      8  C   UNL     1       2.660  -1.857   4.543  0.00  0.00    +0.155 A 
ATOM      9  C   UNL     1       1.939  -2.207   5.681  0.00  0.00    +0.083 A 
ATOM     10  C   UNL     1       2.621  -2.665   6.796  0.00  0.00    +0.046 A 
ATOM     11  C   UNL     1       4.005  -2.756   6.735  0.00  0.00    +0.079 A 
ATOM     12  C   UNL     1       4.657  -2.391   5.571  0.00  0.00    +0.150 A 
ATOM     13  N   UNL     1       3.979  -1.962   4.522  0.00  0.00    -0.216 NA
ATOM     14 CL   UNL     1       6.387  -2.502   5.487  0.00  0.00    -0.060 Cl
ATOM     15 CL   UNL     1       4.908  -3.324   8.105  0.00  0.00    -0.080 Cl
ATOM     16 CL   UNL     1       0.208  -2.072   5.703  0.00  0.00    -0.080 Cl
ATOM     17  H   UNL     1       1.020  -1.316   3.427  0.00  0.00    +0.172 HD
ENDBRANCH   4   7
BRANCH   1  19
ATOM     18  C   UNL     1      -0.019   1.526   0.010  0.00  0.00    +0.028 C 
ATOM     19  C   UNL     1       0.002  -0.004   0.002  0.00  0.00    +0.070 C 
BRANCH  19  20
ATOM     20  C   UNL     1      -1.433  -0.534   0.013  0.00  0.00    +0.003 C 
BRANCH  20  21
ATOM     21  C   UNL     1      -1.416  -2.058  -0.121  0.00  0.00    -0.078 C 
BRANCH  21  22
ATOM     22  N   UNL     1      -2.794  -2.566  -0.111  0.00  0.00    +0.376 N 
ATOM     23  C   UNL     1      -3.504  -2.079  -1.301  0.00  0.00    -0.097 C 
ATOM     24  C   UNL     1      -2.774  -4.035  -0.119  0.00  0.00    -0.097 C 
ATOM     25  H   UNL     1      -3.266  -2.241   0.719  0.00  0.00    -0.083 HD
ENDBRANCH  21  22
ENDBRANCH  20  21
ENDBRANCH  19  20
ENDBRANCH   1  19
TORSDOF 5
