REMARK  Name = ZINC35426957
REMARK  6 active torsions:
REMARK  status: ('A' for Active; 'I' for Inactive)
REMARK    1  A    between atoms: C_1  and  C_2
REMARK    2  A    between atoms: C_2  and  O_3
REMARK    3  A    between atoms: O_3  and  C_4
REMARK    4  A    between atoms: C_9  and  N_10
REMARK    5  A    between atoms: C_25  and  C_27
REMARK    6  A    between atoms: N_29  and  C_32
REMARK                            x       y       z     vdW  Elec       q    Type
REMARK                         _______ _______ _______ _____ _____    ______ ____
ROOT
ATOM      1  N   UNL     1      -3.903  -1.565   0.031  0.00  0.00    -0.266 N 
ATOM      2  C   UNL     1      -5.138  -2.097  -0.062  0.00  0.00    +0.307 C 
ATOM      3  O   UNL     1      -5.281  -3.304  -0.067  0.00  0.00    -0.252 OA
ATOM      4  N   UNL     1      -6.214  -1.290  -0.149  0.00  0.00    -0.273 N 
ATOM      5  C   UNL     1      -6.080   0.178  -0.151  0.00  0.00    +0.148 C 
ATOM      6  C   UNL     1      -7.028   0.850  -1.120  0.00  0.00    +0.004 A 
ATOM      7  C   UNL     1      -6.601   1.491  -2.297  0.00  0.00    -0.034 A 
ATOM      8  C   UNL     1      -7.545   2.081  -3.079  0.00  0.00    -0.021 A 
ATOM      9  S   UNL     1      -9.064   1.761  -2.221  0.00  0.00    -0.077 S 
ATOM     10  C   UNL     1      -8.367   0.853  -0.875  0.00  0.00    +0.090 A 
ATOM     11  N   UNL     1      -8.961   0.228   0.215  0.00  0.00    -0.312 N 
ATOM     12  C   UNL     1      -9.910   0.650   1.082  0.00  0.00    +0.092 A 
ATOM     13  C   UNL     1     -10.089  -0.318   2.010  0.00  0.00    +0.020 A 
ATOM     14  C   UNL     1      -9.226  -1.386   1.682  0.00  0.00    +0.025 A 
ATOM     15  C   UNL     1      -8.565  -1.041   0.568  0.00  0.00    +0.044 A 
ATOM     16  C   UNL     1      -7.588  -1.837  -0.252  0.00  0.00    +0.122 C 
ATOM     17  C   UNL     1      -8.025  -1.812  -1.718  0.00  0.00    +0.035 C 
ATOM     18  C   UNL     1      -7.319   2.820  -4.356  0.00  0.00    -0.036 C 
ATOM     19  N   UNL     1      -5.881   3.131  -4.463  0.00  0.00    +0.381 N 
ATOM     20  C   UNL     1      -5.098   1.913  -4.215  0.00  0.00    -0.074 C 
ATOM     21  C   UNL     1      -5.137   1.549  -2.728  0.00  0.00    +0.018 C 
ATOM     22  C   UNL     1      -5.588   3.636  -5.811  0.00  0.00    -0.096 C 
ATOM     23  H   UNL     1      -3.793  -0.606   0.118  0.00  0.00    +0.156 HD
ATOM     24  H   UNL     1      -5.637   3.832  -3.780  0.00  0.00    -0.082 HD
ENDROOT
BRANCH   1  30
ATOM     25  C   UNL     1      -1.583  -1.982   0.585  0.00  0.00    +0.142 A 
ATOM     26  C   UNL     1      -0.475  -2.813   0.557  0.00  0.00    +0.047 A 
ATOM     27  C   UNL     1      -0.553  -4.051  -0.053  0.00  0.00    +0.004 A 
ATOM     28  C   UNL     1      -1.737  -4.464  -0.637  0.00  0.00    +0.002 A 
ATOM     29  C   UNL     1      -2.847  -3.641  -0.614  0.00  0.00    +0.027 A 
ATOM     30  C   UNL     1      -2.777  -2.400   0.001  0.00  0.00    +0.077 A 
BRANCH  25  31
ATOM     31  O   UNL     1      -1.507  -0.764   1.184  0.00  0.00    -0.490 OA
BRANCH  31  33
ATOM     32  C   UNL     1      -0.357   0.992   2.384  0.00  0.00    +0.048 C 
ATOM     33  C   UNL     1      -0.250  -0.402   1.761  0.00  0.00    +0.226 C 
ENDBRANCH  31  33
ENDBRANCH  25  31
ENDBRANCH   1  30
TORSDOF 3
