REMARK  Name = ZINC15162863
REMARK  10 active torsions:
REMARK  status: ('A' for Active; 'I' for Inactive)
REMARK    1  A    between atoms: C_1  and  C_2
REMARK    2  A    between atoms: C_2  and  C_24
REMARK    3  A    between atoms: N_3  and  N_4
REMARK    4  A    between atoms: C_5  and  S_7
REMARK    5  A    between atoms: S_7  and  C_8
REMARK    6  A    between atoms: N_13  and  C_16
REMARK    7  A    between atoms: C_25  and  C_26
REMARK    8  A    between atoms: C_29  and  N_32
REMARK    9  A    between atoms: N_32  and  C_33
REMARK   10  A    between atoms: N_32  and  C_34
REMARK                            x       y       z     vdW  Elec       q    Type
REMARK                         _______ _______ _______ _____ _____    ______ ____
ROOT
ATOM      1  N   UNL     1      -0.360  -0.861   2.288  0.00  0.00    -0.217 N 
ATOM      2  C   UNL     1      -0.260  -1.320   3.581  0.00  0.00    +0.146 C 
ATOM      3  N   UNL     1      -0.290  -2.602   3.823  0.00  0.00    -0.380 N 
ATOM      4  H   UNL     1      -0.337   0.092   2.108  0.00  0.00    +0.176 HD
ATOM      5  H   UNL     1      -0.220  -2.926   4.734  0.00  0.00    +0.158 HD
ATOM      6  H   UNL     1      -0.384  -3.231   3.091  0.00  0.00    +0.158 HD
ENDROOT
BRANCH   1   9
ATOM      7  C   UNL     1      -0.554   0.145  -0.273  0.00  0.00    +0.067 C 
ATOM      8  C   UNL     1      -0.590  -1.335   0.006  0.00  0.00    +0.056 C 
ATOM      9  N   UNL     1      -0.495  -1.770   1.230  0.00  0.00    -0.186 NA
BRANCH   8  10
ATOM     10  C   UNL     1      -0.727  -2.255  -1.064  0.00  0.00    +0.025 C 
ATOM     11  C   UNL     1      -0.759  -3.581  -0.815  0.00  0.00    +0.010 C 
BRANCH  11  12
ATOM     12  C   UNL     1      -0.900  -4.535  -1.925  0.00  0.00    -0.025 A 
ATOM     13  C   UNL     1      -0.997  -4.071  -3.241  0.00  0.00    +0.010 A 
ATOM     14  C   UNL     1      -1.129  -4.968  -4.278  0.00  0.00    +0.023 A 
ATOM     15  C   UNL     1      -1.167  -6.334  -4.018  0.00  0.00    +0.029 A 
ATOM     16  C   UNL     1      -1.071  -6.800  -2.711  0.00  0.00    +0.023 A 
ATOM     17  C   UNL     1      -0.934  -5.910  -1.669  0.00  0.00    +0.010 A 
BRANCH  15  18
ATOM     18  N   UNL     1      -1.302  -7.239  -5.071  0.00  0.00    -0.336 N 
ATOM     19  C   UNL     1      -1.403  -6.750  -6.448  0.00  0.00    +0.129 C 
ATOM     20  C   UNL     1      -1.342  -8.678  -4.799  0.00  0.00    +0.129 C 
ENDBRANCH  15  18
ENDBRANCH  11  12
ENDBRANCH   8  10
ENDBRANCH   1   9
BRANCH   2  21
ATOM     21  S   UNL     1      -0.089  -0.177   4.911  0.00  0.00    -0.078 S 
BRANCH  21  22
ATOM     22  C   UNL     1       0.003  -1.230   6.386  0.00  0.00    +0.149 C 
ATOM     23  C   UNL     1       0.084  -0.369   7.663  0.00  0.00    +0.120 C 
ATOM     24  C   UNL     1       1.417  -0.755   8.266  0.00  0.00    +0.228 C 
ATOM     25  O   UNL     1       1.879  -0.306   9.293  0.00  0.00    -0.275 OA
ATOM     26  N   UNL     1       2.005  -1.671   7.487  0.00  0.00    -0.209 N 
ATOM     27  C   UNL     1       1.297  -2.014   6.400  0.00  0.00    +0.240 C 
ATOM     28  O   UNL     1       1.637  -2.822   5.562  0.00  0.00    -0.274 OA
BRANCH  26  29
ATOM     29  C   UNL     1       3.258  -2.227   7.782  0.00  0.00    +0.045 A 
ATOM     30  C   UNL     1       3.408  -3.056   8.886  0.00  0.00    +0.025 A 
ATOM     31  C   UNL     1       4.642  -3.603   9.175  0.00  0.00    +0.023 A 
ATOM     32  C   UNL     1       5.730  -3.327   8.365  0.00  0.00    +0.059 A 
ATOM     33  C   UNL     1       5.584  -2.500   7.264  0.00  0.00    +0.061 A 
ATOM     34  C   UNL     1       4.349  -1.954   6.968  0.00  0.00    +0.045 A 
ATOM     35 CL   UNL     1       6.950  -2.155   6.250  0.00  0.00    -0.082 Cl
ATOM     36 CL   UNL     1       7.281  -4.016   8.732  0.00  0.00    -0.082 Cl
ENDBRANCH  26  29
ENDBRANCH  21  22
ENDBRANCH   2  21
TORSDOF 7
