REMARK  Name = ZINC19741078
REMARK  10 active torsions:
REMARK  status: ('A' for Active; 'I' for Inactive)
REMARK    1  A    between atoms: C_1  and  N_2
REMARK    2  A    between atoms: C_3  and  C_5
REMARK    3  A    between atoms: C_8  and  N_23
REMARK    4  A    between atoms: N_11  and  C_12
REMARK    5  A    between atoms: C_12  and  C_13
REMARK    6  A    between atoms: N_23  and  C_24
REMARK    7  A    between atoms: C_24  and  C_25
REMARK    8  A    between atoms: C_28  and  C_31
REMARK    9  A    between atoms: C_31  and  O_33
REMARK   10  A    between atoms: O_33  and  C_34
REMARK                            x       y       z     vdW  Elec       q    Type
REMARK                         _______ _______ _______ _____ _____    ______ ____
ROOT
ATOM      1  C   UNL     1       3.458  -4.123  -1.461  0.00  0.00    +0.021 C 
ATOM      2  C   UNL     1       2.337  -4.580  -2.429  0.00  0.00    +0.010 C 
ATOM      3  C   UNL     1       1.183  -3.616  -2.048  0.00  0.00    +0.036 C 
ATOM      4  C   UNL     1       1.921  -2.301  -1.720  0.00  0.00    -0.059 C 
ATOM      5  N   UNL     1       3.312  -2.654  -1.381  0.00  0.00    +0.391 N 
ATOM      6  H   UNL     1       3.999  -2.171  -2.091  0.00  0.00    -0.080 HD
ENDROOT
BRANCH   1   9
ATOM      7  C   UNL     1       6.465  -6.135  -2.712  0.00  0.00    +0.128 C 
ATOM      8  N   UNL     1       5.149  -5.782  -2.172  0.00  0.00    -0.320 N 
ATOM      9  C   UNL     1       4.811  -4.487  -2.017  0.00  0.00    +0.199 C 
ATOM     10  O   UNL     1       5.595  -3.614  -2.323  0.00  0.00    -0.278 OA
ATOM     11  H   UNL     1       4.438  -6.574  -1.894  0.00  0.00    +0.148 HD
ENDBRANCH   1   9
BRANCH   3  12
ATOM     12  N   UNL     1       0.268  -3.429  -3.182  0.00  0.00    -0.311 NA
ATOM     13  H   UNL     1       0.654  -2.635  -3.837  0.00  0.00    +0.122 HD
BRANCH  12  14
ATOM     14  C   UNL     1      -1.073  -3.047  -2.718  0.00  0.00    +0.116 C 
BRANCH  14  15
ATOM     15  C   UNL     1      -1.982  -2.864  -3.906  0.00  0.00    -0.034 A 
ATOM     16  C   UNL     1      -2.092  -1.621  -4.505  0.00  0.00    +0.006 A 
ATOM     17  C   UNL     1      -2.918  -1.448  -5.596  0.00  0.00    +0.015 A 
ATOM     18  C   UNL     1      -3.652  -2.529  -6.090  0.00  0.00    +0.059 A 
ATOM     19  C   UNL     1      -3.541  -3.779  -5.478  0.00  0.00    +0.015 A 
ATOM     20  C   UNL     1      -2.707  -3.939  -4.390  0.00  0.00    +0.006 A 
BRANCH  18  21
ATOM     21  C   UNL     1      -4.543  -2.350  -7.254  0.00  0.00    +0.339 C 
ATOM     22  O   UNL     1      -5.181  -3.291  -7.681  0.00  0.00    -0.245 OA
BRANCH  21  23
ATOM     23  O   UNL     1      -4.649  -1.142  -7.843  0.00  0.00    -0.464 OA
ATOM     24  C   UNL     1      -5.543  -1.040  -8.982  0.00  0.00    +0.280 C 
ENDBRANCH  21  23
ENDBRANCH  18  21
ENDBRANCH  14  15
ENDBRANCH  12  14
ENDBRANCH   3  12
BRANCH   5  25
ATOM     25  C   UNL     1       3.669  -2.162  -0.044  0.00  0.00    -0.041 C 
BRANCH  25  26
ATOM     26  C   UNL     1       3.675  -0.655  -0.049  0.00  0.00    -0.056 A 
ATOM     27  C   UNL     1       2.624   0.035   0.474  0.00  0.00    +0.002 A 
ATOM     28  C   UNL     1       2.612   1.428   0.479  0.00  0.00    +0.001 A 
ATOM     29  C   UNL     1       3.650   2.140  -0.039  0.00  0.00    +0.008 A 
ATOM     30  C   UNL     1       4.752   1.463  -0.588  0.00  0.00    -0.018 A 
ATOM     31  C   UNL     1       4.765   0.045  -0.592  0.00  0.00    -0.017 A 
ATOM     32  C   UNL     1       5.867  -0.632  -1.141  0.00  0.00    +0.009 A 
ATOM     33  C   UNL     1       6.905   0.080  -1.659  0.00  0.00    +0.001 A 
ATOM     34  C   UNL     1       6.893   1.474  -1.655  0.00  0.00    +0.001 A 
ATOM     35  C   UNL     1       5.842   2.163  -1.132  0.00  0.00    +0.008 A 
ENDBRANCH  25  26
ENDBRANCH   5  25
TORSDOF 8
