REMARK  Name = ZINC20433966
REMARK  9 active torsions:
REMARK  status: ('A' for Active; 'I' for Inactive)
REMARK    1  A    between atoms: C_1  and  O_2
REMARK    2  A    between atoms: O_2  and  C_3
REMARK    3  A    between atoms: C_5  and  N_13
REMARK    4  A    between atoms: C_7  and  O_11
REMARK    5  A    between atoms: C_8  and  O_9
REMARK    6  A    between atoms: O_9  and  C_10
REMARK    7  A    between atoms: O_11  and  C_12
REMARK    8  A    between atoms: C_14  and  C_16
REMARK    9  A    between atoms: C_19  and  O_23
REMARK                            x       y       z     vdW  Elec       q    Type
REMARK                         _______ _______ _______ _____ _____    ______ ____
ROOT
ATOM      1  N   UNL     1       3.589   2.134  -0.021  0.00  0.00    -0.287 N 
ATOM      2  C   UNL     1       4.705   1.573  -0.528  0.00  0.00    +0.203 C 
ATOM      3  O   UNL     1       4.648   0.484  -1.059  0.00  0.00    -0.277 OA
ATOM      4  H   UNL     1       3.622   3.157   0.383  0.00  0.00    +0.155 HD
ENDROOT
BRANCH   2   5
ATOM      5  C   UNL     1       6.022   2.299  -0.434  0.00  0.00    +0.019 C 
ATOM      6  C   UNL     1       6.124   3.374  -1.537  0.00  0.00    +0.023 C 
ATOM      7  C   UNL     1       7.599   3.348  -1.988  0.00  0.00    +0.097 C 
ATOM      8  C   UNL     1       8.265   2.260  -1.119  0.00  0.00    -0.050 C 
ATOM      9  N   UNL     1       7.147   1.369  -0.713  0.00  0.00    +0.388 N 
ATOM     10  H   UNL     1       7.384   0.797   0.196  0.00  0.00    -0.085 HD
ATOM     11  H   UNL     1       6.859   0.676  -1.518  0.00  0.00    -0.085 HD
BRANCH   7  12
ATOM     12  O   UNL     1       8.213   4.617  -1.750  0.00  0.00    -0.394 OA
ATOM     13  H   UNL     1       9.269   4.775  -2.014  0.00  0.00    +0.210 HD
ENDBRANCH   7  12
ENDBRANCH   2   5
BRANCH   1  16
ATOM     14  C   UNL     1      -0.011   1.369  -0.155  0.00  0.00    +0.167 A 
ATOM     15  C   UNL     1       1.179   2.079  -0.168  0.00  0.00    +0.073 A 
ATOM     16  C   UNL     1       2.387   1.415  -0.008  0.00  0.00    +0.040 A 
ATOM     17  C   UNL     1       2.405   0.037   0.165  0.00  0.00    +0.073 A 
ATOM     18  C   UNL     1       1.216  -0.675   0.178  0.00  0.00    +0.167 A 
ATOM     19  C   UNL     1       0.006  -0.010   0.018  0.00  0.00    +0.204 A 
BRANCH  14  21
ATOM     20  C   UNL     1      -1.136   3.437  -0.490  0.00  0.00    +0.277 C 
ATOM     21  O   UNL     1      -1.194   2.019  -0.318  0.00  0.00    -0.491 OA
ENDBRANCH  14  21
BRANCH  19  22
ATOM     22  O   UNL     1      -1.162  -0.710   0.030  0.00  0.00    -0.488 OA
ATOM     23  C   UNL     1      -1.639  -1.200  -1.224  0.00  0.00    +0.277 C 
ENDBRANCH  19  22
BRANCH  18  24
ATOM     24  O   UNL     1       1.234  -2.024   0.347  0.00  0.00    -0.491 OA
ATOM     25  C   UNL     1       2.513  -2.642   0.506  0.00  0.00    +0.277 C 
ENDBRANCH  18  24
ENDBRANCH   1  16
TORSDOF 6
