REMARK  Name = ZINC44464958
REMARK  10 active torsions:
REMARK  status: ('A' for Active; 'I' for Inactive)
REMARK    1  A    between atoms: C_1  and  C_2
REMARK    2  A    between atoms: C_5  and  S_8
REMARK    3  A    between atoms: S_8  and  C_9
REMARK    4  A    between atoms: C_9  and  C_10
REMARK    5  A    between atoms: C_11  and  C_17
REMARK    6  A    between atoms: N_13  and  C_15
REMARK    7  A    between atoms: C_17  and  CA_18
REMARK    8  A    between atoms: CA_18  and  C_20
REMARK    9  A    between atoms: CA_18  and  N_22
REMARK   10  A    between atoms: C_20  and  O_21
REMARK                            x       y       z     vdW  Elec       q    Type
REMARK                         _______ _______ _______ _____ _____    ______ ____
ROOT
ATOM      1  C   UNL     1       0.097  -6.482   1.870  0.00  0.00    +0.078 A 
ATOM      2  C   UNL     1      -1.025  -7.314   1.944  0.00  0.00    +0.011 A 
ATOM      3  C   UNL     1      -0.590  -8.591   2.059  0.00  0.00    +0.130 A 
ATOM      4  N   UNL     1       0.760  -8.567   2.058  0.00  0.00    -0.256 N 
ATOM      5  N   UNL     1       1.167  -7.232   1.933  0.00  0.00    -0.174 NA
ATOM      6  C   UNL     1       1.643  -9.731   2.163  0.00  0.00    +0.174 C 
ATOM      7 CL   UNL     1      -1.588 -10.006   2.186  0.00  0.00    -0.062 Cl
ENDROOT
BRANCH   1   8
ATOM      8  C   UNL     1       0.077  -4.981   1.735  0.00  0.00    +0.132 C 
BRANCH   8   9
ATOM      9  S   UNL     1       0.062  -4.533  -0.023  0.00  0.00    -0.119 S 
BRANCH   9  14
ATOM     10  C   UNL     1      -0.018   1.503   0.010  0.00  0.00    +0.044 C 
ATOM     11  C   UNL     1       0.002  -0.004   0.002  0.00  0.00    -0.050 A 
ATOM     12  C   UNL     1       0.006  -0.687  -1.200  0.00  0.00    +0.004 A 
ATOM     13  C   UNL     1       0.024  -2.068  -1.212  0.00  0.00    +0.015 A 
ATOM     14  C   UNL     1       0.039  -2.771  -0.013  0.00  0.00    +0.008 A 
ATOM     15  C   UNL     1       0.036  -2.081   1.193  0.00  0.00    +0.015 A 
ATOM     16  C   UNL     1       0.023  -0.700   1.197  0.00  0.00    +0.004 A 
ENDBRANCH   9  14
ENDBRANCH   8   9
ENDBRANCH   1   8
BRANCH   2  17
ATOM     17  C   UNL     1      -2.464  -6.867   1.904  0.00  0.00    +0.026 C 
BRANCH  17  18
ATOM     18  CA  UNL     1      -2.951  -6.845   0.453  0.00  0.00    -0.045 C 
BRANCH  18  19
ATOM     19  N   UNL     1      -2.953  -8.212  -0.084  0.00  0.00    +0.382 N 
ATOM     20  H1  UNL     1      -3.568  -8.789   0.468  0.00  0.00    -0.090 HD
ATOM     21  H2  UNL     1      -3.273  -8.197  -1.040  0.00  0.00    -0.090 HD
ATOM     22  H3  UNL     1      -2.017  -8.588  -0.049  0.00  0.00    -0.090 HD
ENDBRANCH  18  19
BRANCH  18  23
ATOM     23  C   UNL     1      -4.369  -6.274   0.400  0.00  0.00    +0.140 C 
BRANCH  23  24
ATOM     24  O   UNL     1      -4.779  -6.144  -0.962  0.00  0.00    -0.397 OA
ATOM     25  H   UNL     1      -5.671  -5.787  -1.072  0.00  0.00    +0.209 HD
ENDBRANCH  23  24
ENDBRANCH  18  23
ENDBRANCH  17  18
ENDBRANCH   2  17
TORSDOF 8
