REMARK  Name = ZINC42691765
REMARK  12 active torsions:
REMARK  status: ('A' for Active; 'I' for Inactive)
REMARK    1  A    between atoms: C_1  and  C_2
REMARK    2  A    between atoms: C_2  and  C_3
REMARK    3  A    between atoms: C_3  and  C_4
REMARK    4  A    between atoms: C_4  and  N_5
REMARK    5  A    between atoms: N_5  and  C_6
REMARK    6  A    between atoms: N_5  and  C_10
REMARK    7  A    between atoms: C_6  and  C_7
REMARK    8  A    between atoms: C_15  and  C_16
REMARK    9  A    between atoms: C_16  and  N_17
REMARK   10  A    between atoms: N_17  and  C_18
REMARK   11  A    between atoms: C_18  and  C_19
REMARK   12  A    between atoms: C_18  and  C_20
REMARK                            x       y       z     vdW  Elec       q    Type
REMARK                         _______ _______ _______ _____ _____    ______ ____
ROOT
ATOM      1  C   UNL     1      -0.014  -3.424  -3.655  0.00  0.00    +0.033 A 
ATOM      2  C   UNL     1      -0.708  -2.706  -4.621  0.00  0.00    +0.038 A 
ATOM      3  C   UNL     1      -1.245  -3.360  -5.713  0.00  0.00    +0.020 A 
ATOM      4  C   UNL     1      -1.092  -4.729  -5.844  0.00  0.00    +0.015 A 
ATOM      5  C   UNL     1      -0.402  -5.446  -4.885  0.00  0.00    +0.004 A 
ATOM      6  C   UNL     1       0.142  -4.797  -3.793  0.00  0.00    -0.043 A 
ATOM      7 BR   UNL     1      -2.189  -2.384  -7.029  0.00  0.00    -0.050 Br
ENDROOT
BRANCH   1   8
ATOM      8  N   UNL     1       0.531  -2.765  -2.550  0.00  0.00    -0.321 N 
BRANCH   8   9
ATOM      9  C   UNL     1       1.863  -2.163  -2.640  0.00  0.00    +0.105 C 
BRANCH   9  10
ATOM     10  C   UNL     1       2.922  -3.215  -2.302  0.00  0.00    +0.019 C 
BRANCH  10  12
ATOM     11  C   UNL     1       5.361  -3.608  -1.928  0.00  0.00    +0.004 C 
ATOM     12  C   UNL     1       4.302  -2.556  -2.265  0.00  0.00    -0.002 C 
ENDBRANCH  10  12
ENDBRANCH   9  10
ENDBRANCH   8   9
BRANCH   8  13
ATOM     13  C   UNL     1      -0.230  -2.677  -1.302  0.00  0.00    +0.200 C 
BRANCH  13  14
ATOM     14  C   UNL     1      -0.948  -1.353  -1.244  0.00  0.00    +0.228 C 
ATOM     15  O   UNL     1      -0.891  -0.591  -2.185  0.00  0.00    -0.274 OA
ATOM     16  N   UNL     1      -1.654  -1.017  -0.146  0.00  0.00    -0.328 N 
ATOM     17  H   UNL     1      -1.700  -1.627   0.607  0.00  0.00    +0.145 HD
ATOM     18  H   UNL     1      -2.116  -0.165  -0.109  0.00  0.00    +0.145 HD
ENDBRANCH  13  14
ENDBRANCH   8  13
ENDBRANCH   1   8
BRANCH   6  19
ATOM     19  C   UNL     1       0.899  -5.579  -2.751  0.00  0.00    -0.045 C 
BRANCH  19  20
ATOM     20  N   UNL     1      -0.016  -5.966  -1.669  0.00  0.00    +0.383 N 
ATOM     21  H   UNL     1      -0.337  -5.139  -1.188  0.00  0.00    -0.085 HD
ATOM     22  H   UNL     1      -0.807  -6.458  -2.057  0.00  0.00    -0.085 HD
BRANCH  20  23
ATOM     23  C   UNL     1       0.689  -6.840  -0.722  0.00  0.00    -0.078 C 
ATOM     24  C   UNL     1       1.810  -6.055  -0.039  0.00  0.00    -0.014 C 
ATOM     25  C   UNL     1      -0.296  -7.346   0.335  0.00  0.00    -0.014 C 
ENDBRANCH  20  23
ENDBRANCH  19  20
ENDBRANCH   6  19
TORSDOF 9
