REMARK  Name = ZINC63295935
REMARK  4 active torsions:
REMARK  status: ('A' for Active; 'I' for Inactive)
REMARK    1  A    between atoms: C_1  and  C_2
REMARK    2  A    between atoms: C_8  and  C_10
REMARK    3  A    between atoms: C_10  and  C_11
REMARK    4  A    between atoms: C_11  and  N_12
REMARK                            x       y       z     vdW  Elec       q    Type
REMARK                         _______ _______ _______ _____ _____    ______ ____
ROOT
ATOM      1  N   UNL     1       0.044  -8.678  -0.046  0.00  0.00    -0.299 N 
ATOM      2  C   UNL     1      -0.810  -9.721  -0.044  0.00  0.00    +0.302 C 
ATOM      3  O   UNL     1      -2.006  -9.527   0.056  0.00  0.00    -0.253 OA
ATOM      4  N   UNL     1      -0.338 -10.978  -0.154  0.00  0.00    -0.283 N 
ATOM      5  C   UNL     1       1.110 -11.212  -0.155  0.00  0.00    +0.114 C 
ATOM      6  C   UNL     1       1.510 -11.945  -1.448  0.00  0.00    +0.052 C 
ATOM      7  C   UNL     1       0.509 -13.057  -1.643  0.00  0.00    -0.036 C 
ATOM      8  C   UNL     1       0.672 -14.357  -1.856  0.00  0.00    -0.001 A 
ATOM      9  C   UNL     1       1.878 -15.168  -2.088  0.00  0.00    +0.010 A 
ATOM     10  C   UNL     1       1.679 -16.503  -2.253  0.00  0.00    +0.001 A 
ATOM     11  C   UNL     1       0.418 -17.104  -2.211  0.00  0.00    +0.002 A 
ATOM     12  C   UNL     1      -0.745 -16.434  -2.011  0.00  0.00    +0.026 A 
ATOM     13  C   UNL     1      -0.666 -15.022  -1.833  0.00  0.00    +0.043 A 
ATOM     14  N   UNL     1      -1.607 -14.144  -1.651  0.00  0.00    -0.376 N 
ATOM     15  C   UNL     1      -0.995 -12.816  -1.598  0.00  0.00    +0.124 C 
ATOM     16  C   UNL     1      -1.281 -12.102  -0.267  0.00  0.00    +0.138 C 
ATOM     17  H   UNL     1       1.001  -8.835  -0.052  0.00  0.00    +0.150 HD
ATOM     18  H   UNL     1      -2.554 -14.336  -1.564  0.00  0.00    +0.160 HD
ENDROOT
BRANCH   1  19
ATOM     19  C   UNL     1      -0.473  -7.307  -0.038  0.00  0.00    +0.115 C 
BRANCH  19  20
ATOM     20  C   UNL     1       0.696  -6.321  -0.042  0.00  0.00    +0.115 C 
BRANCH  20  28
ATOM     21  C   UNL     1      -0.021   1.503  -0.008  0.00  0.00    +0.053 C 
ATOM     22  C   UNL     1      -0.000  -0.004  -0.014  0.00  0.00    +0.008 A 
ATOM     23  C   UNL     1      -1.032  -0.883  -0.011  0.00  0.00    +0.124 A 
ATOM     24  N   UNL     1      -0.727  -2.167  -0.018  0.00  0.00    -0.233 NA
ATOM     25  C   UNL     1       0.526  -2.568  -0.028  0.00  0.00    +0.165 A 
ATOM     26  S   UNL     1       1.391  -1.123  -0.035  0.00  0.00    -0.057 S 
ATOM     27  N   UNL     1       1.017  -3.868  -0.035  0.00  0.00    -0.265 N 
ATOM     28  C   UNL     1       0.164  -4.911  -0.034  0.00  0.00    +0.220 C 
ATOM     29  O   UNL     1      -1.033  -4.715  -0.026  0.00  0.00    -0.275 OA
ATOM     30  H   UNL     1       1.975  -4.025  -0.041  0.00  0.00    +0.157 HD
ENDBRANCH  20  28
ENDBRANCH  19  20
ENDBRANCH   1  19
TORSDOF 3
