REMARK  Name = ZINC42625986
REMARK  9 active torsions:
REMARK  status: ('A' for Active; 'I' for Inactive)
REMARK    1  A    between atoms: C_1  and  C_2
REMARK    2  A    between atoms: C_5  and  N_9
REMARK    3  A    between atoms: C_6  and  C_8
REMARK    4  A    between atoms: C_13  and  C_15
REMARK    5  A    between atoms: C_15  and  C_17
REMARK    6  A    between atoms: C_15  and  N_18
REMARK    7  A    between atoms: N_18  and  C_19
REMARK    8  A    between atoms: C_23  and  C_25
REMARK    9  A    between atoms: N_27  and  C_28
REMARK                            x       y       z     vdW  Elec       q    Type
REMARK                         _______ _______ _______ _____ _____    ______ ____
ROOT
ATOM      1  N   UNL     1       0.059  -4.170  -0.021  0.00  0.00    -0.269 N 
ATOM      2  C   UNL     1      -0.040  -4.839  -1.187  0.00  0.00    +0.310 C 
ATOM      3  O   UNL     1      -0.054  -4.229  -2.238  0.00  0.00    -0.252 OA
ATOM      4  N   UNL     1      -0.124  -6.184  -1.187  0.00  0.00    -0.238 N 
ATOM      5  C   UNL     1      -0.223  -6.853  -2.353  0.00  0.00    +0.240 C 
ATOM      6  O   UNL     1      -0.237  -6.244  -3.401  0.00  0.00    -0.273 OA
ATOM      7  H   UNL     1       0.135  -4.658   0.814  0.00  0.00    +0.156 HD
ATOM      8  H   UNL     1      -0.113  -6.671  -0.348  0.00  0.00    +0.159 HD
ENDROOT
BRANCH   1  13
ATOM      9  C   UNL     1       0.025   1.503   0.005  0.00  0.00    +0.044 C 
ATOM     10  C   UNL     1       0.034  -0.004  -0.002  0.00  0.00    -0.050 A 
ATOM     11  C   UNL     1       0.632  -0.685  -1.046  0.00  0.00    +0.005 A 
ATOM     12  C   UNL     1       0.641  -2.066  -1.055  0.00  0.00    +0.024 A 
ATOM     13  C   UNL     1       0.051  -2.771  -0.014  0.00  0.00    +0.038 A 
ATOM     14  C   UNL     1      -0.548  -2.083   1.033  0.00  0.00    -0.029 A 
ATOM     15  C   UNL     1      -0.551  -0.702   1.039  0.00  0.00    +0.008 A 
ATOM     16  C   UNL     1      -1.191  -2.843   2.165  0.00  0.00    +0.045 C 
ENDBRANCH   1  13
BRANCH   5  17
ATOM     17  C   UNL     1      -0.317  -8.357  -2.353  0.00  0.00    +0.154 C 
ATOM     18  C   UNL     1      -1.558  -8.791  -1.572  0.00  0.00    +0.038 C 
BRANCH  17  19
ATOM     19  N   UNL     1      -0.415  -8.840  -3.733  0.00  0.00    -0.333 N 
ATOM     20  H   UNL     1      -0.769  -8.260  -4.426  0.00  0.00    +0.147 HD
BRANCH  19  21
ATOM     21  C   UNL     1       0.002 -10.135  -4.051  0.00  0.00    +0.028 A 
ATOM     22  C   UNL     1       0.504 -10.967  -3.057  0.00  0.00    +0.023 A 
ATOM     23  C   UNL     1       0.917 -12.249  -3.366  0.00  0.00    +0.003 A 
ATOM     24  C   UNL     1       0.834 -12.712  -4.664  0.00  0.00    +0.013 A 
ATOM     25  C   UNL     1       0.331 -11.884  -5.669  0.00  0.00    +0.038 A 
ATOM     26  C   UNL     1      -0.090 -10.592  -5.356  0.00  0.00    +0.036 A 
BRANCH  25  27
ATOM     27  C   UNL     1       0.242 -12.377  -7.061  0.00  0.00    +0.244 C 
ATOM     28  O   UNL     1      -0.197 -11.655  -7.934  0.00  0.00    -0.270 OA
ATOM     29  N   UNL     1       0.645 -13.628  -7.360  0.00  0.00    -0.314 N 
ATOM     30  C   UNL     1       0.556 -14.116  -8.738  0.00  0.00    +0.128 C 
ATOM     31  H   UNL     1       0.995 -14.204  -6.662  0.00  0.00    +0.149 HD
ENDBRANCH  25  27
ENDBRANCH  19  21
ENDBRANCH  17  19
ENDBRANCH   5  17
TORSDOF 5
