REMARK  Name = ZINC46286989
REMARK  6 active torsions:
REMARK  status: ('A' for Active; 'I' for Inactive)
REMARK    1  A    between atoms: C_1  and  N_2
REMARK    2  A    between atoms: N_2  and  C_3
REMARK    3  A    between atoms: C_7  and  C_10
REMARK    4  A    between atoms: C_10  and  N_11
REMARK    5  A    between atoms: N_14  and  N_15
REMARK    6  A    between atoms: C_16  and  C_18
REMARK                            x       y       z     vdW  Elec       q    Type
REMARK                         _______ _______ _______ _____ _____    ______ ____
ROOT
ATOM      1  N   UNL     1      -5.295  -3.029   1.416  0.00  0.00    -0.294 N 
ATOM      2  C   UNL     1      -6.459  -3.659   1.670  0.00  0.00    +0.316 C 
ATOM      3  O   UNL     1      -7.161  -4.032   0.750  0.00  0.00    -0.251 OA
ATOM      4  N   UNL     1      -6.846  -3.874   2.943  0.00  0.00    -0.218 N 
ATOM      5  H   UNL     1      -4.735  -2.731   2.150  0.00  0.00    +0.151 HD
ATOM      6  H   UNL     1      -7.684  -4.327   3.125  0.00  0.00    +0.174 HD
ENDROOT
BRANCH   4   7
ATOM      7  N   UNL     1      -6.037  -3.443   4.003  0.00  0.00    -0.228 N 
ATOM      8  C   UNL     1      -6.424  -3.659   5.276  0.00  0.00    +0.279 C 
ATOM      9  O   UNL     1      -7.473  -4.226   5.504  0.00  0.00    -0.267 OA
ATOM     10  H   UNL     1      -5.199  -2.990   3.821  0.00  0.00    +0.173 HD
BRANCH   8  11
ATOM     11  C   UNL     1      -5.568  -3.203   6.398  0.00  0.00    +0.127 A 
ATOM     12  C   UNL     1      -5.983  -3.441   7.716  0.00  0.00    +0.034 A 
ATOM     13  C   UNL     1      -5.204  -3.026   8.758  0.00  0.00    +0.012 A 
ATOM     14  C   UNL     1      -3.996  -2.366   8.465  0.00  0.00    +0.000 A 
ATOM     15  C   UNL     1      -3.146  -1.914   9.487  0.00  0.00    +0.010 A 
ATOM     16  C   UNL     1      -1.985  -1.280   9.166  0.00  0.00    +0.001 A 
ATOM     17  C   UNL     1      -1.626  -1.073   7.835  0.00  0.00    +0.002 A 
ATOM     18  C   UNL     1      -2.424  -1.497   6.819  0.00  0.00    +0.028 A 
ATOM     19  C   UNL     1      -3.634  -2.157   7.109  0.00  0.00    +0.072 A 
ATOM     20  N   UNL     1      -4.431  -2.589   6.133  0.00  0.00    -0.242 NA
ENDBRANCH   8  11
ENDBRANCH   4   7
BRANCH   1  21
ATOM     21  C   UNL     1      -4.874  -2.795   0.033  0.00  0.00    +0.142 C 
BRANCH  21  28
ATOM     22  C   UNL     1      -0.018   1.461   0.010  0.00  0.00    +0.130 C 
ATOM     23  N   UNL     1       0.002  -0.004   0.002  0.00  0.00    -0.323 N 
ATOM     24  C   UNL     1       1.281  -0.719  -0.014  0.00  0.00    +0.130 C 
ATOM     25  C   UNL     1      -1.192  -0.715   0.010  0.00  0.00    +0.098 A 
ATOM     26  C   UNL     1      -1.166  -2.107   0.008  0.00  0.00    +0.042 A 
ATOM     27  C   UNL     1      -2.362  -2.802   0.015  0.00  0.00    +0.010 A 
ATOM     28  C   UNL     1      -3.548  -2.080   0.025  0.00  0.00    -0.014 A 
ATOM     29  C   UNL     1      -3.500  -0.700   0.026  0.00  0.00    +0.089 A 
ATOM     30  N   UNL     1      -2.344  -0.063   0.024  0.00  0.00    -0.349 N 
ATOM     31  H   UNL     1      -2.339   0.907   0.029  0.00  0.00    +0.167 HD
ENDBRANCH  21  28
ENDBRANCH   1  21
TORSDOF 4
