REMARK  Name = ZINC20549115
REMARK  6 active torsions:
REMARK  status: ('A' for Active; 'I' for Inactive)
REMARK    1  A    between atoms: C_1  and  C_2
REMARK    2  A    between atoms: N_7  and  C_9
REMARK    3  A    between atoms: C_9  and  C_11
REMARK    4  A    between atoms: C_9  and  C_12
REMARK    5  A    between atoms: N_14  and  C_15
REMARK    6  A    between atoms: C_16  and  N_23
REMARK                            x       y       z     vdW  Elec       q    Type
REMARK                         _______ _______ _______ _____ _____    ______ ____
ROOT
ATOM      1  C   UNL     1       3.565   5.679  -0.691  0.00  0.00    +0.203 C 
ATOM      2  O   UNL     1       3.200   6.341  -1.640  0.00  0.00    -0.277 OA
ATOM      3  N   UNL     1       3.810   6.276   0.493  0.00  0.00    -0.284 N 
ATOM      4  H   UNL     1       4.061   5.667   1.374  0.00  0.00    +0.155 HD
ENDROOT
BRANCH   3   5
ATOM      5  C   UNL     1       3.745   7.673   0.601  0.00  0.00    +0.073 A 
ATOM      6  C   UNL     1       4.876   8.447   0.344  0.00  0.00    +0.049 A 
ATOM      7  C   UNL     1       4.804   9.828   0.448  0.00  0.00    +0.044 A 
ATOM      8  C   UNL     1       3.616  10.434   0.816  0.00  0.00    +0.044 A 
ATOM      9  C   UNL     1       2.495   9.665   1.076  0.00  0.00    +0.042 A 
ATOM     10  C   UNL     1       2.557   8.287   0.969  0.00  0.00    +0.065 A 
ATOM     11 CL   UNL     1       1.148   7.327   1.297  0.00  0.00    -0.082 Cl
ATOM     12 CL   UNL     1       3.531  12.162   0.952  0.00  0.00    -0.083 Cl
BRANCH   6  13
ATOM     13  N   UNL     1       6.078   7.833  -0.023  0.00  0.00    -0.356 N 
ATOM     14  H   UNL     1       6.969   8.445  -0.225  0.00  0.00    +0.142 HD
ATOM     15  H   UNL     1       6.132   6.737  -0.109  0.00  0.00    +0.142 HD
ENDBRANCH   6  13
ENDBRANCH   3   5
BRANCH   1  16
ATOM     16  C   UNL     1       3.745   4.190  -0.836  0.00  0.00    +0.016 C 
ATOM     17  C   UNL     1       5.197   3.819  -0.528  0.00  0.00    -0.004 C 
BRANCH  16  23
ATOM     18  C   UNL     1       2.818   0.426  -3.863  0.00  0.00    +0.005 C 
ATOM     19  C   UNL     1       2.867   1.950  -3.732  0.00  0.00    -0.031 C 
ATOM     20  C   UNL     1       3.835   2.522  -4.771  0.00  0.00    -0.001 C 
ATOM     21  C   UNL     1       3.924   4.040  -4.594  0.00  0.00    -0.018 C 
ATOM     22  C   UNL     1       4.377   4.356  -3.167  0.00  0.00    -0.078 C 
ATOM     23  N   UNL     1       3.418   3.789  -2.210  0.00  0.00    +0.387 N 
ATOM     24  C   UNL     1       3.351   2.326  -2.330  0.00  0.00    -0.075 C 
ATOM     25  H   UNL     1       2.423   4.191  -2.454  0.00  0.00    -0.081 HD
ENDBRANCH  16  23
ENDBRANCH   1  16
TORSDOF 4
