REMARK  Name = ZINC55888002
REMARK  7 active torsions:
REMARK  status: ('A' for Active; 'I' for Inactive)
REMARK    1  A    between atoms: C_4  and  N_18
REMARK    2  A    between atoms: C_5  and  N_7
REMARK    3  A    between atoms: N_7  and  C_8
REMARK    4  A    between atoms: C_8  and  C_9
REMARK    5  A    between atoms: N_11  and  C_12
REMARK    6  A    between atoms: C_12  and  C_13
REMARK    7  A    between atoms: C_21  and  O_24
REMARK                            x       y       z     vdW  Elec       q    Type
REMARK                         _______ _______ _______ _____ _____    ______ ____
ROOT
ATOM      1  C   UNL     1       0.011   1.423   0.025  0.00  0.00    +0.002 A 
ATOM      2  C   UNL     1       1.224   2.086  -0.008  0.00  0.00    +0.002 A 
ATOM      3  C   UNL     1       2.406   1.369  -0.039  0.00  0.00    +0.023 A 
ATOM      4  C   UNL     1       2.379  -0.012  -0.037  0.00  0.00    +0.035 A 
ATOM      5  C   UNL     1       1.162  -0.680  -0.003  0.00  0.00    +0.047 A 
ATOM      6  C   UNL     1      -0.024   0.043   0.028  0.00  0.00    +0.025 A 
ENDROOT
BRANCH   4   7
ATOM      7  N   UNL     1       3.574  -0.735  -0.069  0.00  0.00    -0.392 NA
ATOM      8  C   UNL     1       4.262  -0.486  -1.342  0.00  0.00    +0.087 C 
ATOM      9  C   UNL     1       5.530  -1.338  -1.416  0.00  0.00    +0.048 C 
ATOM     10  C   UNL     1       6.456  -0.968  -0.253  0.00  0.00    +0.117 C 
ATOM     11  C   UNL     1       5.704  -1.162   1.066  0.00  0.00    +0.048 C 
ATOM     12  C   UNL     1       4.428  -0.317   1.049  0.00  0.00    +0.087 C 
ATOM     13  H   UNL     1       3.372  -1.720   0.014  0.00  0.00    +0.126 HD
BRANCH  10  14
ATOM     14  O   UNL     1       7.609  -1.812  -0.274  0.00  0.00    -0.392 OA
ATOM     15  H   UNL     1       8.240  -1.633   0.437  0.00  0.00    +0.210 HD
ENDBRANCH  10  14
ENDBRANCH   4   7
BRANCH   5  16
ATOM     16  N   UNL     1       1.131  -2.077  -0.001  0.00  0.00    -0.334 N 
ATOM     17  H   UNL     1       1.957  -2.580   0.060  0.00  0.00    +0.147 HD
BRANCH  16  18
ATOM     18  C   UNL     1      -0.151  -2.781  -0.090  0.00  0.00    +0.197 C 
BRANCH  18  19
ATOM     19  C   UNL     1       0.090  -4.268  -0.068  0.00  0.00    +0.230 C 
ATOM     20  O   UNL     1       1.221  -4.698   0.014  0.00  0.00    -0.274 OA
ATOM     21  N   UNL     1      -0.951  -5.121  -0.140  0.00  0.00    -0.309 N 
ATOM     22  H   UNL     1      -1.856  -4.777  -0.206  0.00  0.00    +0.149 HD
BRANCH  21  23
ATOM     23  C   UNL     1      -0.716  -6.567  -0.119  0.00  0.00    +0.146 C 
BRANCH  23  24
ATOM     24  C   UNL     1      -2.035  -7.291  -0.211  0.00  0.00    +0.007 A 
ATOM     25  C   UNL     1      -2.703  -7.710  -1.313  0.00  0.00    +0.013 A 
ATOM     26  C   UNL     1      -3.912  -8.363  -1.157  0.00  0.00    +0.008 A 
ATOM     27  C   UNL     1      -4.392  -8.565   0.095  0.00  0.00    +0.045 A 
ATOM     28  S   UNL     1      -3.117  -7.828   1.104  0.00  0.00    -0.100 S 
ENDBRANCH  23  24
ENDBRANCH  21  23
ENDBRANCH  18  19
ENDBRANCH  16  18
ENDBRANCH   5  16
TORSDOF 7
