REMARK  Name = ZINC43737405
REMARK  7 active torsions:
REMARK  status: ('A' for Active; 'I' for Inactive)
REMARK    1  A    between atoms: C_1  and  C_2
REMARK    2  A    between atoms: C_5  and  O_30
REMARK    3  A    between atoms: C_18  and  C_29
REMARK    4  A    between atoms: C_23  and  N_25
REMARK    5  A    between atoms: N_25  and  C_26
REMARK    6  A    between atoms: C_26  and  C_27
REMARK    7  A    between atoms: C_27  and  O_28
REMARK                            x       y       z     vdW  Elec       q    Type
REMARK                         _______ _______ _______ _____ _____    ______ ____
ROOT
ATOM      1  C   UNL     1      -0.067   1.575  -0.170  0.00  0.00    +0.012 C 
ATOM      2  C   UNL     1      -0.026   0.043  -0.161  0.00  0.00    -0.026 C 
ATOM      3  C   UNL     1       0.640  -0.453  -1.442  0.00  0.00    +0.010 C 
ATOM      4  C   UNL     1       2.090   0.028  -1.508  0.00  0.00    +0.032 C 
ATOM      5  C   UNL     1       2.871  -0.440  -0.282  0.00  0.00    +0.115 C 
ATOM      6  C   UNL     1       2.198   0.055   1.000  0.00  0.00    +0.035 C 
ATOM      7  C   UNL     1       0.760  -0.461   1.048  0.00  0.00    -0.002 C 
ATOM      8  C   UNL     1       0.087  -0.069   2.359  0.00  0.00    +0.004 C 
ATOM      9  C   UNL     1      -1.335  -0.646   2.412  0.00  0.00    +0.004 C 
ATOM     10  C   UNL     1      -1.583  -1.417   1.120  0.00  0.00    -0.004 C 
ATOM     11  C   UNL     1      -1.469  -0.463  -0.069  0.00  0.00    -0.001 C 
ATOM     12  C   UNL     1      -1.934  -1.149  -1.341  0.00  0.00    +0.005 C 
ATOM     13  C   UNL     1      -3.431  -1.495  -1.278  0.00  0.00    +0.005 C 
ATOM     14  C   UNL     1      -3.921  -1.572   0.141  0.00  0.00    -0.041 C 
ATOM     15  C   UNL     1      -2.868  -2.185   1.083  0.00  0.00    -0.003 C 
ATOM     16  C   UNL     1      -3.650  -2.311   2.398  0.00  0.00    +0.003 C 
ATOM     17  C   UNL     1      -5.066  -2.746   1.931  0.00  0.00    -0.015 C 
ATOM     18  C   UNL     1      -5.114  -2.517   0.398  0.00  0.00    -0.065 C 
ATOM     19  C   UNL     1      -4.381  -0.187   0.622  0.00  0.00    +0.010 C 
ENDROOT
BRANCH  18  20
ATOM     20  N   UNL     1      -4.954  -3.789  -0.308  0.00  0.00    +0.383 N 
ATOM     21  H   UNL     1      -4.810  -3.612  -1.291  0.00  0.00    -0.085 HD
ATOM     22  H   UNL     1      -4.158  -4.283   0.066  0.00  0.00    -0.085 HD
BRANCH  20  23
ATOM     23  C   UNL     1      -6.164  -4.603  -0.130  0.00  0.00    -0.054 C 
BRANCH  23  24
ATOM     24  C   UNL     1      -5.998  -5.933  -0.867  0.00  0.00    +0.137 C 
BRANCH  24  25
ATOM     25  O   UNL     1      -4.944  -6.684  -0.262  0.00  0.00    -0.397 OA
ATOM     26  H   UNL     1      -4.782  -7.541  -0.679  0.00  0.00    +0.209 HD
ENDBRANCH  24  25
ENDBRANCH  23  24
ENDBRANCH  20  23
ENDBRANCH  18  20
BRANCH   5  27
ATOM     27  O   UNL     1       2.933  -1.868  -0.269  0.00  0.00    -0.392 OA
ATOM     28  H   UNL     1       3.367  -2.249  -1.045  0.00  0.00    +0.210 HD
ENDBRANCH   5  27
TORSDOF 5
