REMARK  Name = ZINC32733794
REMARK  15 active torsions:
REMARK  status: ('A' for Active; 'I' for Inactive)
REMARK    1  A    between atoms: C_1  and  C_2
REMARK    2  A    between atoms: C_2  and  C_3
REMARK    3  A    between atoms: C_6  and  C_9
REMARK    4  A    between atoms: C_9  and  C_11
REMARK    5  A    between atoms: C_9  and  N_31
REMARK    6  A    between atoms: C_11  and  N_12
REMARK    7  A    between atoms: C_13  and  C_15
REMARK    8  A    between atoms: C_15  and  C_16
REMARK    9  A    between atoms: C_16  and  N_17
REMARK   10  A    between atoms: N_17  and  C_18
REMARK   11  A    between atoms: C_21  and  S_27
REMARK   12  A    between atoms: C_23  and  N_24
REMARK   13  A    between atoms: S_27  and  N_30
REMARK   14  A    between atoms: N_31  and  C_32
REMARK   15  A    between atoms: N_31  and  C_33
REMARK                            x       y       z     vdW  Elec       q    Type
REMARK                         _______ _______ _______ _____ _____    ______ ____
ROOT
ATOM      1  C   UNL     1      -9.299  -5.471  -1.655  0.00  0.00    +0.114 C 
ENDROOT
BRANCH   1   3
ATOM      2  N   UNL     1      -7.693  -3.616  -1.967  0.00  0.00    -0.316 N 
ATOM      3  C   UNL     1      -7.900  -4.941  -1.833  0.00  0.00    +0.214 C 
ATOM      4  O   UNL     1      -6.959  -5.706  -1.854  0.00  0.00    -0.276 OA
ATOM      5  H   UNL     1      -8.445  -3.003  -1.950  0.00  0.00    +0.149 HD
BRANCH   2   6
ATOM      6  C   UNL     1      -6.333  -3.100  -2.140  0.00  0.00    +0.093 C 
BRANCH   6   7
ATOM      7  C   UNL     1      -6.363  -1.570  -2.136  0.00  0.00    -0.021 C 
BRANCH   7  11
ATOM      8  C   UNL     1      -7.516  -0.182   1.736  0.00  0.00    -0.048 A 
ATOM      9  C   UNL     1      -8.445  -0.231   0.714  0.00  0.00    +0.004 A 
ATOM     10  C   UNL     1      -8.072  -0.680  -0.539  0.00  0.00    +0.002 A 
ATOM     11  C   UNL     1      -6.769  -1.080  -0.770  0.00  0.00    -0.059 A 
ATOM     12  C   UNL     1      -5.840  -1.031   0.252  0.00  0.00    +0.002 A 
ATOM     13  C   UNL     1      -6.212  -0.578   1.504  0.00  0.00    +0.004 A 
BRANCH   8  15
ATOM     14  C   UNL     1      -7.719   1.821   3.183  0.00  0.00    +0.009 C 
ATOM     15  C   UNL     1      -7.922   0.307   3.102  0.00  0.00    +0.032 C 
ENDBRANCH   8  15
ENDBRANCH   7  11
BRANCH   7  16
ATOM     16  N   UNL     1      -5.028  -1.053  -2.464  0.00  0.00    +0.382 N 
ATOM     17  C   UNL     1      -4.655  -1.485  -3.818  0.00  0.00    -0.096 C 
ATOM     18  C   UNL     1      -5.043   0.414  -2.405  0.00  0.00    -0.096 C 
ATOM     19  H   UNL     1      -4.356  -1.410  -1.801  0.00  0.00    -0.082 HD
ENDBRANCH   7  16
ENDBRANCH   6   7
ENDBRANCH   2   6
ENDBRANCH   1   3
BRANCH   1  20
ATOM     20  C   UNL     1      -9.254  -6.995  -1.526  0.00  0.00    +0.111 C 
BRANCH  20  21
ATOM     21  N   UNL     1     -10.615  -7.511  -1.353  0.00  0.00    -0.342 N 
ATOM     22  H   UNL     1     -11.367  -6.898  -1.336  0.00  0.00    +0.146 HD
BRANCH  21  23
ATOM     23  C   UNL     1     -10.828  -8.884  -1.213  0.00  0.00    +0.058 A 
ATOM     24  C   UNL     1      -9.768  -9.771  -1.351  0.00  0.00    +0.027 A 
ATOM     25  C   UNL     1      -9.983 -11.128  -1.212  0.00  0.00    +0.030 A 
ATOM     26  C   UNL     1     -11.252 -11.604  -0.935  0.00  0.00    +0.107 A 
ATOM     27  C   UNL     1     -12.309 -10.724  -0.798  0.00  0.00    +0.063 A 
ATOM     28  C   UNL     1     -12.100  -9.365  -0.930  0.00  0.00    +0.149 A 
BRANCH  28  29
ATOM     29  N   UNL     1     -13.232  -8.423  -0.777  0.00  0.00    +0.058 N 
ATOM     30  O   UNL     1     -13.066  -7.365  -0.216  0.00  0.00    -0.126 OA
ATOM     31  O   UNL     1     -14.322  -8.711  -1.213  0.00  0.00    -0.126 OA
ENDBRANCH  28  29
BRANCH  26  32
ATOM     32  S   UNL     1     -11.521 -13.336  -0.758  0.00  0.00    +0.056 S 
ATOM     33  O   UNL     1     -12.895 -13.565  -1.042  0.00  0.00    -0.153 OA
ATOM     34  O   UNL     1     -10.478 -13.985  -1.472  0.00  0.00    -0.153 OA
BRANCH  32  35
ATOM     35  N   UNL     1     -11.301 -13.705   0.841  0.00  0.00    -0.204 NA
ATOM     36  H   UNL     1     -11.790 -14.441   1.241  0.00  0.00    +0.144 HD
ATOM     37  H   UNL     1     -10.682 -13.186   1.378  0.00  0.00    +0.144 HD
ENDBRANCH  32  35
ENDBRANCH  26  32
ENDBRANCH  21  23
ENDBRANCH  20  21
ENDBRANCH   1  20
TORSDOF 12
