REMARK  Name = ZINC34388550
REMARK  13 active torsions:
REMARK  status: ('A' for Active; 'I' for Inactive)
REMARK    1  A    between atoms: C_1  and  O_2
REMARK    2  A    between atoms: O_2  and  C_3
REMARK    3  A    between atoms: C_5  and  C_12
REMARK    4  A    between atoms: C_7  and  O_10
REMARK    5  A    between atoms: C_8  and  O_9
REMARK    6  A    between atoms: O_10  and  C_11
REMARK    7  A    between atoms: N_20  and  C_23
REMARK    8  A    between atoms: C_29  and  C_31
REMARK    9  A    between atoms: C_29  and  C_36
REMARK   10  A    between atoms: C_31  and  C_32
REMARK   11  A    between atoms: C_32  and  C_33
REMARK   12  A    between atoms: C_33  and  C_34
REMARK   13  A    between atoms: C_34  and  N_35
REMARK                            x       y       z     vdW  Elec       q    Type
REMARK                         _______ _______ _______ _____ _____    ______ ____
ROOT
ATOM      1  C   UNL     1       2.462   0.340   4.203  0.00  0.00    -0.026 C 
ATOM      2  C   UNL     1       3.976   0.321   4.076  0.00  0.00    +0.077 C 
ATOM      3  C   UNL     1       4.261  -1.003   4.883  0.00  0.00    +0.086 C 
ATOM      4  C   UNL     1       5.614  -1.303   4.484  0.00  0.00    +0.225 C 
ATOM      5  O   UNL     1       6.483  -1.818   5.155  0.00  0.00    -0.275 OA
ATOM      6  N   UNL     1       5.704  -0.880   3.181  0.00  0.00    -0.239 N 
ATOM      7  C   UNL     1       4.649  -0.082   2.801  0.00  0.00    +0.225 C 
ATOM      8  O   UNL     1       4.324   0.229   1.675  0.00  0.00    -0.275 OA
ATOM      9  C   UNL     1       3.463  -0.795   6.103  0.00  0.00    +0.048 C 
ATOM     10  N   UNL     1       2.163  -0.259   5.539  0.00  0.00    +0.395 N 
ATOM     11  H   UNL     1       1.793   0.448   6.156  0.00  0.00    -0.083 HD
ATOM     12  H   UNL     1       1.493  -1.007   5.435  0.00  0.00    -0.083 HD
ENDROOT
BRANCH   1  15
ATOM     13  C   UNL     1       0.810  -0.630   0.946  0.00  0.00    +0.165 A 
ATOM     14  C   UNL     1       1.385   0.127   1.955  0.00  0.00    +0.051 A 
ATOM     15  C   UNL     1       1.837  -0.486   3.109  0.00  0.00    -0.053 A 
ATOM     16  C   UNL     1       1.717  -1.855   3.262  0.00  0.00    +0.051 A 
ATOM     17  C   UNL     1       1.143  -2.619   2.257  0.00  0.00    +0.165 A 
ATOM     18  C   UNL     1       0.682  -2.006   1.098  0.00  0.00    +0.201 A 
BRANCH  13  20
ATOM     19  C   UNL     1       0.530   1.391  -0.277  0.00  0.00    +0.277 C 
ATOM     20  O   UNL     1       0.366  -0.026  -0.189  0.00  0.00    -0.491 OA
ENDBRANCH  13  20
BRANCH  18  21
ATOM     21  O   UNL     1       0.113  -2.751   0.112  0.00  0.00    -0.501 OA
ATOM     22  H   UNL     1       0.742  -3.081  -0.545  0.00  0.00    +0.292 HD
ENDBRANCH  18  21
BRANCH  17  23
ATOM     23  O   UNL     1       1.026  -3.965   2.408  0.00  0.00    -0.491 OA
ATOM     24  C   UNL     1       1.516  -4.526   3.627  0.00  0.00    +0.277 C 
ENDBRANCH  17  23
ENDBRANCH   1  15
BRANCH   6  25
ATOM     25  C   UNL     1       6.812  -1.230   2.289  0.00  0.00    +0.084 C 
ATOM     26  C   UNL     1       7.514   0.046   1.822  0.00  0.00    +0.023 C 
ATOM     27  C   UNL     1       8.671  -0.319   0.890  0.00  0.00    +0.002 C 
ATOM     28  C   UNL     1       8.129  -1.077  -0.323  0.00  0.00    +0.000 C 
ATOM     29  C   UNL     1       7.428  -2.354   0.144  0.00  0.00    +0.002 C 
ATOM     30  C   UNL     1       6.270  -1.988   1.076  0.00  0.00    +0.023 C 
ENDBRANCH   6  25
BRANCH   9  31
ATOM     31  C   UNL     1       4.126   0.206   7.013  0.00  0.00    +0.346 C 
ATOM     32  O   UNL     1       3.544   1.234   7.314  0.00  0.00    -0.248 OA
ATOM     33  O   UNL     1       5.244  -0.012   7.448  0.00  0.00    -0.248 OA
ENDBRANCH   9  31
BRANCH   9  34
ATOM     34  C   UNL     1       3.226  -2.120   6.830  0.00  0.00    -0.001 C 
BRANCH  34  35
ATOM     35  C   UNL     1       2.293  -1.889   8.020  0.00  0.00    -0.003 C 
BRANCH  35  36
ATOM     36  C   UNL     1       2.056  -3.214   8.748  0.00  0.00    -0.020 C 
BRANCH  36  37
ATOM     37  C   UNL     1       1.123  -2.983   9.938  0.00  0.00    -0.086 C 
BRANCH  37  38
ATOM     38  N   UNL     1       0.895  -4.256  10.636  0.00  0.00    +0.378 N 
ATOM     39  H   UNL     1       0.474  -4.917  10.001  0.00  0.00    -0.090 HD
ATOM     40  H   UNL     1       1.776  -4.620  10.966  0.00  0.00    -0.090 HD
ATOM     41  H   UNL     1       0.280  -4.103  11.421  0.00  0.00    -0.090 HD
ENDBRANCH  37  38
ENDBRANCH  36  37
ENDBRANCH  35  36
ENDBRANCH  34  35
ENDBRANCH   9  34
TORSDOF 11
