REMARK  Name = ZINC14980846
REMARK  11 active torsions:
REMARK  status: ('A' for Active; 'I' for Inactive)
REMARK    1  A    between atoms: C_1  and  O_2
REMARK    2  A    between atoms: O_2  and  C_3
REMARK    3  A    between atoms: C_6  and  S_9
REMARK    4  A    between atoms: S_9  and  C_10
REMARK    5  A    between atoms: C_13  and  C_27
REMARK    6  A    between atoms: C_16  and  C_17
REMARK    7  A    between atoms: C_16  and  N_67
REMARK    8  A    between atoms: C_22  and  O_23
REMARK    9  A    between atoms: O_23  and  C_24
REMARK   10  A    between atoms: C_24  and  C_25
REMARK   11  A    between atoms: N_29  and  C_30
REMARK                            x       y       z     vdW  Elec       q    Type
REMARK                         _______ _______ _______ _____ _____    ______ ____
ROOT
ATOM      1  C   UNL     1      -0.693   8.549   0.084  0.00  0.00    +0.034 C 
ATOM      2  C   UNL     1      -0.657  10.072   0.326  0.00  0.00    +0.006 C 
ATOM      3  C   UNL     1      -1.681  10.660  -0.669  0.00  0.00    +0.021 C 
ATOM      4  C   UNL     1      -1.735   8.345  -1.036  0.00  0.00    -0.063 C 
ATOM      5  N   UNL     1      -1.765   9.645  -1.716  0.00  0.00    +0.391 N 
ATOM      6  H   UNL     1      -0.962   9.729  -2.350  0.00  0.00    -0.080 HD
ENDROOT
BRANCH   3   7
ATOM      7  C   UNL     1      -1.185  11.972  -1.219  0.00  0.00    +0.200 C 
ATOM      8  O   UNL     1      -0.597  12.001  -2.280  0.00  0.00    -0.278 OA
ATOM      9  N   UNL     1      -1.395  13.113  -0.534  0.00  0.00    -0.312 N 
ATOM     10  H   UNL     1      -1.800  13.082   0.347  0.00  0.00    +0.149 HD
BRANCH   9  11
ATOM     11  C   UNL     1      -1.011  14.400  -1.119  0.00  0.00    +0.095 C 
ATOM     12  C   UNL     1       0.466  14.693  -0.806  0.00  0.00    +0.046 C 
ATOM     13  C   UNL     1       0.792  16.170  -1.133  0.00  0.00    +0.168 C 
ATOM     14  S   UNL     1      -0.829  17.004  -0.894  0.00  0.00    -0.029 S 
ATOM     15  O   UNL     1      -1.255  17.552  -2.134  0.00  0.00    -0.174 OA
ATOM     16  O   UNL     1      -0.754  17.841   0.252  0.00  0.00    -0.174 OA
ATOM     17  C   UNL     1      -1.871  15.537  -0.497  0.00  0.00    +0.188 C 
ENDBRANCH   9  11
ENDBRANCH   3   7
BRANCH   1  18
ATOM     18  S   UNL     1      -1.210   7.683   1.591  0.00  0.00    -0.124 S 
BRANCH  18  22
ATOM     19  C   UNL     1      -1.012   3.300   0.462  0.00  0.00    +0.120 A 
ATOM     20  C   UNL     1      -0.671   4.271  -0.468  0.00  0.00    +0.047 A 
ATOM     21  C   UNL     1      -0.736   5.607  -0.126  0.00  0.00    +0.018 A 
ATOM     22  C   UNL     1      -1.134   5.979   1.152  0.00  0.00    +0.008 A 
ATOM     23  C   UNL     1      -1.470   5.005   2.084  0.00  0.00    +0.018 A 
ATOM     24  C   UNL     1      -1.410   3.669   1.738  0.00  0.00    +0.047 A 
BRANCH  19  26
ATOM     25  C   UNL     1      -0.534   1.675  -1.208  0.00  0.00    +0.277 C 
ATOM     26  O   UNL     1      -0.952   1.984   0.123  0.00  0.00    -0.495 OA
ENDBRANCH  19  26
ENDBRANCH  18  22
ENDBRANCH   1  18
BRANCH   5  27
ATOM     27  C   UNL     1      -3.030   9.795  -2.502  0.00  0.00    -0.038 C 
BRANCH  27  28
ATOM     28  C   UNL     1      -3.081   8.768  -3.603  0.00  0.00    -0.022 A 
ATOM     29  C   UNL     1      -2.671   9.101  -4.880  0.00  0.00    +0.005 A 
ATOM     30  C   UNL     1      -2.717   8.159  -5.890  0.00  0.00    +0.000 A 
ATOM     31  C   UNL     1      -3.173   6.880  -5.626  0.00  0.00    +0.004 A 
ATOM     32  C   UNL     1      -3.583   6.542  -4.352  0.00  0.00    +0.046 A 
ATOM     33  C   UNL     1      -3.534   7.484  -3.335  0.00  0.00    +0.122 A 
BRANCH  33  34
ATOM     34  O   UNL     1      -3.932   7.152  -2.079  0.00  0.00    -0.488 OA
BRANCH  34  35
ATOM     35  C   UNL     1      -4.311   5.792  -1.857  0.00  0.00    +0.256 C 
BRANCH  35  36
ATOM     36  C   UNL     1      -4.788   5.629  -0.436  0.00  0.00    +0.006 C 
ATOM     37  C   UNL     1      -5.905   4.991  -0.190  0.00  0.00    +0.007 C 
ENDBRANCH  35  36
ENDBRANCH  34  35
ENDBRANCH  33  34
ENDBRANCH  27  28
ENDBRANCH   5  27
TORSDOF 10
