REMARK  Name = ZINC63614388
REMARK  7 active torsions:
REMARK  status: ('A' for Active; 'I' for Inactive)
REMARK    1  A    between atoms: C_1  and  O_2
REMARK    2  A    between atoms: O_2  and  C_3
REMARK    3  A    between atoms: C_6  and  C_25
REMARK    4  A    between atoms: C_8  and  C_9
REMARK    5  A    between atoms: C_9  and  N_10
REMARK    6  A    between atoms: N_13  and  C_16
REMARK    7  A    between atoms: C_19  and  N_22
REMARK                            x       y       z     vdW  Elec       q    Type
REMARK                         _______ _______ _______ _____ _____    ______ ____
ROOT
ATOM      1  C   UNL     1      -1.204  -0.628   0.000  0.00  0.00    +0.124 A 
ATOM      2  C   UNL     1      -2.372   0.120   0.004  0.00  0.00    +0.046 A 
ATOM      3  C   UNL     1      -3.598  -0.515  -0.001  0.00  0.00    +0.009 A 
ATOM      4  C   UNL     1      -3.662  -1.897  -0.009  0.00  0.00    -0.028 A 
ATOM      5  C   UNL     1      -2.499  -2.645  -0.012  0.00  0.00    +0.013 A 
ATOM      6  C   UNL     1      -1.270  -2.014  -0.013  0.00  0.00    +0.009 A 
ENDROOT
BRANCH   4   7
ATOM      7  C   UNL     1      -5.001  -2.587  -0.013  0.00  0.00    +0.111 C 
ATOM      8  C   UNL     1      -5.582  -2.598   1.403  0.00  0.00    +0.128 C 
ATOM      9  C   UNL     1      -6.996  -3.154   1.280  0.00  0.00    -0.035 C 
ATOM     10  C   UNL     1      -7.074  -4.169   2.129  0.00  0.00    -0.001 A 
ATOM     11  C   UNL     1      -8.197  -5.037   2.520  0.00  0.00    +0.010 A 
ATOM     12  C   UNL     1      -7.915  -6.010   3.426  0.00  0.00    +0.001 A 
ATOM     13  C   UNL     1      -6.645  -6.203   3.978  0.00  0.00    +0.002 A 
ATOM     14  C   UNL     1      -5.557  -5.449   3.681  0.00  0.00    +0.026 A 
ATOM     15  C   UNL     1      -5.729  -4.390   2.742  0.00  0.00    +0.043 A 
ATOM     16  N   UNL     1      -4.861  -3.500   2.300  0.00  0.00    -0.376 N 
ATOM     17  C   UNL     1      -7.974  -2.612   0.266  0.00  0.00    +0.048 C 
ATOM     18  C   UNL     1      -7.214  -2.546  -1.071  0.00  0.00    +0.086 C 
ATOM     19  N   UNL     1      -5.932  -1.859  -0.890  0.00  0.00    -0.307 NA
ATOM     20  H   UNL     1      -6.071  -0.914  -0.565  0.00  0.00    +0.123 HD
ATOM     21  H   UNL     1      -3.918  -3.449   2.519  0.00  0.00    +0.160 HD
ENDBRANCH   4   7
BRANCH   1  23
ATOM     22  C   UNL     1      -0.003   1.424   0.018  0.00  0.00    +0.277 C 
ATOM     23  O   UNL     1       0.004  -0.005   0.004  0.00  0.00    -0.495 OA
ENDBRANCH   1  23
BRANCH   6  24
ATOM     24  C   UNL     1      -0.004  -2.830  -0.023  0.00  0.00    +0.123 C 
BRANCH  24  25
ATOM     25  N   UNL     1       0.600  -2.781  -1.361  0.00  0.00    -0.295 NA
ATOM     26  C   UNL     1      -0.259  -3.444  -2.351  0.00  0.00    +0.103 C 
ATOM     27  C   UNL     1       0.313  -3.215  -3.754  0.00  0.00    +0.120 C 
ATOM     28  N   UNL     1       1.719  -3.647  -3.761  0.00  0.00    -0.327 N 
ATOM     29  C   UNL     1       2.612  -3.130  -2.713  0.00  0.00    +0.120 C 
ATOM     30  C   UNL     1       1.949  -3.362  -1.351  0.00  0.00    +0.103 C 
BRANCH  28  31
ATOM     31  C   UNL     1       2.194  -4.526  -4.738  0.00  0.00    +0.030 A 
ATOM     32  C   UNL     1       1.314  -5.093  -5.651  0.00  0.00    +0.025 A 
ATOM     33  C   UNL     1       1.786  -5.961  -6.616  0.00  0.00    +0.034 A 
ATOM     34  C   UNL     1       3.134  -6.266  -6.673  0.00  0.00    +0.126 A 
ATOM     35  C   UNL     1       4.013  -5.704  -5.765  0.00  0.00    +0.034 A 
ATOM     36  C   UNL     1       3.547  -4.831  -4.801  0.00  0.00    +0.025 A 
BRANCH  34  37
ATOM     37  N   UNL     1       3.637  -7.197  -7.707  0.00  0.00    +0.056 N 
ATOM     38  O   UNL     1       2.870  -7.690  -8.501  0.00  0.00    -0.126 OA
ATOM     39  O   UNL     1       4.815  -7.465  -7.759  0.00  0.00    -0.126 OA
ENDBRANCH  34  37
ENDBRANCH  28  31
ENDBRANCH  24  25
ENDBRANCH   6  24
TORSDOF 6
