REMARK  Name = ZINC65374032
REMARK  4 active torsions:
REMARK  status: ('A' for Active; 'I' for Inactive)
REMARK    1  A    between atoms: C_6  and  C_7
REMARK    2  A    between atoms: C_19  and  C_21
REMARK    3  A    between atoms: C_21  and  C_22
REMARK    4  A    between atoms: C_22  and  C_23
REMARK                            x       y       z     vdW  Elec       q    Type
REMARK                         _______ _______ _______ _____ _____    ______ ____
ROOT
ATOM      1  C   UNL     1      -1.293  -0.775   0.010  0.00  0.00    +0.038 C 
ATOM      2  C   UNL     1      -1.350  -1.683   1.250  0.00  0.00    +0.036 C 
ATOM      3  C   UNL     1      -2.222  -2.877   0.916  0.00  0.00    +0.110 C 
ATOM      4  C   UNL     1      -3.634  -2.399   0.536  0.00  0.00    +0.180 C 
ATOM      5  C   UNL     1      -3.765  -2.178  -0.927  0.00  0.00    +0.235 C 
ATOM      6  O   UNL     1      -4.849  -2.350  -1.441  0.00  0.00    -0.274 OA
ATOM      7  N   UNL     1      -2.745  -1.799  -1.703  0.00  0.00    -0.313 N 
ATOM      8  C   UNL     1      -1.373  -1.667  -1.234  0.00  0.00    +0.112 C 
ATOM      9  N   UNL     1      -4.458  -3.500   1.055  0.00  0.00    -0.321 N 
ATOM     10  C   UNL     1      -3.738  -4.051   2.090  0.00  0.00    +0.069 C 
ATOM     11  N   UNL     1      -2.464  -3.767   2.053  0.00  0.00    -0.371 N 
ATOM     12  H   UNL     1      -2.929  -1.603  -2.635  0.00  0.00    +0.149 HD
ATOM     13  H   UNL     1      -5.329  -3.780   0.734  0.00  0.00    +0.148 HD
ATOM     14  H   UNL     1      -1.790  -4.083   2.673  0.00  0.00    +0.161 HD
ENDROOT
BRANCH   1  20
ATOM     15  C   UNL     1      -0.017   1.378   0.010  0.00  0.00    +0.007 A 
ATOM     16  C   UNL     1       1.170   2.086   0.002  0.00  0.00    +0.038 A 
ATOM     17  C   UNL     1       2.379   1.410  -0.013  0.00  0.00    +0.123 A 
ATOM     18  C   UNL     1       2.396   0.026  -0.021  0.00  0.00    +0.038 A 
ATOM     19  C   UNL     1       1.208  -0.680  -0.013  0.00  0.00    +0.007 A 
ATOM     20  C   UNL     1       0.002  -0.004   0.002  0.00  0.00    -0.043 A 
ATOM     21  F   UNL     1       3.540   2.101  -0.021  0.00  0.00    -0.205 F 
ENDBRANCH   1  20
BRANCH  10  22
ATOM     22  C   UNL     1      -4.358  -4.914   3.159  0.00  0.00    +0.075 C 
BRANCH  22  23
ATOM     23  C   UNL     1      -4.314  -6.379   2.721  0.00  0.00    +0.063 C 
BRANCH  23  24
ATOM     24  C   UNL     1      -4.934  -7.242   3.790  0.00  0.00    +0.051 A 
ATOM     25  C   UNL     1      -5.952  -8.091   3.512  0.00  0.00    +0.071 A 
ATOM     26  S   UNL     1      -6.240  -8.804   5.123  0.00  0.00    -0.061 S 
ATOM     27  C   UNL     1      -5.054  -7.960   5.968  0.00  0.00    +0.156 A 
ATOM     28  N   UNL     1      -4.504  -7.207   5.039  0.00  0.00    -0.230 NA
ATOM     29  N   UNL     1      -4.732  -8.042   7.313  0.00  0.00    -0.338 N 
ATOM     30  H   UNL     1      -5.219  -8.649   7.893  0.00  0.00    +0.144 HD
ATOM     31  H   UNL     1      -4.019  -7.493   7.676  0.00  0.00    +0.144 HD
ENDBRANCH  23  24
ENDBRANCH  22  23
ENDBRANCH  10  22
TORSDOF 4
