REMARK  Name = ZINC20265801
REMARK  6 active torsions:
REMARK  status: ('A' for Active; 'I' for Inactive)
REMARK    1  A    between atoms: C_1  and  O_2
REMARK    2  A    between atoms: O_2  and  C_3
REMARK    3  A    between atoms: C_8  and  N_9
REMARK    4  A    between atoms: C_13  and  N_14
REMARK    5  A    between atoms: N_14  and  C_15
REMARK    6  A    between atoms: C_21  and  N_23
REMARK                            x       y       z     vdW  Elec       q    Type
REMARK                         _______ _______ _______ _____ _____    ______ ____
ROOT
ATOM      1  N   UNL     1      -0.019  -2.478   0.104  0.00  0.00    -0.214 N 
ATOM      2  C   UNL     1      -1.227  -3.037  -0.113  0.00  0.00    +0.263 C 
ATOM      3  O   UNL     1      -1.792  -2.908  -1.183  0.00  0.00    -0.269 OA
ATOM      4  C   UNL     1      -1.844  -3.808   0.981  0.00  0.00    +0.113 C 
ATOM      5  C   UNL     1      -3.080  -4.409   0.831  0.00  0.00    +0.086 C 
ATOM      6  C   UNL     1      -1.086  -3.911   2.240  0.00  0.00    +0.256 C 
ATOM      7  O   UNL     1      -1.530  -4.532   3.188  0.00  0.00    -0.270 OA
ATOM      8  N   UNL     1       0.114  -3.299   2.314  0.00  0.00    -0.263 N 
ATOM      9  C   UNL     1       0.617  -2.617   1.276  0.00  0.00    +0.151 C 
ATOM     10  S   UNL     1       2.151  -1.879   1.458  0.00  0.00    -0.018 S 
ATOM     11  H   UNL     1       0.626  -3.357   3.136  0.00  0.00    +0.157 HD
ENDROOT
BRANCH   1  17
ATOM     12  C   UNL     1       0.361  -0.370  -1.026  0.00  0.00    +0.142 A 
ATOM     13  C   UNL     1       0.968   0.355  -2.038  0.00  0.00    +0.047 A 
ATOM     14  C   UNL     1       1.794  -0.281  -2.945  0.00  0.00    +0.004 A 
ATOM     15  C   UNL     1       2.017  -1.643  -2.846  0.00  0.00    +0.002 A 
ATOM     16  C   UNL     1       1.415  -2.373  -1.839  0.00  0.00    +0.027 A 
ATOM     17  C   UNL     1       0.589  -1.740  -0.922  0.00  0.00    +0.085 A 
BRANCH  12  19
ATOM     18  C   UNL     1      -0.640   1.662  -0.301  0.00  0.00    +0.277 C 
ATOM     19  O   UNL     1      -0.452   0.255  -0.133  0.00  0.00    -0.493 OA
ENDBRANCH  12  19
ENDBRANCH   1  17
BRANCH   5  20
ATOM     20  N   UNL     1      -3.545  -5.241   1.785  0.00  0.00    -0.348 N 
ATOM     21  H   UNL     1      -2.980  -5.481   2.537  0.00  0.00    +0.146 HD
BRANCH  20  22
ATOM     22  C   UNL     1      -4.902  -5.783   1.687  0.00  0.00    +0.055 C 
ATOM     23  C   UNL     1      -4.889  -7.035   0.808  0.00  0.00    +0.020 C 
ATOM     24  C   UNL     1      -3.965  -8.085   1.429  0.00  0.00    +0.002 C 
ATOM     25  C   UNL     1      -4.472  -8.448   2.826  0.00  0.00    -0.001 C 
ATOM     26  C   UNL     1      -4.485  -7.196   3.705  0.00  0.00    -0.014 C 
ATOM     27  C   UNL     1      -5.409  -6.146   3.084  0.00  0.00    -0.055 C 
BRANCH  27  28
ATOM     28  N   UNL     1      -5.422  -4.944   3.928  0.00  0.00    +0.381 N 
ATOM     29  H   UNL     1      -6.031  -4.252   3.519  0.00  0.00    -0.090 HD
ATOM     30  H   UNL     1      -5.756  -5.183   4.850  0.00  0.00    -0.090 HD
ATOM     31  H   UNL     1      -4.487  -4.571   3.996  0.00  0.00    -0.090 HD
ENDBRANCH  27  28
ENDBRANCH  20  22
ENDBRANCH   5  20
TORSDOF 5
