REMARK  Name = ZINC21822236
REMARK  10 active torsions:
REMARK  status: ('A' for Active; 'I' for Inactive)
REMARK    1  A    between atoms: C_1  and  C_2
REMARK    2  A    between atoms: C_2  and  N_3
REMARK    3  A    between atoms: C_6  and  C_19
REMARK    4  A    between atoms: C_7  and  N_18
REMARK    5  A    between atoms: N_8  and  C_11
REMARK    6  A    between atoms: C_11  and  C_12
REMARK    7  A    between atoms: C_19  and  C_21
REMARK    8  A    between atoms: C_21  and  N_22
REMARK    9  A    between atoms: N_25  and  C_28
REMARK   10  A    between atoms: C_28  and  C_29
REMARK                            x       y       z     vdW  Elec       q    Type
REMARK                         _______ _______ _______ _____ _____    ______ ____
ROOT
ATOM      1  N   UNL     1       0.206   9.680  -1.987  0.00  0.00    -0.260 N 
ATOM      2  C   UNL     1      -0.025   8.485  -1.406  0.00  0.00    +0.269 A 
ATOM      3  O   UNL     1       0.476   8.209  -0.331  0.00  0.00    -0.267 OA
ATOM      4  C   UNL     1      -0.888   7.520  -2.099  0.00  0.00    +0.118 A 
ATOM      5  C   UNL     1      -1.441   7.903  -3.334  0.00  0.00    +0.116 A 
ATOM      6  N   UNL     1      -1.149   9.140  -3.833  0.00  0.00    -0.277 N 
ATOM      7  C   UNL     1      -0.350   9.989  -3.170  0.00  0.00    +0.334 A 
ATOM      8  O   UNL     1      -0.121  11.079  -3.657  0.00  0.00    -0.246 OA
ENDROOT
BRANCH   5   9
ATOM      9  N   UNL     1      -2.253   7.054  -4.020  0.00  0.00    -0.344 N 
ATOM     10  H   UNL     1      -2.681   7.362  -4.986  0.00  0.00    +0.144 HD
ATOM     11  H   UNL     1      -2.483   6.060  -3.610  0.00  0.00    +0.144 HD
ENDBRANCH   5   9
BRANCH   1  13
ATOM     12  C   UNL     1       0.222  11.541  -0.401  0.00  0.00    +0.027 C 
ATOM     13  C   UNL     1       1.069  10.655  -1.317  0.00  0.00    +0.126 C 
ENDBRANCH   1  13
BRANCH   4  14
ATOM     14  C   UNL     1      -1.159   6.253  -1.541  0.00  0.00    +0.155 C 
ATOM     15  O   UNL     1      -1.934   5.498  -2.095  0.00  0.00    -0.294 OA
BRANCH  14  16
ATOM     16  C   UNL     1      -0.489   5.835  -0.258  0.00  0.00    +0.003 C 
BRANCH  16  17
ATOM     17  N   UNL     1      -0.833   4.439   0.043  0.00  0.00    +0.386 N 
ATOM     18  C   UNL     1      -0.241   3.526  -0.946  0.00  0.00    -0.063 C 
ATOM     19  C   UNL     1      -0.688   2.094  -0.644  0.00  0.00    +0.066 C 
ATOM     20  N   UNL     1      -0.273   1.731   0.718  0.00  0.00    -0.302 NA
ATOM     21  C   UNL     1      -0.864   2.643   1.706  0.00  0.00    +0.066 C 
ATOM     22  C   UNL     1      -0.418   4.076   1.405  0.00  0.00    -0.063 C 
ATOM     23  H   UNL     1      -1.927   4.341  -0.017  0.00  0.00    -0.081 HD
BRANCH  20  24
ATOM     24  C   UNL     1      -0.617   0.335   1.019  0.00  0.00    +0.119 C 
BRANCH  24  25
ATOM     25  C   UNL     1       0.034  -0.075   2.315  0.00  0.00    -0.033 A 
ATOM     26  C   UNL     1       1.297  -0.636   2.307  0.00  0.00    +0.005 A 
ATOM     27  C   UNL     1       1.896  -1.008   3.496  0.00  0.00    +0.000 A 
ATOM     28  C   UNL     1       1.227  -0.828   4.692  0.00  0.00    +0.000 A 
ATOM     29  C   UNL     1      -0.038  -0.272   4.700  0.00  0.00    +0.000 A 
ATOM     30  C   UNL     1      -0.635   0.105   3.511  0.00  0.00    +0.005 A 
ENDBRANCH  24  25
ENDBRANCH  20  24
ENDBRANCH  16  17
ENDBRANCH  14  16
ENDBRANCH   4  14
BRANCH   6  31
ATOM     31  C   UNL     1      -1.720   9.547  -5.120  0.00  0.00    +0.163 C 
BRANCH  31  32
ATOM     32  C   UNL     1      -3.046  10.225  -4.889  0.00  0.00    -0.028 A 
ATOM     33  C   UNL     1      -4.210   9.480  -4.877  0.00  0.00    +0.005 A 
ATOM     34  C   UNL     1      -5.426  10.101  -4.660  0.00  0.00    +0.000 A 
ATOM     35  C   UNL     1      -5.479  11.468  -4.466  0.00  0.00    +0.000 A 
ATOM     36  C   UNL     1      -4.315  12.214  -4.483  0.00  0.00    +0.000 A 
ATOM     37  C   UNL     1      -3.099  11.593  -4.694  0.00  0.00    +0.005 A 
ENDBRANCH  31  32
ENDBRANCH   6  31
TORSDOF 9
