REMARK  Name = ZINC12444770
REMARK  7 active torsions:
REMARK  status: ('A' for Active; 'I' for Inactive)
REMARK    1  A    between atoms: C_1  and  C_2
REMARK    2  A    between atoms: C_9  and  N_28
REMARK    3  A    between atoms: C_10  and  C_26
REMARK    4  A    between atoms: C_11  and  C_13
REMARK    5  A    between atoms: C_15  and  C_18
REMARK    6  A    between atoms: C_18  and  S_19
REMARK    7  A    between atoms: S_19  and  C_20
REMARK                            x       y       z     vdW  Elec       q    Type
REMARK                         _______ _______ _______ _____ _____    ______ ____
ROOT
ATOM      1  C   UNL     1       4.859  -0.452   0.682  0.00  0.00    +0.065 C 
ATOM      2  C   UNL     1       3.391  -0.775   0.567  0.00  0.00    +0.041 A 
ATOM      3  C   UNL     1       2.410   0.091   0.273  0.00  0.00    +0.049 A 
ATOM      4  C   UNL     1       1.188  -0.616   0.268  0.00  0.00    +0.245 A 
ATOM      5  N   UNL     1       1.441  -1.861   0.549  0.00  0.00    -0.135 NA
ATOM      6  N   UNL     1       2.825  -1.991   0.744  0.00  0.00    -0.278 N 
ATOM      7  H   UNL     1       3.309  -2.836   0.973  0.00  0.00    +0.189 HD
ATOM      8  O   UNL     1       0.002  -0.004   0.002  0.00  0.00    -0.421 OA
ATOM      9  C   UNL     1      -0.016   1.344   0.009  0.00  0.00    +0.201 C 
ATOM     10  C   UNL     1       1.085   2.124   0.003  0.00  0.00    +0.099 C 
ATOM     11  C   UNL     1       2.486   1.568  -0.018  0.00  0.00    +0.108 C 
ENDROOT
BRANCH  11  12
ATOM     12  C   UNL     1       3.100   1.788  -1.377  0.00  0.00    +0.003 A 
ATOM     13  C   UNL     1       4.225   2.469  -1.706  0.00  0.00    +0.016 A 
ATOM     14  C   UNL     1       4.604   2.537  -3.033  0.00  0.00    -0.030 A 
ATOM     15  C   UNL     1       3.833   1.929  -3.969  0.00  0.00    +0.050 A 
ATOM     16  S   UNL     1       2.530   1.224  -2.973  0.00  0.00    -0.100 S 
BRANCH  14  17
ATOM     17  C   UNL     1       5.851   3.282  -3.436  0.00  0.00    +0.112 C 
BRANCH  17  18
ATOM     18  S   UNL     1       5.437   5.014  -3.778  0.00  0.00    -0.092 S 
BRANCH  18  19
ATOM     19  C   UNL     1       6.978   5.740  -4.228  0.00  0.00    +0.160 A 
ATOM     20  N   UNL     1       8.173   5.186  -4.303  0.00  0.00    -0.133 NA
ATOM     21  N   UNL     1       9.256   5.943  -4.685  0.00  0.00    -0.125 NA
ATOM     22  C   UNL     1       9.097   7.222  -4.964  0.00  0.00    +0.180 A 
ATOM     23  S   UNL     1       7.342   7.424  -4.698  0.00  0.00    -0.025 S 
ATOM     24  N   UNL     1      10.042   8.162  -5.359  0.00  0.00    -0.336 N 
ATOM     25  H   UNL     1       9.773   9.078  -5.530  0.00  0.00    +0.144 HD
ATOM     26  H   UNL     1      10.970   7.901  -5.463  0.00  0.00    +0.144 HD
ENDBRANCH  18  19
ENDBRANCH  17  18
ENDBRANCH  14  17
ENDBRANCH  11  12
BRANCH   9  27
ATOM     27  N   UNL     1      -1.240   1.966   0.018  0.00  0.00    -0.328 N 
ATOM     28  H   UNL     1      -2.053   1.437   0.019  0.00  0.00    +0.145 HD
ATOM     29  H   UNL     1      -1.291   2.934   0.024  0.00  0.00    +0.145 HD
ENDBRANCH   9  27
BRANCH  10  30
ATOM     30  C   UNL     1       0.914   3.546   0.017  0.00  0.00    +0.101 C 
ATOM     31  N   UNL     1       0.779   4.673   0.028  0.00  0.00    -0.191 NA
ENDBRANCH  10  30
TORSDOF 6
