REMARK  Name = ZINC52603391
REMARK  10 active torsions:
REMARK  status: ('A' for Active; 'I' for Inactive)
REMARK    1  A    between atoms: C_1  and  C_2
REMARK    2  A    between atoms: C_2  and  C_3
REMARK    3  A    between atoms: C_2  and  C_13
REMARK    4  A    between atoms: C_2  and  N_24
REMARK    5  A    between atoms: C_3  and  C_4
REMARK    6  A    between atoms: N_15  and  C_16
REMARK    7  A    between atoms: C_16  and  C_17
REMARK    8  A    between atoms: C_17  and  C_18
REMARK    9  A    between atoms: C_25  and  O_27
REMARK   10  A    between atoms: O_27  and  C_28
REMARK                            x       y       z     vdW  Elec       q    Type
REMARK                         _______ _______ _______ _____ _____    ______ ____
ROOT
ATOM      1  C   UNL     1      -0.019   1.526   0.010  0.00  0.00    +0.042 C 
ATOM      2  C   UNL     1       0.002  -0.004   0.002  0.00  0.00    +0.114 C 
ENDROOT
BRANCH   2   3
ATOM      3  C   UNL     1      -1.412  -0.526   0.013  0.00  0.00    +0.237 C 
ATOM      4  O   UNL     1      -1.939  -0.827   1.062  0.00  0.00    -0.273 OA
ATOM      5  N   UNL     1      -2.090  -0.657  -1.144  0.00  0.00    -0.313 N 
ATOM      6  H   UNL     1      -1.669  -0.416  -1.984  0.00  0.00    +0.149 HD
BRANCH   5   7
ATOM      7  C   UNL     1      -3.465  -1.164  -1.134  0.00  0.00    +0.110 C 
BRANCH   7   8
ATOM      8  C   UNL     1      -4.000  -1.215  -2.566  0.00  0.00    +0.074 C 
BRANCH   8   9
ATOM      9  C   UNL     1      -5.414  -1.737  -2.555  0.00  0.00    +0.043 A 
ATOM     10  C   UNL     1      -6.420  -0.996  -3.148  0.00  0.00    +0.023 A 
ATOM     11  C   UNL     1      -7.717  -1.485  -3.132  0.00  0.00    +0.003 A 
ATOM     12  C   UNL     1      -7.955  -2.706  -2.519  0.00  0.00    +0.020 A 
ATOM     13  C   UNL     1      -6.899  -3.390  -1.948  0.00  0.00    +0.111 A 
ATOM     14  N   UNL     1      -5.676  -2.897  -1.986  0.00  0.00    -0.260 NA
ENDBRANCH   8   9
ENDBRANCH   7   8
ENDBRANCH   5   7
ENDBRANCH   2   3
BRANCH   2  15
ATOM     15  N   UNL     1       0.688  -0.476  -1.203  0.00  0.00    -0.267 N 
ATOM     16  C   UNL     1       1.972  -0.132  -1.427  0.00  0.00    +0.401 C 
ATOM     17  O   UNL     1       2.560   0.570  -0.629  0.00  0.00    -0.226 OA
ATOM     18  H   UNL     1       0.218  -1.037  -1.840  0.00  0.00    +0.153 HD
BRANCH  16  19
ATOM     19  O   UNL     1       2.602  -0.567  -2.535  0.00  0.00    -0.447 OA
BRANCH  19  20
ATOM     20  C   UNL     1       3.962  -0.163  -2.708  0.00  0.00    +0.184 C 
ATOM     21  C   UNL     1       4.008   1.157  -3.480  0.00  0.00    +0.031 C 
ATOM     22  C   UNL     1       5.464   1.589  -3.665  0.00  0.00    +0.010 C 
ATOM     23  C   UNL     1       6.219   0.513  -4.448  0.00  0.00    -0.010 C 
ATOM     24  C   UNL     1       5.565   0.325  -5.818  0.00  0.00    +0.007 C 
ATOM     25  C   UNL     1       4.109  -0.107  -5.633  0.00  0.00    -0.010 C 
ATOM     26  C   UNL     1       3.353   0.969  -4.850  0.00  0.00    +0.010 C 
ATOM     27  C   UNL     1       4.063  -1.427  -4.861  0.00  0.00    +0.010 C 
ATOM     28  C   UNL     1       4.717  -1.239  -3.490  0.00  0.00    +0.031 C 
ATOM     29  C   UNL     1       6.173  -0.807  -3.676  0.00  0.00    +0.010 C 
ENDBRANCH  19  20
ENDBRANCH  16  19
ENDBRANCH   2  15
BRANCH   2  30
ATOM     30  C   UNL     1       0.742  -0.511   1.242  0.00  0.00    +0.068 C 
BRANCH  30  31
ATOM     31  C   UNL     1       0.870  -2.011   1.172  0.00  0.00    -0.039 C 
ATOM     32  C   UNL     1       1.925  -2.716   0.704  0.00  0.00    -0.001 A 
ATOM     33  C   UNL     1       3.219  -2.313   0.141  0.00  0.00    +0.010 A 
ATOM     34  C   UNL     1       4.091  -3.271  -0.250  0.00  0.00    +0.001 A 
ATOM     35  C   UNL     1       3.790  -4.635  -0.131  0.00  0.00    +0.002 A 
ATOM     36  C   UNL     1       2.622  -5.082   0.377  0.00  0.00    +0.026 A 
ATOM     37  C   UNL     1       1.632  -4.163   0.820  0.00  0.00    +0.043 A 
ATOM     38  N   UNL     1       0.442  -4.344   1.339  0.00  0.00    -0.380 N 
ATOM     39  C   UNL     1      -0.153  -3.032   1.617  0.00  0.00    +0.144 C 
ATOM     40  H   UNL     1       0.025  -5.203   1.513  0.00  0.00    +0.160 HD
ENDBRANCH  30  31
ENDBRANCH   2  30
TORSDOF 9
