REMARK  Name = ZINC18153101
REMARK  7 active torsions:
REMARK  status: ('A' for Active; 'I' for Inactive)
REMARK    1  A    between atoms: C_6  and  C_7
REMARK    2  A    between atoms: C_7  and  C_15
REMARK    3  A    between atoms: N_8  and  C_9
REMARK    4  A    between atoms: C_9  and  C_10
REMARK    5  A    between atoms: C_10  and  C_11
REMARK    6  A    between atoms: C_11  and  C_12
REMARK    7  A    between atoms: C_20  and  O_21
REMARK                            x       y       z     vdW  Elec       q    Type
REMARK                         _______ _______ _______ _____ _____    ______ ____
ROOT
ATOM      1  C   UNL     1      -1.301  -0.747  -0.162  0.00  0.00    +0.053 C 
ATOM      2  N   UNL     1      -2.460  -0.160  -0.052  0.00  0.00    -0.383 N 
ATOM      3  H   UNL     1      -2.507   0.804   0.053  0.00  0.00    +0.160 HD
ENDROOT
BRANCH   1   9
ATOM      4  C   UNL     1      -0.149   1.444  -0.454  0.00  0.00    +0.011 A 
ATOM      5  C   UNL     1       1.005   2.195  -0.548  0.00  0.00    +0.020 A 
ATOM      6  C   UNL     1       2.243   1.582  -0.454  0.00  0.00    +0.041 A 
ATOM      7  C   UNL     1       2.330   0.212  -0.266  0.00  0.00    +0.020 A 
ATOM      8  C   UNL     1       1.184  -0.548  -0.171  0.00  0.00    +0.011 A 
ATOM      9  C   UNL     1      -0.066   0.065  -0.264  0.00  0.00    -0.001 A 
ATOM     10 CL   UNL     1       3.690   2.533  -0.574  0.00  0.00    -0.084 Cl
ENDBRANCH   1   9
BRANCH   1  11
ATOM     11  C   UNL     1      -1.220  -2.224  -0.185  0.00  0.00    +0.043 A 
ATOM     12  C   UNL     1      -1.574  -2.963   0.945  0.00  0.00    +0.052 A 
ATOM     13  C   UNL     1      -1.496  -4.341   0.917  0.00  0.00    +0.124 A 
ATOM     14  C   UNL     1      -1.066  -4.993  -0.228  0.00  0.00    +0.042 A 
ATOM     15  C   UNL     1      -0.713  -4.271  -1.351  0.00  0.00    +0.049 A 
ATOM     16  C   UNL     1      -0.792  -2.887  -1.341  0.00  0.00    +0.126 A 
ATOM     17  F   UNL     1      -1.839  -5.056   2.011  0.00  0.00    -0.205 F 
BRANCH  16  18
ATOM     18  O   UNL     1      -0.451  -2.177  -2.447  0.00  0.00    -0.506 OA
ATOM     19  H   UNL     1       0.497  -2.002  -2.525  0.00  0.00    +0.292 HD
ENDBRANCH  16  18
ENDBRANCH   1  11
BRANCH   2  20
ATOM     20  C   UNL     1      -3.690  -0.954  -0.088  0.00  0.00    +0.113 C 
BRANCH  20  21
ATOM     21  C   UNL     1      -4.434  -0.803   1.240  0.00  0.00    +0.030 C 
BRANCH  21  22
ATOM     22  C   UNL     1      -5.719  -1.633   1.202  0.00  0.00    +0.097 C 
BRANCH  22  23
ATOM     23  C   UNL     1      -6.451  -1.484   2.511  0.00  0.00    +0.211 C 
ATOM     24  O   UNL     1      -5.991  -0.784   3.387  0.00  0.00    -0.276 OA
ATOM     25  N   UNL     1      -7.618  -2.130   2.707  0.00  0.00    -0.329 N 
ATOM     26  H   UNL     1      -7.986  -2.690   2.006  0.00  0.00    +0.145 HD
ATOM     27  H   UNL     1      -8.089  -2.034   3.549  0.00  0.00    +0.145 HD
ENDBRANCH  22  23
ENDBRANCH  21  22
ENDBRANCH  20  21
ENDBRANCH   2  20
TORSDOF 7
