REMARK  Name = ZINC19324426
REMARK  14 active torsions:
REMARK  status: ('A' for Active; 'I' for Inactive)
REMARK    1  A    between atoms: C_1  and  C_2
REMARK    2  A    between atoms: C_2  and  C_3
REMARK    3  A    between atoms: C_3  and  C_4
REMARK    4  A    between atoms: C_7  and  C_27
REMARK    5  A    between atoms: C_11  and  C_16
REMARK    6  A    between atoms: C_16  and  O_18
REMARK    7  A    between atoms: C_16  and  C_19
REMARK    8  A    between atoms: C_19  and  O_21
REMARK    9  A    between atoms: C_19  and  C_22
REMARK   10  A    between atoms: C_22  and  O_24
REMARK   11  A    between atoms: C_22  and  C_25
REMARK   12  A    between atoms: C_25  and  O_26
REMARK   13  A    between atoms: C_27  and  C_28
REMARK   14  A    between atoms: C_28  and  C_29
REMARK                            x       y       z     vdW  Elec       q    Type
REMARK                         _______ _______ _______ _____ _____    ______ ____
ROOT
ATOM      1  C   UNL     1       0.789  -2.006  -1.351  0.00  0.00    +0.028 C 
ATOM      2  C   UNL     1      -0.625  -2.568  -1.454  0.00  0.00    +0.144 C 
ATOM      3  O   UNL     1      -1.609  -1.871  -1.524  0.00  0.00    -0.296 OA
ATOM      4  C   UNL     1      -0.681  -4.092  -1.460  0.00  0.00    +0.028 C 
ATOM      5  C   UNL     1       0.183  -4.558  -2.642  0.00  0.00    -0.061 C 
ATOM      6  N   UNL     1       1.546  -4.043  -2.499  0.00  0.00    +0.393 N 
ATOM      7  C   UNL     1       1.570  -2.558  -2.553  0.00  0.00    -0.061 C 
ATOM      8  C   UNL     1       2.145  -4.531  -1.253  0.00  0.00    +0.034 C 
ATOM      9  N   UNL     1       1.363  -4.039  -0.110  0.00  0.00    -0.311 NA
ATOM     10  C   UNL     1      -0.009  -4.561  -0.159  0.00  0.00    +0.095 C 
ATOM     11  C   UNL     1       1.418  -2.571  -0.066  0.00  0.00    +0.095 C 
ATOM     12  H   UNL     1       2.100  -4.393  -3.266  0.00  0.00    -0.079 HD
ENDROOT
BRANCH   1  13
ATOM     13  C   UNL     1       0.784  -0.476  -1.343  0.00  0.00    +0.013 C 
BRANCH  13  15
ATOM     14  C   UNL     1      -0.008   1.556  -0.123  0.00  0.00    +0.004 C 
ATOM     15  C   UNL     1      -0.003   0.026  -0.131  0.00  0.00    -0.002 C 
ENDBRANCH  13  15
ENDBRANCH   1  13
BRANCH   8  16
ATOM     16  C   UNL     1       2.144  -6.061  -1.251  0.00  0.00    +0.146 C 
BRANCH  16  17
ATOM     17  O   UNL     1       2.832  -6.539  -2.409  0.00  0.00    -0.390 OA
ATOM     18  H   UNL     1       3.754  -6.255  -2.464  0.00  0.00    +0.210 HD
ENDBRANCH  16  17
BRANCH  16  19
ATOM     19  C   UNL     1       2.849  -6.571   0.007  0.00  0.00    +0.173 C 
BRANCH  19  20
ATOM     20  O   UNL     1       2.091  -6.199   1.161  0.00  0.00    -0.387 OA
ATOM     21  H   UNL     1       1.223  -6.621   1.214  0.00  0.00    +0.210 HD
ENDBRANCH  19  20
BRANCH  19  22
ATOM     22  C   UNL     1       2.967  -8.095  -0.056  0.00  0.00    +0.171 C 
BRANCH  22  23
ATOM     23  O   UNL     1       1.673  -8.665  -0.254  0.00  0.00    -0.387 OA
ATOM     24  H   UNL     1       1.040  -8.457   0.447  0.00  0.00    +0.210 HD
ENDBRANCH  22  23
BRANCH  22  25
ATOM     25  C   UNL     1       3.559  -8.615   1.256  0.00  0.00    +0.189 C 
BRANCH  25  26
ATOM     26  O   UNL     1       3.778 -10.023   1.154  0.00  0.00    -0.392 OA
ATOM     27  H   UNL     1       4.153 -10.422   1.951  0.00  0.00    +0.210 HD
ENDBRANCH  25  26
ENDBRANCH  22  25
ENDBRANCH  19  22
ENDBRANCH  16  19
ENDBRANCH   8  16
BRANCH   4  28
ATOM     28  C   UNL     1      -2.121  -4.599  -1.559  0.00  0.00    +0.013 C 
BRANCH  28  29
ATOM     29  C   UNL     1      -2.925  -4.089  -0.361  0.00  0.00    -0.002 C 
ATOM     30  C   UNL     1      -4.365  -4.596  -0.461  0.00  0.00    +0.004 C 
ENDBRANCH  28  29
ENDBRANCH   4  28
TORSDOF 12
