REMARK  Name = ZINC22064270
REMARK  6 active torsions:
REMARK  status: ('A' for Active; 'I' for Inactive)
REMARK    1  A    between atoms: C_3  and  C_26
REMARK    2  A    between atoms: C_5  and  N_7
REMARK    3  A    between atoms: C_8  and  C_10
REMARK    4  A    between atoms: C_10  and  N_11
REMARK    5  A    between atoms: C_19  and  C_21
REMARK    6  A    between atoms: N_28  and  C_29
REMARK                            x       y       z     vdW  Elec       q    Type
REMARK                         _______ _______ _______ _____ _____    ______ ____
ROOT
ATOM      1  N   UNL     1      -1.191   1.867   0.018  0.00  0.00    -0.287 N 
ATOM      2  C   UNL     1      -0.027   1.206   0.178  0.00  0.00    +0.201 C 
ATOM      3  O   UNL     1      -0.029   0.002   0.329  0.00  0.00    -0.278 OA
ATOM      4  H   UNL     1      -1.196   2.966  -0.032  0.00  0.00    +0.155 HD
ENDROOT
BRANCH   1   9
ATOM      5  C   UNL     1      -4.754   0.996   0.325  0.00  0.00    +0.003 A 
ATOM      6  C   UNL     1      -4.782  -0.243  -0.282  0.00  0.00    +0.013 A 
ATOM      7  C   UNL     1      -3.608  -0.794  -0.798  0.00  0.00    +0.038 A 
ATOM      8  C   UNL     1      -2.409  -0.088  -0.698  0.00  0.00    +0.036 A 
ATOM      9  C   UNL     1      -2.391   1.155  -0.086  0.00  0.00    +0.034 A 
ATOM     10  C   UNL     1      -3.565   1.693   0.429  0.00  0.00    +0.023 A 
BRANCH   7  11
ATOM     11  C   UNL     1      -3.636  -2.121  -1.449  0.00  0.00    +0.244 C 
ATOM     12  O   UNL     1      -2.612  -2.600  -1.897  0.00  0.00    -0.270 OA
ATOM     13  N   UNL     1      -4.796  -2.801  -1.545  0.00  0.00    -0.308 N 
ATOM     14  H   UNL     1      -5.722  -2.368  -1.139  0.00  0.00    +0.149 HD
BRANCH  13  15
ATOM     15  C   UNL     1      -4.823  -4.116  -2.190  0.00  0.00    +0.073 C 
ATOM     16  C   UNL     1      -5.973  -4.405  -3.157  0.00  0.00    +0.024 C 
ATOM     17  C   UNL     1      -5.940  -5.079  -1.784  0.00  0.00    +0.024 C 
ENDBRANCH  13  15
ENDBRANCH   7  11
ENDBRANCH   1   9
BRANCH   2  18
ATOM     18  C   UNL     1       1.277   1.961   0.165  0.00  0.00    +0.020 C 
BRANCH  18  19
ATOM     19  N   UNL     1       2.390   1.020   0.351  0.00  0.00    +0.393 N 
ATOM     20  C   UNL     1       2.503   0.105  -0.794  0.00  0.00    -0.072 C 
ATOM     21  C   UNL     1       3.888  -0.563  -0.758  0.00  0.00    +0.024 C 
ATOM     22  C   UNL     1       4.131  -1.032   0.639  0.00  0.00    -0.010 A 
ATOM     23  C   UNL     1       3.427  -0.677   1.751  0.00  0.00    -0.046 A 
ATOM     24  C   UNL     1       3.836  -1.247   2.954  0.00  0.00    +0.010 A 
ATOM     25  C   UNL     1       4.885  -2.101   2.977  0.00  0.00    +0.045 A 
ATOM     26  S   UNL     1       5.360  -2.148   1.255  0.00  0.00    -0.101 S 
ATOM     27  C   UNL     1       2.261   0.298   1.623  0.00  0.00    +0.002 C 
ATOM     28  H   UNL     1       3.325   1.597   0.400  0.00  0.00    -0.080 HD
BRANCH  27  29
ATOM     29  C   UNL     1       2.296   1.280   2.767  0.00  0.00    -0.019 A 
ATOM     30  C   UNL     1       1.560   1.289   3.906  0.00  0.00    +0.010 A 
ATOM     31  C   UNL     1       1.765   2.300   4.827  0.00  0.00    +0.008 A 
ATOM     32  C   UNL     1       2.694   3.251   4.564  0.00  0.00    +0.045 A 
ATOM     33  S   UNL     1       3.321   2.726   2.977  0.00  0.00    -0.103 S 
ENDBRANCH  27  29
ENDBRANCH  18  19
ENDBRANCH   2  18
TORSDOF 6
