REMARK  Name = ZINC38994371
REMARK  6 active torsions:
REMARK  status: ('A' for Active; 'I' for Inactive)
REMARK    1  A    between atoms: C_1  and  C_2
REMARK    2  A    between atoms: C_6  and  N_9
REMARK    3  A    between atoms: C_7  and  C_8
REMARK    4  A    between atoms: C_10  and  O_34
REMARK    5  A    between atoms: C_13  and  O_33
REMARK    6  A    between atoms: C_14  and  C_18
REMARK                            x       y       z     vdW  Elec       q    Type
REMARK                         _______ _______ _______ _____ _____    ______ ____
ROOT
ATOM      1  N   UNL     1      -0.135  -2.860   2.499  0.00  0.00    -0.225 N 
ATOM      2  C   UNL     1      -1.335  -3.244   3.228  0.00  0.00    +0.338 C 
ATOM      3  N   UNL     1      -1.063  -3.499   4.633  0.00  0.00    -0.204 NA
ATOM      4  C   UNL     1       0.093  -3.766   5.104  0.00  0.00    +0.200 C 
ATOM      5  C   UNL     1       1.323  -3.844   4.248  0.00  0.00    +0.183 C 
ATOM      6  C   UNL     1       1.099  -3.137   2.941  0.00  0.00    +0.237 C 
ATOM      7  O   UNL     1       2.056  -2.807   2.273  0.00  0.00    -0.274 OA
ENDROOT
BRANCH   5   8
ATOM      8  C   UNL     1       1.654  -5.311   3.970  0.00  0.00    +0.122 C 
ATOM      9  C   UNL     1       2.956  -5.403   3.208  0.00  0.00    +0.039 A 
ATOM     10  H   UNL     1       4.226  -4.052   4.159  0.00  0.00    +0.166 HD
ATOM     11  C   UNL     1       3.135  -6.226   2.150  0.00  0.00    -0.016 A 
ATOM     12  C   UNL     1       4.491  -6.038   1.687  0.00  0.00    +0.003 A 
ATOM     13  C   UNL     1       5.227  -6.609   0.644  0.00  0.00    +0.010 A 
ATOM     14  C   UNL     1       6.523  -6.182   0.492  0.00  0.00    +0.001 A 
ATOM     15  C   UNL     1       7.087  -5.231   1.326  0.00  0.00    +0.002 A 
ATOM     16  C   UNL     1       6.382  -4.649   2.366  0.00  0.00    +0.026 A 
ATOM     17  C   UNL     1       5.064  -5.063   2.545  0.00  0.00    +0.047 A 
ATOM     18  N   UNL     1       4.107  -4.704   3.450  0.00  0.00    -0.356 N 
ATOM     19  C   UNL     1       2.061  -7.142   1.619  0.00  0.00    +0.052 C 
ATOM     20  C   UNL     1       0.964  -7.256   2.686  0.00  0.00    +0.086 C 
ATOM     21  N   UNL     1       0.588  -5.913   3.152  0.00  0.00    -0.307 NA
ATOM     22  H   UNL     1      -0.286  -5.933   3.656  0.00  0.00    +0.123 HD
ENDBRANCH   5   8
BRANCH   1  28
ATOM     23  C   UNL     1      -0.507   1.385   0.047  0.00  0.00    +0.044 C 
ATOM     24  C   UNL     1      -0.460  -0.121   0.068  0.00  0.00    -0.046 A 
ATOM     25  C   UNL     1      -0.555  -0.831  -1.115  0.00  0.00    +0.004 A 
ATOM     26  C   UNL     1      -0.511  -2.213  -1.101  0.00  0.00    +0.002 A 
ATOM     27  C   UNL     1      -0.372  -2.888   0.096  0.00  0.00    +0.024 A 
ATOM     28  C   UNL     1      -0.276  -2.178   1.285  0.00  0.00    +0.044 A 
ATOM     29  C   UNL     1      -0.315  -0.790   1.267  0.00  0.00    -0.026 A 
ATOM     30  C   UNL     1      -0.205  -0.015   2.554  0.00  0.00    +0.046 C 
ENDBRANCH   1  28
BRANCH   4  31
ATOM     31  O   UNL     1       0.214  -3.988   6.429  0.00  0.00    -0.495 OA
ATOM     32  H   UNL     1      -0.618  -3.921   6.917  0.00  0.00    +0.293 HD
ENDBRANCH   4  31
BRANCH   2  33
ATOM     33  O   UNL     1      -2.296  -2.192   3.127  0.00  0.00    -0.356 OA
ATOM     34  H   UNL     1      -3.127  -2.372   3.588  0.00  0.00    +0.214 HD
ENDBRANCH   2  33
TORSDOF 4
