REMARK  Name = ZINC52065386
REMARK  4 active torsions:
REMARK  status: ('A' for Active; 'I' for Inactive)
REMARK    1  A    between atoms: C_3  and  O_11
REMARK    2  A    between atoms: C_6  and  C_7
REMARK    3  A    between atoms: O_11  and  C_12
REMARK    4  A    between atoms: C_17  and  N_18
REMARK                            x       y       z     vdW  Elec       q    Type
REMARK                         _______ _______ _______ _____ _____    ______ ____
ROOT
ATOM      1  C   UNL     1      -0.010   1.360  -0.009  0.00  0.00    +0.015 A 
ATOM      2  C   UNL     1       1.168   2.075  -0.018  0.00  0.00    +0.050 A 
ATOM      3  C   UNL     1       2.387   1.409  -0.011  0.00  0.00    +0.164 A 
ATOM      4  C   UNL     1       2.423   0.018   0.006  0.00  0.00    +0.166 A 
ATOM      5  C   UNL     1       1.248  -0.704   0.015  0.00  0.00    +0.053 A 
ATOM      6  C   UNL     1       0.021  -0.036   0.008  0.00  0.00    +0.015 A 
ATOM      7  F   UNL     1       3.611  -0.626   0.013  0.00  0.00    -0.202 F 
ENDROOT
BRANCH   6   8
ATOM      8  C   UNL     1      -1.240  -0.805   0.019  0.00  0.00    +0.094 C 
ATOM      9  N   UNL     1      -1.209  -2.137   0.035  0.00  0.00    -0.387 N 
ATOM     10  N   UNL     1      -2.410  -0.166   0.013  0.00  0.00    -0.345 N 
ATOM     11  H   UNL     1      -0.357  -2.601   0.040  0.00  0.00    +0.157 HD
ATOM     12  H   UNL     1      -2.433   0.803   0.001  0.00  0.00    +0.144 HD
ATOM     13  H   UNL     1      -3.238  -0.671   0.019  0.00  0.00    +0.144 HD
ATOM     14  H   UNL     1      -2.037  -2.642   0.042  0.00  0.00    +0.157 HD
ENDBRANCH   6   8
BRANCH   3  15
ATOM     15  O   UNL     1       3.545   2.117  -0.021  0.00  0.00    -0.451 OA
BRANCH  15  16
ATOM     16  C   UNL     1       4.188   2.272  -1.208  0.00  0.00    +0.159 A 
ATOM     17  C   UNL     1       3.602   1.816  -2.380  0.00  0.00    +0.051 A 
ATOM     18  C   UNL     1       4.256   1.975  -3.586  0.00  0.00    +0.042 A 
ATOM     19  C   UNL     1       5.497   2.589  -3.626  0.00  0.00    +0.126 A 
ATOM     20  C   UNL     1       6.083   3.045  -2.458  0.00  0.00    +0.074 A 
ATOM     21  C   UNL     1       5.428   2.892  -1.250  0.00  0.00    +0.171 A 
ATOM     22  F   UNL     1       6.136   2.743  -4.806  0.00  0.00    -0.205 F 
BRANCH  21  23
ATOM     23  N   UNL     1       6.053   3.384  -0.002  0.00  0.00    +0.060 N 
ATOM     24  O   UNL     1       7.134   3.924  -0.039  0.00  0.00    -0.126 OA
ATOM     25  O   UNL     1       5.482   3.246   1.055  0.00  0.00    -0.126 OA
ENDBRANCH  21  23
ENDBRANCH  15  16
ENDBRANCH   3  15
TORSDOF 4
