REMARK  Name = ZINC66651183
REMARK  10 active torsions:
REMARK  status: ('A' for Active; 'I' for Inactive)
REMARK    1  A    between atoms: C_1  and  C_2
REMARK    2  A    between atoms: C_2  and  N_3
REMARK    3  A    between atoms: C_9  and  C_11
REMARK    4  A    between atoms: C_11  and  C_12
REMARK    5  A    between atoms: C_18  and  C_20
REMARK    6  A    between atoms: C_20  and  C_22
REMARK    7  A    between atoms: C_20  and  N_26
REMARK    8  A    between atoms: C_22  and  C_23
REMARK    9  A    between atoms: C_23  and  C_24
REMARK   10  A    between atoms: C_23  and  C_25
REMARK                            x       y       z     vdW  Elec       q    Type
REMARK                         _______ _______ _______ _____ _____    ______ ____
ROOT
ATOM      1  C   UNL     1      -5.484  -4.950  -2.416  0.00  0.00    +0.001 C 
ATOM      2  C   UNL     1      -4.778  -4.877  -3.772  0.00  0.00    +0.023 C 
ATOM      3  C   UNL     1      -5.625  -5.601  -4.823  0.00  0.00    +0.108 C 
ATOM      4  N   UNL     1      -5.894  -6.967  -4.355  0.00  0.00    -0.300 N 
ATOM      5  C   UNL     1      -6.488  -7.155  -3.025  0.00  0.00    +0.108 C 
ATOM      6  C   UNL     1      -5.631  -6.413  -1.993  0.00  0.00    +0.023 C 
ATOM      7  C   UNL     1      -5.601  -8.029  -5.132  0.00  0.00    +0.236 C 
ATOM      8  O   UNL     1      -5.111  -7.861  -6.229  0.00  0.00    -0.274 OA
ENDROOT
BRANCH   1   9
ATOM      9  C   UNL     1      -4.658  -4.198  -1.370  0.00  0.00    +0.099 C 
BRANCH   9  16
ATOM     10  N   UNL     1      -1.835  -0.337   0.078  0.00  0.00    +0.382 N 
ATOM     11  C   UNL     1      -2.422   0.014  -1.222  0.00  0.00    -0.060 C 
ATOM     12  C   UNL     1      -3.885  -0.437  -1.259  0.00  0.00    +0.089 C 
ATOM     13  N   UNL     1      -3.940  -1.871  -0.936  0.00  0.00    -0.305 N 
ATOM     14  C   UNL     1      -3.236  -2.338   0.269  0.00  0.00    +0.089 C 
ATOM     15  C   UNL     1      -1.803  -1.797   0.234  0.00  0.00    -0.060 C 
ATOM     16  C   UNL     1      -4.616  -2.733  -1.721  0.00  0.00    +0.216 C 
ATOM     17  O   UNL     1      -5.190  -2.330  -2.710  0.00  0.00    -0.276 OA
ATOM     18  H   UNL     1      -2.393   0.067   0.816  0.00  0.00    -0.082 HD
BRANCH  10  20
ATOM     19  C   UNL     1      -0.509   1.721   0.118  0.00  0.00    -0.017 C 
ATOM     20  C   UNL     1      -0.467   0.192   0.155  0.00  0.00    -0.082 C 
ENDBRANCH  10  20
ENDBRANCH   9  16
ENDBRANCH   1   9
BRANCH   7  21
ATOM     21  C   UNL     1      -5.882  -9.425  -4.638  0.00  0.00    +0.161 C 
BRANCH  21  22
ATOM     22  N   UNL     1      -5.075 -10.383  -5.397  0.00  0.00    -0.288 N 
ATOM     23  C   UNL     1      -5.220 -10.476  -6.734  0.00  0.00    +0.298 C 
ATOM     24  O   UNL     1      -6.020  -9.764  -7.310  0.00  0.00    -0.253 OA
ATOM     25  N   UNL     1      -4.478 -11.358  -7.433  0.00  0.00    -0.313 N 
ATOM     26  H   UNL     1      -4.437 -10.951  -4.938  0.00  0.00    +0.151 HD
ATOM     27  H   UNL     1      -3.840 -11.926  -6.974  0.00  0.00    +0.146 HD
ATOM     28  H   UNL     1      -4.582 -11.424  -8.395  0.00  0.00    +0.146 HD
ENDBRANCH  21  22
BRANCH  21  29
ATOM     29  C   UNL     1      -7.366  -9.744  -4.828  0.00  0.00    +0.034 C 
BRANCH  29  30
ATOM     30  C   UNL     1      -7.669 -11.126  -4.245  0.00  0.00    -0.015 C 
ATOM     31  C   UNL     1      -7.471 -11.095  -2.729  0.00  0.00    +0.007 C 
ATOM     32  C   UNL     1      -9.117 -11.507  -4.563  0.00  0.00    +0.007 C 
ENDBRANCH  29  30
ENDBRANCH  21  29
ENDBRANCH   7  21
TORSDOF 7
