REMARK  Name = ZINC52094624
REMARK  6 active torsions:
REMARK  status: ('A' for Active; 'I' for Inactive)
REMARK    1  A    between atoms: C_1  and  C_2
REMARK    2  A    between atoms: C_2  and  N_3
REMARK    3  A    between atoms: N_3  and  C_4
REMARK    4  A    between atoms: C_4  and  C_6
REMARK    5  A    between atoms: C_4  and  C_11
REMARK    6  A    between atoms: C_6  and  C_7
REMARK                            x       y       z     vdW  Elec       q    Type
REMARK                         _______ _______ _______ _____ _____    ______ ____
ROOT
ATOM      1  C   UNL     1      -2.635  -2.559   0.074  0.00  0.00    -0.045 A 
ATOM      2  C   UNL     1      -3.686  -1.792  -0.391  0.00  0.00    +0.031 A 
ATOM      3  C   UNL     1      -4.973  -2.304  -0.376  0.00  0.00    +0.067 A 
ATOM      4  C   UNL     1      -5.204  -3.593   0.110  0.00  0.00    +0.068 A 
ATOM      5  C   UNL     1      -4.144  -4.356   0.575  0.00  0.00    +0.043 A 
ATOM      6  C   UNL     1      -2.862  -3.839   0.551  0.00  0.00    +0.022 A 
ATOM      7 BR   UNL     1      -1.414  -4.882   1.177  0.00  0.00    -0.050 Br
ATOM      8  N   UNL     1      -6.573  -3.826   0.001  0.00  0.00    -0.306 N 
ATOM      9  H   UNL     1      -7.033  -4.639   0.262  0.00  0.00    +0.170 HD
ATOM     10  C   UNL     1      -7.149  -2.729  -0.527  0.00  0.00    +0.325 A 
ATOM     11  O   UNL     1      -8.338  -2.603  -0.753  0.00  0.00    -0.247 OA
ATOM     12  N   UNL     1      -6.210  -1.794  -0.765  0.00  0.00    -0.306 N 
ATOM     13  H   UNL     1      -6.368  -0.915  -1.143  0.00  0.00    +0.170 HD
ENDROOT
BRANCH   1  14
ATOM     14  C   UNL     1      -1.234  -2.002   0.057  0.00  0.00    -0.031 C 
BRANCH  14  15
ATOM     15  N   UNL     1      -1.290  -0.535   0.100  0.00  0.00    +0.384 N 
ATOM     16  H   UNL     1      -1.868  -0.198  -0.655  0.00  0.00    -0.085 HD
ATOM     17  H   UNL     1      -0.359  -0.160   0.004  0.00  0.00    -0.085 HD
BRANCH  15  19
ATOM     18  C   UNL     1      -1.804   1.422   1.480  0.00  0.00    -0.017 C 
ATOM     19  C   UNL     1      -1.861  -0.104   1.383  0.00  0.00    -0.085 C 
ENDBRANCH  15  19
ENDBRANCH  14  15
BRANCH  14  20
ATOM     20  C   UNL     1      -0.524  -2.448  -1.223  0.00  0.00    +0.102 C 
BRANCH  20  21
ATOM     21  C   UNL     1       0.943  -2.016  -1.169  0.00  0.00    +0.389 C 
ATOM     22  F   UNL     1       1.525  -2.488   0.012  0.00  0.00    -0.171 F 
ATOM     23  F   UNL     1       1.626  -2.544  -2.269  0.00  0.00    -0.171 F 
ATOM     24  F   UNL     1       1.019  -0.619  -1.200  0.00  0.00    -0.171 F 
ENDBRANCH  20  21
ENDBRANCH  14  20
ENDBRANCH   1  14
TORSDOF 5
