REMARK  Name = ZINC40853317
REMARK  8 active torsions:
REMARK  status: ('A' for Active; 'I' for Inactive)
REMARK    1  A    between atoms: C_1  and  C_2
REMARK    2  A    between atoms: C_2  and  C_3
REMARK    3  A    between atoms: C_3  and  C_5
REMARK    4  A    between atoms: C_3  and  C_6
REMARK    5  A    between atoms: C_6  and  C_8
REMARK    6  A    between atoms: C_6  and  N_23
REMARK    7  A    between atoms: N_10  and  C_11
REMARK    8  A    between atoms: C_12  and  C_21
REMARK                            x       y       z     vdW  Elec       q    Type
REMARK                         _______ _______ _______ _____ _____    ______ ____
ROOT
ATOM      1  C   UNL     1       1.336  -2.509  -2.568  0.00  0.00    +0.203 C 
ATOM      2  O   UNL     1       2.462  -2.953  -2.491  0.00  0.00    -0.277 OA
ATOM      3  N   UNL     1       0.715  -2.451  -3.763  0.00  0.00    -0.280 N 
ATOM      4  H   UNL     1      -0.185  -2.096  -3.825  0.00  0.00    +0.155 HD
ENDROOT
BRANCH   3   5
ATOM      5  C   UNL     1       1.365  -2.898  -4.905  0.00  0.00    +0.090 A 
ATOM      6  C   UNL     1       0.890  -2.910  -6.205  0.00  0.00    +0.084 A 
ATOM      7  C   UNL     1       1.773  -3.436  -7.236  0.00  0.00    -0.018 A 
ATOM      8  C   UNL     1       2.968  -3.859  -6.770  0.00  0.00    -0.004 A 
ATOM      9  S   UNL     1       2.909  -3.543  -5.029  0.00  0.00    -0.077 S 
ATOM     10  C   UNL     1       4.091  -4.466  -7.551  0.00  0.00    +0.043 C 
ATOM     11  C   UNL     1       4.372  -3.600  -8.786  0.00  0.00    +0.005 C 
ATOM     12  C   UNL     1       3.497  -4.091  -9.935  0.00  0.00    +0.001 C 
ATOM     13  C   UNL     1       2.165  -4.612  -9.399  0.00  0.00    +0.005 C 
ATOM     14  C   UNL     1       1.393  -3.493  -8.709  0.00  0.00    +0.037 C 
BRANCH   6  15
ATOM     15  C   UNL     1      -0.418  -2.424  -6.523  0.00  0.00    +0.102 C 
ATOM     16  N   UNL     1      -1.457  -2.038  -6.776  0.00  0.00    -0.191 NA
ENDBRANCH   6  15
ENDBRANCH   3   5
BRANCH   1  17
ATOM     17  C   UNL     1       0.630  -2.023  -1.329  0.00  0.00    +0.016 C 
BRANCH  17  18
ATOM     18  N   UNL     1       1.269  -2.607  -0.141  0.00  0.00    +0.386 N 
ATOM     19  H   UNL     1       2.238  -2.327  -0.109  0.00  0.00    -0.089 HD
ATOM     20  H   UNL     1       0.797  -2.281   0.689  0.00  0.00    -0.089 HD
ATOM     21  H   UNL     1       1.211  -3.613  -0.189  0.00  0.00    -0.089 HD
ENDBRANCH  17  18
BRANCH  17  22
ATOM     22  C   UNL     1       0.718  -0.497  -1.257  0.00  0.00    -0.020 C 
ATOM     23  C   UNL     1       2.187  -0.073  -1.207  0.00  0.00    +0.006 C 
BRANCH  22  25
ATOM     24  C   UNL     1      -0.019   1.526   0.010  0.00  0.00    +0.004 C 
ATOM     25  C   UNL     1       0.002  -0.004   0.002  0.00  0.00    -0.001 C 
ENDBRANCH  22  25
ENDBRANCH  17  22
ENDBRANCH   1  17
TORSDOF 6
