REMARK  Name = ZINC09144537
REMARK  7 active torsions:
REMARK  status: ('A' for Active; 'I' for Inactive)
REMARK    1  A    between atoms: C_1  and  C_2
REMARK    2  A    between atoms: C_5  and  N_9
REMARK    3  A    between atoms: C_7  and  O_8
REMARK    4  A    between atoms: C_10  and  C_12
REMARK    5  A    between atoms: C_16  and  N_30
REMARK    6  A    between atoms: N_22  and  N_23
REMARK    7  A    between atoms: N_23  and  C_24
REMARK                            x       y       z     vdW  Elec       q    Type
REMARK                         _______ _______ _______ _____ _____    ______ ____
ROOT
ATOM      1  C   UNL     1       4.839   1.072  -0.250  0.00  0.00    +0.099 A 
ATOM      2  C   UNL     1       6.053   1.780  -0.264  0.00  0.00    +0.030 A 
ATOM      3  C   UNL     1       7.248   1.050  -0.382  0.00  0.00    +0.020 A 
ATOM      4  C   UNL     1       8.495   1.701  -0.397  0.00  0.00    +0.044 A 
ATOM      5  C   UNL     1       9.637   0.969  -0.518  0.00  0.00    +0.127 A 
ATOM      6  C   UNL     1       9.583  -0.419  -0.627  0.00  0.00    +0.036 A 
ATOM      7  C   UNL     1       8.377  -1.083  -0.614  0.00  0.00    +0.049 A 
ATOM      8  C   UNL     1       7.191  -0.363  -0.492  0.00  0.00    +0.138 A 
ATOM      9  O   UNL     1       6.005  -0.996  -0.478  0.00  0.00    -0.437 OA
ATOM     10  C   UNL     1       4.855  -0.323  -0.362  0.00  0.00    +0.224 A 
ATOM     11  N   UNL     1       3.680  -1.007  -0.353  0.00  0.00    -0.276 N 
ATOM     12  H   UNL     1       2.728  -0.464  -0.258  0.00  0.00    +0.187 HD
ENDROOT
BRANCH   1  14
ATOM     13  N   UNL     1       2.501   1.201   0.472  0.00  0.00    -0.281 N 
ATOM     14  C   UNL     1       3.554   1.796  -0.123  0.00  0.00    +0.253 C 
ATOM     15  O   UNL     1       3.448   2.927  -0.556  0.00  0.00    -0.270 OA
ATOM     16  H   UNL     1       2.617   0.207   0.930  0.00  0.00    +0.155 HD
BRANCH  13  21
ATOM     17  C   UNL     1      -2.536   3.812   0.615  0.00  0.00    +0.047 C 
ATOM     18  C   UNL     1      -1.198   3.120   0.578  0.00  0.00    -0.009 A 
ATOM     19  C   UNL     1      -1.136   1.745   0.456  0.00  0.00    +0.009 A 
ATOM     20  C   UNL     1       0.089   1.107   0.421  0.00  0.00    +0.024 A 
ATOM     21  C   UNL     1       1.262   1.847   0.508  0.00  0.00    +0.037 A 
ATOM     22  C   UNL     1       1.201   3.228   0.630  0.00  0.00    +0.069 A 
ATOM     23  C   UNL     1      -0.030   3.864   0.670  0.00  0.00    +0.122 A 
BRANCH  23  24
ATOM     24  O   UNL     1      -0.093   5.216   0.795  0.00  0.00    -0.506 OA
ATOM     25  H   UNL     1       0.833   5.805   0.869  0.00  0.00    +0.292 HD
ENDBRANCH  23  24
ENDBRANCH  13  21
ENDBRANCH   1  14
BRANCH   5  26
ATOM     26  N   UNL     1      10.948   1.655  -0.535  0.00  0.00    +0.056 N 
ATOM     27  O   UNL     1      12.057   0.953  -0.652  0.00  0.00    -0.126 OA
ATOM     28  O   UNL     1      11.007   2.967  -0.433  0.00  0.00    -0.126 OA
ENDBRANCH   5  26
BRANCH  11  29
ATOM     29  N   UNL     1       3.682  -2.293  -0.456  0.00  0.00    -0.258 N 
ATOM     30  H   UNL     1       4.633  -2.836  -0.551  0.00  0.00    +0.172 HD
BRANCH  29  31
ATOM     31  C   UNL     1       2.490  -2.986  -0.447  0.00  0.00    +0.046 A 
ATOM     32  C   UNL     1       1.280  -2.300  -0.321  0.00  0.00    +0.024 A 
ATOM     33  C   UNL     1       0.092  -2.999  -0.318  0.00  0.00    +0.002 A 
ATOM     34  C   UNL     1       0.097  -4.379  -0.428  0.00  0.00    +0.000 A 
ATOM     35  C   UNL     1       1.294  -5.066  -0.548  0.00  0.00    +0.002 A 
ATOM     36  C   UNL     1       2.488  -4.379  -0.558  0.00  0.00    +0.024 A 
ENDBRANCH  29  31
ENDBRANCH  11  29
TORSDOF 6
