REMARK  Name = ZINC59804440
REMARK  10 active torsions:
REMARK  status: ('A' for Active; 'I' for Inactive)
REMARK    1  A    between atoms: C_1  and  C_2
REMARK    2  A    between atoms: C_2  and  C_28
REMARK    3  A    between atoms: C_4  and  N_10
REMARK    4  A    between atoms: C_6  and  C_8
REMARK    5  A    between atoms: C_6  and  C_9
REMARK    6  A    between atoms: C_11  and  C_13
REMARK    7  A    between atoms: C_13  and  S_14
REMARK    8  A    between atoms: S_14  and  C_15
REMARK    9  A    between atoms: C_18  and  C_21
REMARK   10  A    between atoms: N_19  and  N_20
REMARK                            x       y       z     vdW  Elec       q    Type
REMARK                         _______ _______ _______ _____ _____    ______ ____
ROOT
ATOM      1  C   UNL     1      -5.934  -1.037   1.621  0.00  0.00    +0.173 C 
ENDROOT
BRANCH   1   3
ATOM      2  N   UNL     1      -3.540  -0.922   1.007  0.00  0.00    -0.312 N 
ATOM      3  C   UNL     1      -4.546  -0.473   1.784  0.00  0.00    +0.224 C 
ATOM      4  O   UNL     1      -4.333   0.384   2.615  0.00  0.00    -0.275 OA
ATOM      5  H   UNL     1      -3.710  -1.608   0.342  0.00  0.00    +0.149 HD
BRANCH   2   9
ATOM      6  C   UNL     1      -0.019   1.528   0.010  0.00  0.00    -0.010 C 
ATOM      7  C   UNL     1       0.002  -0.004   0.002  0.00  0.00    -0.072 C 
ATOM      8  C   UNL     1      -1.419  -0.538  -0.145  0.00  0.00    +0.009 C 
ATOM      9  C   UNL     1      -2.188  -0.373   1.166  0.00  0.00    +0.070 C 
ATOM     10  C   UNL     1      -1.451  -1.155   2.253  0.00  0.00    +0.009 C 
ATOM     11  C   UNL     1      -0.030  -0.627   2.418  0.00  0.00    -0.072 C 
ATOM     12  N   UNL     1       0.697  -0.529   1.164  0.00  0.00    +0.386 N 
ATOM     13  C   UNL     1       0.730  -1.621   3.326  0.00  0.00    -0.010 C 
ATOM     14  C   UNL     1      -0.059   0.719   3.151  0.00  0.00    -0.010 C 
ATOM     15  C   UNL     1       0.791  -0.440  -1.254  0.00  0.00    -0.010 C 
ATOM     16  H   UNL     1       1.056  -1.460   0.929  0.00  0.00    -0.084 HD
ATOM     17  H   UNL     1       1.534   0.040   1.322  0.00  0.00    -0.084 HD
ENDBRANCH   2   9
ENDBRANCH   1   3
BRANCH   1  18
ATOM     18  S   UNL     1      -7.054  -0.236   2.801  0.00  0.00    -0.075 S 
BRANCH  18  19
ATOM     19  C   UNL     1      -8.614  -0.994   2.488  0.00  0.00    +0.209 A 
ATOM     20  N   UNL     1      -8.863  -1.927   1.597  0.00  0.00    -0.121 NA
ATOM     21  N   UNL     1     -10.106  -2.253   1.635  0.00  0.00    -0.127 NA
ATOM     22  C   UNL     1     -10.726  -1.549   2.553  0.00  0.00    +0.182 A 
ATOM     23  N   UNL     1      -9.789  -0.724   3.131  0.00  0.00    -0.224 N 
BRANCH  22  24
ATOM     24  C   UNL     1     -12.161  -1.630   2.902  0.00  0.00    +0.021 A 
ATOM     25  C   UNL     1     -12.755  -0.620   3.659  0.00  0.00    +0.014 A 
ATOM     26  C   UNL     1     -14.094  -0.700   3.982  0.00  0.00    +0.039 A 
ATOM     27  C   UNL     1     -14.848  -1.782   3.557  0.00  0.00    +0.123 A 
ATOM     28  C   UNL     1     -14.262  -2.788   2.804  0.00  0.00    +0.039 A 
ATOM     29  C   UNL     1     -12.926  -2.715   2.471  0.00  0.00    +0.014 A 
ATOM     30  F   UNL     1     -16.158  -1.857   3.876  0.00  0.00    -0.205 F 
ENDBRANCH  22  24
BRANCH  23  31
ATOM     31  N   UNL     1      -9.992   0.179   4.136  0.00  0.00    -0.295 N 
ATOM     32  H   UNL     1     -10.242   1.083   3.765  0.00  0.00    +0.163 HD
ATOM     33  H   UNL     1     -10.692  -0.152   4.783  0.00  0.00    +0.163 HD
ENDBRANCH  23  31
ENDBRANCH  18  19
ENDBRANCH   1  18
TORSDOF 6
