REMARK  Name = ZINC55161069
REMARK  7 active torsions:
REMARK  status: ('A' for Active; 'I' for Inactive)
REMARK    1  A    between atoms: C_1  and  C_2
REMARK    2  A    between atoms: C_2  and  C_3
REMARK    3  A    between atoms: C_6  and  C_9
REMARK    4  A    between atoms: C_9  and  N_10
REMARK    5  A    between atoms: C_11  and  C_13
REMARK    6  A    between atoms: C_18  and  C_21
REMARK    7  A    between atoms: C_21  and  N_22
REMARK                            x       y       z     vdW  Elec       q    Type
REMARK                         _______ _______ _______ _____ _____    ______ ____
ROOT
ATOM      1  N   UNL     1      -4.966  -4.181  -1.155  0.00  0.00    -0.315 N 
ATOM      2  C   UNL     1      -6.124  -4.870  -1.147  0.00  0.00    +0.216 C 
ATOM      3  O   UNL     1      -7.182  -4.278  -1.134  0.00  0.00    -0.276 OA
ATOM      4  H   UNL     1      -4.120  -4.654  -1.165  0.00  0.00    +0.149 HD
ENDROOT
BRANCH   2   5
ATOM      5  C   UNL     1      -6.104  -6.377  -1.156  0.00  0.00    +0.075 C 
ATOM      6  C   UNL     1      -5.364  -6.884   0.084  0.00  0.00    +0.013 C 
ATOM      7  C   UNL     1      -6.080  -6.391   1.343  0.00  0.00    +0.001 C 
ATOM      8  C   UNL     1      -7.515  -6.920   1.354  0.00  0.00    +0.002 C 
ATOM      9  C   UNL     1      -8.255  -6.413   0.114  0.00  0.00    -0.028 C 
ATOM     10  C   UNL     1      -7.539  -6.907  -1.145  0.00  0.00    +0.014 C 
BRANCH   9  11
ATOM     11  C   UNL     1      -9.690  -6.943   0.125  0.00  0.00    -0.083 C 
BRANCH  11  12
ATOM     12  N   UNL     1     -10.414  -6.373   1.270  0.00  0.00    +0.378 N 
ATOM     13  H   UNL     1      -9.951  -6.639   2.126  0.00  0.00    -0.090 HD
ATOM     14  H   UNL     1     -10.427  -5.367   1.192  0.00  0.00    -0.090 HD
ATOM     15  H   UNL     1     -11.361  -6.722   1.277  0.00  0.00    -0.090 HD
ENDBRANCH  11  12
ENDBRANCH   9  11
ENDBRANCH   2   5
BRANCH   1  16
ATOM     16  C   UNL     1      -4.986  -2.716  -1.147  0.00  0.00    +0.107 C 
BRANCH  16  20
ATOM     17  C   UNL     1      -1.433  -0.534   0.013  0.00  0.00    -0.011 C 
ATOM     18  C   UNL     1      -2.135  -0.131  -1.286  0.00  0.00    +0.004 C 
ATOM     19  C   UNL     1      -3.571  -0.661  -1.275  0.00  0.00    +0.005 C 
ATOM     20  C   UNL     1      -3.551  -2.186  -1.157  0.00  0.00    +0.006 C 
ATOM     21  C   UNL     1      -2.849  -2.589   0.141  0.00  0.00    +0.005 C 
ATOM     22  C   UNL     1      -1.413  -2.059   0.130  0.00  0.00    +0.004 C 
BRANCH  17  24
ATOM     23  C   UNL     1      -0.019   1.526   0.010  0.00  0.00    +0.004 C 
ATOM     24  C   UNL     1       0.002  -0.004   0.002  0.00  0.00    -0.000 C 
ENDBRANCH  17  24
ENDBRANCH  16  20
ENDBRANCH   1  16
TORSDOF 6
