REMARK  Name = ZINC09271564
REMARK  10 active torsions:
REMARK  status: ('A' for Active; 'I' for Inactive)
REMARK    1  A    between atoms: C_1  and  C_2
REMARK    2  A    between atoms: C_2  and  O_3
REMARK    3  A    between atoms: O_3  and  C_4
REMARK    4  A    between atoms: C_9  and  C_10
REMARK    5  A    between atoms: C_12  and  C_36
REMARK    6  A    between atoms: C_14  and  S_23
REMARK    7  A    between atoms: S_23  and  C_24
REMARK    8  A    between atoms: C_24  and  C_25
REMARK    9  A    between atoms: N_27  and  C_28
REMARK   10  A    between atoms: C_31  and  C_35
REMARK                            x       y       z     vdW  Elec       q    Type
REMARK                         _______ _______ _______ _____ _____    ______ ____
ROOT
ATOM      1  C   UNL     1      -1.341   2.091   0.019  0.00  0.00    +0.081 C 
ATOM      2  C   UNL     1      -2.096   1.809  -1.282  0.00  0.00    +0.070 C 
ATOM      3  C   UNL     1      -3.527   2.258  -1.131  0.00  0.00    +0.111 C 
ATOM      4  N   UNL     1      -4.138   2.167   0.021  0.00  0.00    -0.248 NA
ATOM      5  C   UNL     1      -3.535   1.694   1.117  0.00  0.00    +0.031 C 
ATOM      6  C   UNL     1      -2.177   1.617   1.186  0.00  0.00    +0.112 C 
ATOM      7  C   UNL     1      -1.531   1.110   2.316  0.00  0.00    +0.143 C 
ATOM      8  O   UNL     1      -0.317   1.050   2.336  0.00  0.00    -0.297 OA
ATOM      9  C   UNL     1      -2.317   0.636   3.509  0.00  0.00    +0.075 C 
ATOM     10  C   UNL     1      -3.627   1.426   3.586  0.00  0.00    +0.013 C 
ATOM     11  C   UNL     1      -4.391   1.246   2.277  0.00  0.00    +0.052 C 
ENDROOT
BRANCH   1  17
ATOM     12  C   UNL     1       1.166   2.061  -0.041  0.00  0.00    +0.124 A 
ATOM     13  C   UNL     1       2.374   1.380  -0.055  0.00  0.00    +0.046 A 
ATOM     14  C   UNL     1       2.388  -0.001  -0.022  0.00  0.00    +0.004 A 
ATOM     15  C   UNL     1       1.198  -0.704   0.028  0.00  0.00    +0.001 A 
ATOM     16  C   UNL     1      -0.008  -0.027   0.043  0.00  0.00    +0.008 A 
ATOM     17  C   UNL     1      -0.026   1.354   0.009  0.00  0.00    +0.003 A 
BRANCH  12  18
ATOM     18  O   UNL     1       1.150   3.420  -0.075  0.00  0.00    -0.492 OA
BRANCH  18  20
ATOM     19  C   UNL     1       2.197   5.596  -0.159  0.00  0.00    +0.048 C 
ATOM     20  C   UNL     1       2.415   4.082  -0.126  0.00  0.00    +0.225 C 
ENDBRANCH  18  20
ENDBRANCH  12  18
ENDBRANCH   1  17
BRANCH   2  21
ATOM     21  C   UNL     1      -1.901   1.246  -2.628  0.00  0.00    +0.098 C 
ATOM     22  N   UNL     1      -1.750   0.810  -3.666  0.00  0.00    -0.191 NA
ENDBRANCH   2  21
BRANCH   3  23
ATOM     23  S   UNL     1      -4.355   2.913  -2.479  0.00  0.00    -0.096 S 
BRANCH  23  24
ATOM     24  C   UNL     1      -5.955   3.278  -1.718  0.00  0.00    +0.172 C 
BRANCH  24  25
ATOM     25  C   UNL     1      -6.876   3.881  -2.747  0.00  0.00    +0.227 C 
ATOM     26  O   UNL     1      -6.488   4.047  -3.884  0.00  0.00    -0.275 OA
ATOM     27  N   UNL     1      -8.130   4.235  -2.405  0.00  0.00    -0.285 N 
ATOM     28  H   UNL     1      -8.417   4.173  -1.480  0.00  0.00    +0.155 HD
BRANCH  27  29
ATOM     29  C   UNL     1      -9.020   4.692  -3.384  0.00  0.00    +0.035 A 
ATOM     30  C   UNL     1      -8.972   4.167  -4.668  0.00  0.00    +0.023 A 
ATOM     31  C   UNL     1      -9.851   4.619  -5.632  0.00  0.00    +0.006 A 
ATOM     32  C   UNL     1     -10.779   5.595  -5.320  0.00  0.00    -0.032 A 
ATOM     33  C   UNL     1     -10.830   6.122  -4.041  0.00  0.00    +0.046 A 
ATOM     34  C   UNL     1      -9.956   5.668  -3.071  0.00  0.00    +0.043 A 
ATOM     35 CL   UNL     1     -11.997   7.347  -3.654  0.00  0.00    -0.083 Cl
ATOM     36  C   UNL     1     -11.737   6.087  -6.374  0.00  0.00    +0.045 C 
ENDBRANCH  27  29
ENDBRANCH  24  25
ENDBRANCH  23  24
ENDBRANCH   3  23
TORSDOF 8
