REMARK  Name = ZINC04349676
REMARK  12 active torsions:
REMARK  status: ('A' for Active; 'I' for Inactive)
REMARK    1  A    between atoms: C_3  and  O_22
REMARK    2  A    between atoms: C_4  and  O_21
REMARK    3  A    between atoms: C_6  and  C_7
REMARK    4  A    between atoms: C_8  and  O_20
REMARK    5  A    between atoms: C_12  and  O_19
REMARK    6  A    between atoms: C_14  and  O_18
REMARK    7  A    between atoms: O_22  and  C_23
REMARK    8  A    between atoms: C_25  and  O_38
REMARK    9  A    between atoms: C_27  and  O_37
REMARK   10  A    between atoms: C_29  and  O_36
REMARK   11  A    between atoms: C_31  and  C_34
REMARK   12  A    between atoms: C_34  and  O_35
REMARK                            x       y       z     vdW  Elec       q    Type
REMARK                         _______ _______ _______ _____ _____    ______ ____
ROOT
ATOM      1  C   UNL     1       3.353   2.611   6.031  0.00  0.00    +0.015 A 
ATOM      2  C   UNL     1       4.055   2.924   7.176  0.00  0.00    +0.050 A 
ATOM      3  C   UNL     1       5.352   3.408   7.088  0.00  0.00    +0.165 A 
ATOM      4  C   UNL     1       5.955   3.575   5.842  0.00  0.00    +0.159 A 
ATOM      5  C   UNL     1       5.260   3.259   4.691  0.00  0.00    +0.060 A 
ATOM      6  C   UNL     1       3.953   2.771   4.779  0.00  0.00    +0.025 A 
ENDROOT
BRANCH   6   7
ATOM      7  C   UNL     1       3.206   2.432   3.554  0.00  0.00    +0.181 A 
ATOM      8  C   UNL     1       2.561   1.233   3.488  0.00  0.00    +0.208 A 
ATOM      9  C   UNL     1       1.839   0.892   2.316  0.00  0.00    +0.238 A 
ATOM     10  O   UNL     1       1.249  -0.172   2.221  0.00  0.00    -0.283 OA
ATOM     11  C   UNL     1       1.828   1.872   1.218  0.00  0.00    +0.109 A 
ATOM     12  C   UNL     1       1.140   1.619   0.024  0.00  0.00    +0.135 A 
ATOM     13  C   UNL     1       1.149   2.567  -0.982  0.00  0.00    +0.091 A 
ATOM     14  C   UNL     1       1.841   3.761  -0.810  0.00  0.00    +0.124 A 
ATOM     15  C   UNL     1       2.529   4.016   0.366  0.00  0.00    +0.092 A 
ATOM     16  C   UNL     1       2.532   3.077   1.386  0.00  0.00    +0.147 A 
ATOM     17  O   UNL     1       3.197   3.312   2.537  0.00  0.00    -0.451 OA
BRANCH  14  18
ATOM     18  O   UNL     1       1.844   4.685  -1.804  0.00  0.00    -0.507 OA
ATOM     19  H   UNL     1       1.120   5.324  -1.750  0.00  0.00    +0.292 HD
ENDBRANCH  14  18
BRANCH  12  20
ATOM     20  O   UNL     1       0.465   0.453  -0.142  0.00  0.00    -0.506 OA
ATOM     21  H   UNL     1       0.994  -0.256  -0.533  0.00  0.00    +0.292 HD
ENDBRANCH  12  20
BRANCH   8  22
ATOM     22  O   UNL     1       2.611   0.370   4.539  0.00  0.00    -0.501 OA
ATOM     23  H   UNL     1       3.351  -0.251   4.504  0.00  0.00    +0.292 HD
ENDBRANCH   8  22
ENDBRANCH   6   7
BRANCH   4  24
ATOM     24  O   UNL     1       7.227   4.049   5.760  0.00  0.00    -0.503 OA
ATOM     25  H   UNL     1       7.284   5.012   5.697  0.00  0.00    +0.292 HD
ENDBRANCH   4  24
BRANCH   3  26
ATOM     26  O   UNL     1       6.037   3.720   8.220  0.00  0.00    -0.457 OA
BRANCH  26  27
ATOM     27  C   UNL     1       5.360   3.525   9.463  0.00  0.00    +0.339 C 
ATOM     28  C   UNL     1       6.322   3.809  10.619  0.00  0.00    +0.214 C 
ATOM     29  C   UNL     1       6.764   5.275  10.555  0.00  0.00    +0.180 C 
ATOM     30  C   UNL     1       5.524   6.173  10.597  0.00  0.00    +0.177 C 
ATOM     31  C   UNL     1       4.593   5.797   9.441  0.00  0.00    +0.179 C 
ATOM     32  O   UNL     1       4.244   4.414   9.543  0.00  0.00    -0.331 OA
BRANCH  30  33
ATOM     33  O   UNL     1       4.842   5.989  11.839  0.00  0.00    -0.386 OA
ATOM     34  H   UNL     1       5.374   6.209  12.616  0.00  0.00    +0.210 HD
ENDBRANCH  30  33
BRANCH  29  35
ATOM     35  O   UNL     1       7.606   5.571  11.672  0.00  0.00    -0.386 OA
ATOM     36  H   UNL     1       8.412   5.037  11.709  0.00  0.00    +0.210 HD
ENDBRANCH  29  35
BRANCH  28  37
ATOM     37  O   UNL     1       5.661   3.563  11.862  0.00  0.00    -0.383 OA
ATOM     38  H   UNL     1       5.350   2.654  11.968  0.00  0.00    +0.210 HD
ENDBRANCH  28  37
BRANCH  31  39
ATOM     39  C   UNL     1       3.324   6.649   9.511  0.00  0.00    +0.190 C 
BRANCH  39  40
ATOM     40  O   UNL     1       2.506   6.380   8.370  0.00  0.00    -0.392 OA
ATOM     41  H   UNL     1       1.683   6.887   8.348  0.00  0.00    +0.210 HD
ENDBRANCH  39  40
ENDBRANCH  31  39
ENDBRANCH  26  27
ENDBRANCH   3  26
TORSDOF 12
