REMARK  Name = ZINC09489953
REMARK  6 active torsions:
REMARK  status: ('A' for Active; 'I' for Inactive)
REMARK    1  A    between atoms: C_1  and  C_2
REMARK    2  A    between atoms: C_9  and  N_13
REMARK    3  A    between atoms: C_10  and  C_11
REMARK    4  A    between atoms: C_14  and  C_16
REMARK    5  A    between atoms: C_21  and  C_34
REMARK    6  A    between atoms: C_24  and  C_27
REMARK                            x       y       z     vdW  Elec       q    Type
REMARK                         _______ _______ _______ _____ _____    ______ ____
ROOT
ATOM      1  C   UNL     1       2.615  -7.459   3.392  0.00  0.00    +0.149 A 
ATOM      2  C   UNL     1       2.955  -7.872   4.700  0.00  0.00    +0.078 A 
ATOM      3  C   UNL     1       3.219  -9.192   4.654  0.00  0.00    +0.119 A 
ATOM      4  N   UNL     1       3.057  -9.614   3.365  0.00  0.00    -0.238 N 
ATOM      5  N   UNL     1       2.674  -8.514   2.599  0.00  0.00    -0.164 NA
ATOM      6  C   UNL     1       3.264 -10.999   2.931  0.00  0.00    +0.215 C 
ATOM      7  C   UNL     1       4.118 -11.724   3.976  0.00  0.00    +0.063 C 
ATOM      8  C   UNL     1       3.533 -11.500   5.375  0.00  0.00    +0.104 C 
ATOM      9  N   UNL     1       3.595 -10.058   5.685  0.00  0.00    -0.322 N 
ATOM     10  H   UNL     1       3.880  -9.731   6.552  0.00  0.00    +0.148 HD
ENDROOT
BRANCH   8  11
ATOM     11  C   UNL     1       2.100 -11.967   5.405  0.00  0.00    -0.027 A 
ATOM     12  C   UNL     1       1.100 -11.162   4.892  0.00  0.00    +0.007 A 
ATOM     13  C   UNL     1      -0.214 -11.589   4.919  0.00  0.00    +0.020 A 
ATOM     14  C   UNL     1      -0.529 -12.823   5.460  0.00  0.00    +0.041 A 
ATOM     15  C   UNL     1       0.472 -13.628   5.973  0.00  0.00    +0.020 A 
ATOM     16  C   UNL     1       1.787 -13.202   5.941  0.00  0.00    +0.007 A 
ATOM     17 CL   UNL     1      -2.179 -13.360   5.495  0.00  0.00    -0.084 Cl
ENDBRANCH   8  11
BRANCH   1  19
ATOM     18  N   UNL     1       1.941  -5.827   1.698  0.00  0.00    -0.274 N 
ATOM     19  C   UNL     1       2.251  -6.087   2.983  0.00  0.00    +0.269 C 
ATOM     20  O   UNL     1       2.230  -5.193   3.806  0.00  0.00    -0.268 OA
ATOM     21  H   UNL     1       1.957  -6.540   1.041  0.00  0.00    +0.156 HD
BRANCH  18  29
ATOM     22  C   UNL     1      -0.019   1.526   0.010  0.00  0.00    +0.008 C 
ATOM     23  C   UNL     1       0.002  -0.004   0.002  0.00  0.00    -0.009 C 
ATOM     24  C   UNL     1       0.724  -0.500  -1.254  0.00  0.00    +0.008 C 
ATOM     25  C   UNL     1       0.536  -2.012  -1.399  0.00  0.00    +0.037 C 
ATOM     26  C   UNL     1       0.935  -2.680  -0.092  0.00  0.00    -0.018 A 
ATOM     27  C   UNL     1       1.019  -1.977   1.059  0.00  0.00    -0.004 A 
ATOM     28  S   UNL     1       1.508  -3.165   2.275  0.00  0.00    -0.077 S 
ATOM     29  C   UNL     1       1.599  -4.539   1.314  0.00  0.00    +0.090 A 
ATOM     30  C   UNL     1       1.254  -4.090   0.049  0.00  0.00    +0.084 A 
ATOM     31  C   UNL     1       0.750  -0.515   1.242  0.00  0.00    +0.046 C 
BRANCH  30  32
ATOM     32  C   UNL     1       1.212  -4.980  -1.072  0.00  0.00    +0.102 C 
ATOM     33  N   UNL     1       1.180  -5.686  -1.962  0.00  0.00    -0.191 NA
ENDBRANCH  30  32
ENDBRANCH  18  29
ENDBRANCH   1  19
BRANCH   6  34
ATOM     34  C   UNL     1       3.983 -11.010   1.580  0.00  0.00    +0.412 C 
ATOM     35  F   UNL     1       5.222 -10.372   1.706  0.00  0.00    -0.168 F 
ATOM     36  F   UNL     1       4.179 -12.332   1.168  0.00  0.00    -0.168 F 
ATOM     37  F   UNL     1       3.205 -10.336   0.632  0.00  0.00    -0.168 F 
ENDBRANCH   6  34
TORSDOF 5
