REMARK  Name = ZINC39469353
REMARK  6 active torsions:
REMARK  status: ('A' for Active; 'I' for Inactive)
REMARK    1  A    between atoms: C_1  and  C_2
REMARK    2  A    between atoms: C_2  and  O_3
REMARK    3  A    between atoms: O_3  and  P_4
REMARK    4  A    between atoms: C_12  and  O_29
REMARK    5  A    between atoms: C_13  and  C_22
REMARK    6  A    between atoms: C_27  and  O_28
REMARK                            x       y       z     vdW  Elec       q    Type
REMARK                         _______ _______ _______ _____ _____    ______ ____
ROOT
ATOM      1  P   UNL     1       0.877  -2.026  -1.510  0.00  0.00    +0.421 P 
ATOM      2  O   UNL     1       1.284  -2.763  -0.293  0.00  0.00    -0.239 OA
ATOM      3  N   UNL     1      -0.510  -2.665  -2.133  0.00  0.00    -0.156 NA
ATOM      4  N   UNL     1      -0.407  -3.826  -2.873  0.00  0.00    -0.228 NA
ATOM      5  C   UNL     1      -1.755  -4.147  -3.373  0.00  0.00    +0.111 C 
ATOM      6  C   UNL     1      -1.748  -5.444  -4.169  0.00  0.00    +0.038 C 
ATOM      7  C   UNL     1      -1.321  -6.598  -3.302  0.00  0.00    +0.024 C 
ATOM      8  C   UNL     1      -0.836  -7.703  -3.870  0.00  0.00    +0.121 C 
ATOM      9  C   UNL     1      -0.739  -7.777  -5.347  0.00  0.00    +0.023 C 
ATOM     10  C   UNL     1      -0.711  -6.644  -6.066  0.00  0.00    -0.011 C 
ATOM     11  C   UNL     1      -0.774  -5.320  -5.344  0.00  0.00    +0.022 C 
ATOM     12  C   UNL     1       0.611  -4.975  -4.795  0.00  0.00    +0.031 C 
ATOM     13  C   UNL     1       0.557  -3.686  -3.968  0.00  0.00    +0.100 C 
ATOM     14  C   UNL     1       1.974  -3.429  -3.441  0.00  0.00    +0.191 C 
ATOM     15  O   UNL     1       1.994  -2.208  -2.680  0.00  0.00    -0.294 OA
ATOM     16  H   UNL     1      -1.370  -2.240  -1.985  0.00  0.00    +0.153 HD
ENDROOT
BRANCH   9  17
ATOM     17  C   UNL     1      -0.672  -9.093  -6.026  0.00  0.00    +0.027 A 
ATOM     18  C   UNL     1       0.537  -9.555  -6.542  0.00  0.00    +0.012 A 
ATOM     19  C   UNL     1       0.594 -10.781  -7.173  0.00  0.00    +0.001 A 
ATOM     20  C   UNL     1      -0.547 -11.555  -7.296  0.00  0.00    +0.004 A 
ATOM     21  C   UNL     1      -1.752 -11.107  -6.788  0.00  0.00    +0.046 A 
ATOM     22  C   UNL     1      -1.822  -9.880  -6.146  0.00  0.00    +0.125 A 
BRANCH  22  23
ATOM     23  O   UNL     1      -3.004  -9.442  -5.641  0.00  0.00    -0.506 OA
ATOM     24  H   UNL     1      -3.532  -8.926  -6.266  0.00  0.00    +0.292 HD
ENDBRANCH  22  23
ENDBRANCH   9  17
BRANCH   8  25
ATOM     25  O   UNL     1      -0.436  -8.751  -3.103  0.00  0.00    -0.506 OA
ATOM     26  H   UNL     1      -0.539  -8.604  -2.153  0.00  0.00    +0.292 HD
ENDBRANCH   8  25
BRANCH   1  27
ATOM     27  O   UNL     1       0.671  -0.465  -1.174  0.00  0.00    -0.296 OA
BRANCH  27  29
ATOM     28  C   UNL     1      -0.019   1.526   0.010  0.00  0.00    +0.035 C 
ATOM     29  C   UNL     1       0.002  -0.004   0.002  0.00  0.00    +0.168 C 
ENDBRANCH  27  29
ENDBRANCH   1  27
TORSDOF 5
