REMARK  Name = ZINC14156518
REMARK  9 active torsions:
REMARK  status: ('A' for Active; 'I' for Inactive)
REMARK    1  A    between atoms: C_1  and  C_2
REMARK    2  A    between atoms: C_6  and  N_9
REMARK    3  A    between atoms: N_9  and  C_10
REMARK    4  A    between atoms: C_10  and  N_12
REMARK    5  A    between atoms: N_14  and  C_15
REMARK    6  A    between atoms: C_15  and  C_16
REMARK    7  A    between atoms: C_16  and  C_17
REMARK    8  A    between atoms: C_26  and  C_31
REMARK    9  A    between atoms: C_28  and  C_30
REMARK                            x       y       z     vdW  Elec       q    Type
REMARK                         _______ _______ _______ _____ _____    ______ ____
ROOT
ATOM      1  N   UNL     1      -0.215   1.612   3.990  0.00  0.00    -0.159 NA
ATOM      2  C   UNL     1       0.416   1.444   2.841  0.00  0.00    +0.195 C 
ATOM      3  N   UNL     1      -0.039   2.068   1.715  0.00  0.00    -0.357 N 
ATOM      4  N   UNL     1       1.525   0.644   2.779  0.00  0.00    -0.297 N 
ATOM      5  C   UNL     1       1.923  -0.078   3.896  0.00  0.00    +0.231 A 
ATOM      6  N   UNL     1       1.164  -0.061   4.981  0.00  0.00    -0.217 NA
ATOM      7  C   UNL     1       1.512  -0.742   6.060  0.00  0.00    +0.044 A 
ATOM      8  C   UNL     1       2.691  -1.471   6.049  0.00  0.00    +0.046 A 
ATOM      9  C   UNL     1       3.464  -1.462   4.898  0.00  0.00    +0.044 A 
ATOM     10  N   UNL     1       3.055  -0.764   3.852  0.00  0.00    -0.217 NA
ATOM     11  C   UNL     1       4.753  -2.240   4.840  0.00  0.00    +0.066 C 
ATOM     12  C   UNL     1       0.639  -0.722   7.288  0.00  0.00    +0.066 C 
ATOM     13  H   UNL     1      -0.975   2.646   1.746  0.00  0.00    +0.162 HD
ATOM     14  H   UNL     1       2.102   0.575   1.844  0.00  0.00    +0.171 HD
ENDROOT
BRANCH   1  15
ATOM     15  C   UNL     1      -1.368   2.295   4.029  0.00  0.00    +0.162 C 
ATOM     16  S   UNL     1      -2.751   1.688   3.223  0.00  0.00    -0.016 S 
BRANCH  15  17
ATOM     17  N   UNL     1      -1.438   3.461   4.702  0.00  0.00    -0.294 N 
ATOM     18  H   UNL     1      -0.531   3.891   5.153  0.00  0.00    +0.154 HD
BRANCH  17  24
ATOM     19  C   UNL     1      -4.025   7.641   4.559  0.00  0.00    +0.045 C 
ATOM     20  C   UNL     1      -3.946   6.150   4.763  0.00  0.00    -0.030 A 
ATOM     21  C   UNL     1      -5.088   5.434   5.077  0.00  0.00    +0.005 A 
ATOM     22  C   UNL     1      -5.020   4.066   5.266  0.00  0.00    +0.002 A 
ATOM     23  C   UNL     1      -3.811   3.409   5.142  0.00  0.00    +0.025 A 
ATOM     24  C   UNL     1      -2.663   4.123   4.828  0.00  0.00    +0.051 A 
ATOM     25  C   UNL     1      -2.733   5.500   4.644  0.00  0.00    +0.065 A 
ATOM     26 CL   UNL     1      -1.299   6.399   4.258  0.00  0.00    -0.081 Cl
ENDBRANCH  17  24
ENDBRANCH  15  17
ENDBRANCH   1  15
BRANCH   3  27
ATOM     27  C   UNL     1       0.719   1.969   0.465  0.00  0.00    +0.121 C 
BRANCH  27  28
ATOM     28  C   UNL     1       0.065   2.852  -0.600  0.00  0.00    +0.075 C 
BRANCH  28  29
ATOM     29  C   UNL     1       0.910   2.845  -1.847  0.00  0.00    +0.035 A 
ATOM     30  C   UNL     1       0.491   2.523  -3.085  0.00  0.00    +0.105 A 
ATOM     31  N   UNL     1       1.572   2.648  -3.915  0.00  0.00    -0.352 N 
ATOM     32  H   UNL     1       1.469   2.435  -4.989  0.00  0.00    +0.166 HD
ATOM     33  C   UNL     1       2.615   3.043  -3.154  0.00  0.00    +0.171 A 
ATOM     34  N   UNL     1       2.211   3.163  -1.919  0.00  0.00    -0.350 N 
ATOM     35  H   UNL     1       2.754   3.466  -1.012  0.00  0.00    +0.166 HD
ENDBRANCH  28  29
ENDBRANCH  27  28
ENDBRANCH   3  27
TORSDOF 6
