REMARK  Name = ZINC10013217
REMARK  9 active torsions:
REMARK  status: ('A' for Active; 'I' for Inactive)
REMARK    1  A    between atoms: C_1  and  C_2
REMARK    2  A    between atoms: C_2  and  O_3
REMARK    3  A    between atoms: O_3  and  C_4
REMARK    4  A    between atoms: C_4  and  C_6
REMARK    5  A    between atoms: C_11  and  N_12
REMARK    6  A    between atoms: C_13  and  C_15
REMARK    7  A    between atoms: C_16  and  C_36
REMARK    8  A    between atoms: C_20  and  C_24
REMARK    9  A    between atoms: N_28  and  C_31
REMARK                            x       y       z     vdW  Elec       q    Type
REMARK                         _______ _______ _______ _____ _____    ______ ____
ROOT
ATOM      1  C   UNL     1       3.189  -1.913  -0.032  0.00  0.00    +0.080 A 
ATOM      2  C   UNL     1       3.385  -0.566  -0.029  0.00  0.00    -0.019 A 
ATOM      3  C   UNL     1       2.282   0.299  -0.002  0.00  0.00    +0.051 A 
ATOM      4  C   UNL     1       2.254   1.726   0.006  0.00  0.00    +0.133 A 
ATOM      5  N   UNL     1       1.086   2.347   0.033  0.00  0.00    -0.217 NA
ATOM      6  C   UNL     1      -0.061   1.693   0.053  0.00  0.00    +0.129 A 
ATOM      7  N   UNL     1      -0.102   0.374   0.048  0.00  0.00    -0.225 NA
ATOM      8  C   UNL     1       1.012  -0.328   0.021  0.00  0.00    +0.114 A 
ATOM      9  S   UNL     1       1.410  -2.057   0.005  0.00  0.00    -0.064 S 
ATOM     10  C   UNL     1      -1.352   2.470   0.077  0.00  0.00    +0.088 C 
ATOM     11  N   UNL     1       3.429   2.448  -0.016  0.00  0.00    -0.312 N 
ATOM     12  C   UNL     1       3.645   3.141   1.262  0.00  0.00    +0.125 C 
ATOM     13  C   UNL     1       4.994   3.864   1.226  0.00  0.00    +0.125 C 
ATOM     14  N   UNL     1       5.007   4.815   0.106  0.00  0.00    -0.314 N 
ATOM     15  C   UNL     1       4.792   4.122  -1.172  0.00  0.00    +0.125 C 
ATOM     16  C   UNL     1       3.443   3.399  -1.136  0.00  0.00    +0.125 C 
ATOM     17  C   UNL     1       4.783  -0.005  -0.056  0.00  0.00    +0.046 C 
ENDROOT
BRANCH  14  18
ATOM     18  C   UNL     1       6.191   5.543   0.085  0.00  0.00    +0.099 A 
ATOM     19  C   UNL     1       6.573   6.271   1.207  0.00  0.00    +0.042 A 
ATOM     20  C   UNL     1       7.754   6.991   1.172  0.00  0.00    +0.005 A 
ATOM     21  C   UNL     1       8.516   6.958   0.011  0.00  0.00    +0.018 A 
ATOM     22  C   UNL     1       8.077   6.213  -1.065  0.00  0.00    +0.084 A 
ATOM     23  N   UNL     1       6.925   5.490  -1.064  0.00  0.00    -0.350 N 
ATOM     24  H   UNL     1       6.627   4.938  -1.877  0.00  0.00    +0.166 HD
ENDBRANCH  14  18
BRANCH   1  26
ATOM     25  N   UNL     1       3.803  -4.273  -0.056  0.00  0.00    -0.280 N 
ATOM     26  C   UNL     1       4.193  -2.983  -0.058  0.00  0.00    +0.255 C 
ATOM     27  O   UNL     1       5.378  -2.705  -0.080  0.00  0.00    -0.269 OA
ATOM     28  H   UNL     1       2.861  -4.495  -0.116  0.00  0.00    +0.155 HD
BRANCH  25  34
ATOM     29  C   UNL     1       4.560  -6.495  -0.657  0.00  0.00    +0.080 A 
ATOM     30  C   UNL     1       5.521  -7.504  -0.561  0.00  0.00    +0.017 A 
ATOM     31  C   UNL     1       6.648  -7.309   0.206  0.00  0.00    +0.001 A 
ATOM     32  C   UNL     1       6.835  -6.115   0.884  0.00  0.00    +0.002 A 
ATOM     33  C   UNL     1       5.898  -5.106   0.794  0.00  0.00    +0.024 A 
ATOM     34  C   UNL     1       4.752  -5.287   0.031  0.00  0.00    +0.048 A 
BRANCH  29  35
ATOM     35  C   UNL     1       3.351  -6.697  -1.477  0.00  0.00    +0.341 C 
ATOM     36  O   UNL     1       2.476  -5.854  -1.487  0.00  0.00    -0.245 OA
BRANCH  35  37
ATOM     37  O   UNL     1       3.217  -7.816  -2.215  0.00  0.00    -0.461 OA
BRANCH  37  39
ATOM     38  C   UNL     1       2.028  -9.272  -3.763  0.00  0.00    +0.048 C 
ATOM     39  C   UNL     1       2.001  -7.948  -2.997  0.00  0.00    +0.229 C 
ENDBRANCH  37  39
ENDBRANCH  35  37
ENDBRANCH  29  35
ENDBRANCH  25  34
ENDBRANCH   1  26
TORSDOF 6
