REMARK  Name = ZINC48954164
REMARK  7 active torsions:
REMARK  status: ('A' for Active; 'I' for Inactive)
REMARK    1  A    between atoms: C_4  and  O_10
REMARK    2  A    between atoms: C_5  and  C_7
REMARK    3  A    between atoms: C_7  and  N_9
REMARK    4  A    between atoms: O_10  and  C_11
REMARK    5  A    between atoms: C_11  and  C_12
REMARK    6  A    between atoms: C_12  and  N_13
REMARK    7  A    between atoms: C_17  and  O_20
REMARK                            x       y       z     vdW  Elec       q    Type
REMARK                         _______ _______ _______ _____ _____    ______ ____
ROOT
ATOM      1  O   UNL     1       3.612  -0.606  -0.036  0.00  0.00    -0.493 OA
ENDROOT
BRANCH   1   5
ATOM      2  C   UNL     1      -0.017   1.374   0.010  0.00  0.00    +0.001 A 
ATOM      3  C   UNL     1       1.170   2.089   0.002  0.00  0.00    +0.004 A 
ATOM      4  C   UNL     1       2.383   1.430  -0.013  0.00  0.00    +0.046 A 
ATOM      5  C   UNL     1       2.421   0.044  -0.021  0.00  0.00    +0.130 A 
ATOM      6  C   UNL     1       1.223  -0.684  -0.013  0.00  0.00    +0.045 A 
ATOM      7  C   UNL     1       0.002  -0.004   0.002  0.00  0.00    +0.014 A 
BRANCH   6   8
ATOM      8  C   UNL     1       1.250  -2.157  -0.021  0.00  0.00    +0.080 C 
ATOM      9  S   UNL     1       2.749  -2.985  -0.040  0.00  0.00    -0.035 S 
BRANCH   8  10
ATOM     10  N   UNL     1       0.096  -2.853  -0.014  0.00  0.00    -0.352 N 
ATOM     11  H   UNL     1      -0.753  -2.384  -0.004  0.00  0.00    +0.143 HD
ATOM     12  H   UNL     1       0.114  -3.823  -0.020  0.00  0.00    +0.143 HD
ENDBRANCH   8  10
ENDBRANCH   6   8
ENDBRANCH   1   5
BRANCH   1  13
ATOM     13  C   UNL     1       4.791   0.202  -0.044  0.00  0.00    +0.210 C 
BRANCH  13  14
ATOM     14  C   UNL     1       6.027  -0.699  -0.061  0.00  0.00    -0.037 C 
BRANCH  14  15
ATOM     15  N   UNL     1       6.066  -1.454  -1.320  0.00  0.00    +0.384 N 
ATOM     16  C   UNL     1       6.238  -0.523  -2.442  0.00  0.00    -0.078 C 
ATOM     17  C   UNL     1       6.197  -1.295  -3.762  0.00  0.00    -0.016 C 
ATOM     18  C   UNL     1       7.327  -2.330  -3.777  0.00  0.00    +0.027 C 
ATOM     19  C   UNL     1       7.179  -3.250  -2.562  0.00  0.00    +0.098 C 
ATOM     20  C   UNL     1       7.183  -2.405  -1.286  0.00  0.00    -0.047 C 
ATOM     21  H   UNL     1       5.199  -1.959  -1.435  0.00  0.00    -0.082 HD
BRANCH  19  22
ATOM     22  O   UNL     1       8.269  -4.173  -2.527  0.00  0.00    -0.394 OA
ATOM     23  H   UNL     1       8.329  -4.740  -3.308  0.00  0.00    +0.210 HD
ENDBRANCH  19  22
ENDBRANCH  14  15
ENDBRANCH  13  14
ENDBRANCH   1  13
TORSDOF 7
