REMARK  Name = ZINC39528088
REMARK  8 active torsions:
REMARK  status: ('A' for Active; 'I' for Inactive)
REMARK    1  A    between atoms: C_4  and  C_7
REMARK    2  A    between atoms: C_7  and  C_8
REMARK    3  A    between atoms: C_11  and  N_21
REMARK    4  A    between atoms: C_12  and  C_14
REMARK    5  A    between atoms: C_14  and  C_15
REMARK    6  A    between atoms: C_25  and  S_28
REMARK    7  A    between atoms: S_28  and  O_31
REMARK    8  A    between atoms: O_31  and  C_32
REMARK                            x       y       z     vdW  Elec       q    Type
REMARK                         _______ _______ _______ _____ _____    ______ ____
ROOT
ATOM      1  C   UNL     1       4.260  -2.051   2.123  0.00  0.00    -0.043 A 
ATOM      2  C   UNL     1       5.101  -1.147   2.746  0.00  0.00    +0.006 A 
ATOM      3  C   UNL     1       5.301  -1.216   4.111  0.00  0.00    +0.023 A 
ATOM      4  C   UNL     1       4.656  -2.194   4.857  0.00  0.00    +0.033 A 
ATOM      5  C   UNL     1       3.812  -3.099   4.228  0.00  0.00    -0.022 A 
ATOM      6  C   UNL     1       3.612  -3.022   2.864  0.00  0.00    +0.009 A 
ENDROOT
BRANCH   4   7
ATOM      7  N   UNL     1       4.856  -2.266   6.238  0.00  0.00    -0.331 N 
ATOM      8  C   UNL     1       5.862  -3.175   6.810  0.00  0.00    +0.086 C 
ATOM      9  C   UNL     1       5.198  -3.997   7.920  0.00  0.00    -0.061 C 
ATOM     10  N   UNL     1       4.577  -3.091   8.894  0.00  0.00    +0.398 N 
ATOM     11  C   UNL     1       3.489  -2.339   8.254  0.00  0.00    +0.133 C 
ATOM     12  C   UNL     1       4.072  -1.431   7.161  0.00  0.00    +0.115 C 
ATOM     13  H   UNL     1       4.206  -3.628   9.662  0.00  0.00    -0.083 HD
ATOM     14  H   UNL     1       5.271  -2.446   9.241  0.00  0.00    -0.083 HD
BRANCH  11  15
ATOM     15  S   UNL     1       2.646  -1.322   9.497  0.00  0.00    +0.109 S 
ATOM     16  O   UNL     1       1.942  -2.150  10.412  0.00  0.00    -0.138 OA
ATOM     17  O   UNL     1       3.515  -0.300   9.966  0.00  0.00    -0.138 OA
BRANCH  15  18
ATOM     18  O   UNL     1       1.560  -0.584   8.726  0.00  0.00    -0.347 OA
BRANCH  18  19
ATOM     19  C   UNL     1       0.488  -1.356   8.406  0.00  0.00    +0.156 A 
ATOM     20  C   UNL     1       0.447  -2.015   7.186  0.00  0.00    +0.048 A 
ATOM     21  C   UNL     1      -0.643  -2.799   6.862  0.00  0.00    +0.004 A 
ATOM     22  C   UNL     1      -1.693  -2.927   7.753  0.00  0.00    +0.000 A 
ATOM     23  C   UNL     1      -1.655  -2.271   8.969  0.00  0.00    +0.004 A 
ATOM     24  C   UNL     1      -0.564  -1.491   9.300  0.00  0.00    +0.048 A 
ENDBRANCH  18  19
ENDBRANCH  15  18
ENDBRANCH  11  15
ENDBRANCH   4   7
BRANCH   1  25
ATOM     25  C   UNL     1       4.044  -1.973   0.633  0.00  0.00    +0.070 C 
BRANCH  25  29
ATOM     26  C   UNL     1       0.744   0.609  -0.197  0.00  0.00    +0.000 A 
ATOM     27  C   UNL     1       2.024   1.126  -0.121  0.00  0.00    +0.000 A 
ATOM     28  C   UNL     1       3.092   0.290   0.148  0.00  0.00    +0.004 A 
ATOM     29  C   UNL     1       2.880  -1.062   0.341  0.00  0.00    -0.043 A 
ATOM     30  C   UNL     1       1.600  -1.579   0.266  0.00  0.00    +0.004 A 
ATOM     31  C   UNL     1       0.532  -0.744  -0.004  0.00  0.00    +0.000 A 
ENDBRANCH  25  29
ENDBRANCH   1  25
BRANCH   5  32
ATOM     32  C   UNL     1       3.111  -4.162   5.034  0.00  0.00    +0.072 C 
BRANCH  32  33
ATOM     33  C   UNL     1       2.349  -5.075   4.107  0.00  0.00    -0.043 A 
ATOM     34  C   UNL     1       1.042  -4.779   3.766  0.00  0.00    +0.004 A 
ATOM     35  C   UNL     1       0.344  -5.616   2.916  0.00  0.00    +0.000 A 
ATOM     36  C   UNL     1       0.952  -6.748   2.407  0.00  0.00    +0.000 A 
ATOM     37  C   UNL     1       2.259  -7.043   2.747  0.00  0.00    +0.000 A 
ATOM     38  C   UNL     1       2.959  -6.204   3.594  0.00  0.00    +0.004 A 
ENDBRANCH  32  33
ENDBRANCH   5  32
TORSDOF 8
