REMARK  Name = ZINC19219201
REMARK  9 active torsions:
REMARK  status: ('A' for Active; 'I' for Inactive)
REMARK    1  A    between atoms: C_1  and  C_2
REMARK    2  A    between atoms: C_8  and  O_35
REMARK    3  A    between atoms: N_15  and  C_18
REMARK    4  A    between atoms: C_18  and  C_19
REMARK    5  A    between atoms: C_19  and  C_21
REMARK    6  A    between atoms: C_19  and  O_34
REMARK    7  A    between atoms: C_22  and  C_33
REMARK    8  A    between atoms: C_28  and  O_31
REMARK    9  A    between atoms: O_31  and  C_32
REMARK                            x       y       z     vdW  Elec       q    Type
REMARK                         _______ _______ _______ _____ _____    ______ ____
ROOT
ATOM      1  C   UNL     1      -6.056   7.496   6.729  0.00  0.00    +0.044 C 
ATOM      2  C   UNL     1      -4.933   6.543   6.411  0.00  0.00    -0.050 A 
ATOM      3  C   UNL     1      -4.301   6.604   5.182  0.00  0.00    +0.007 A 
ATOM      4  C   UNL     1      -3.271   5.733   4.893  0.00  0.00    +0.046 A 
ATOM      5  C   UNL     1      -2.865   4.792   5.834  0.00  0.00    +0.127 A 
ATOM      6  C   UNL     1      -3.503   4.728   7.060  0.00  0.00    +0.023 A 
ATOM      7  C   UNL     1      -4.534   5.608   7.346  0.00  0.00    +0.013 A 
ATOM      8  C   UNL     1      -3.109   3.711   8.101  0.00  0.00    +0.152 C 
ATOM      9  C   UNL     1      -1.718   3.157   7.781  0.00  0.00    +0.084 C 
ATOM     10  C   UNL     1      -1.680   2.774   6.297  0.00  0.00    +0.110 C 
ATOM     11  O   UNL     1      -1.842   3.956   5.516  0.00  0.00    -0.485 OA
ATOM     12  C   UNL     1      -2.813   1.792   5.993  0.00  0.00    +0.029 C 
ATOM     13  C   UNL     1      -2.730   1.364   4.526  0.00  0.00    -0.075 C 
ATOM     14  N   UNL     1      -1.428   0.735   4.271  0.00  0.00    +0.382 N 
ATOM     15  C   UNL     1      -0.328   1.678   4.508  0.00  0.00    -0.075 C 
ATOM     16  C   UNL     1      -0.337   2.117   5.974  0.00  0.00    +0.029 C 
ATOM     17  H   UNL     1      -1.313  -0.098   4.980  0.00  0.00    -0.082 HD
ENDROOT
BRANCH   8  18
ATOM     18  O   UNL     1      -3.087   4.332   9.388  0.00  0.00    -0.387 OA
ATOM     19  H   UNL     1      -2.820   3.743  10.278  0.00  0.00    +0.210 HD
ENDBRANCH   8  18
BRANCH  14  20
ATOM     20  C   UNL     1      -1.366   0.184   2.911  0.00  0.00    -0.042 C 
BRANCH  20  21
ATOM     21  C   UNL     1      -2.358  -0.973   2.783  0.00  0.00    +0.130 C 
BRANCH  21  22
ATOM     22  C   UNL     1      -2.286  -1.546   1.391  0.00  0.00    +0.007 A 
ATOM     23  C   UNL     1      -1.313  -2.330   0.901  0.00  0.00    +0.019 A 
ATOM     24  N   UNL     1      -1.584  -2.651  -0.401  0.00  0.00    -0.358 N 
ATOM     25  H   UNL     1      -0.887  -3.286  -0.968  0.00  0.00    +0.166 HD
ATOM     26  C   UNL     1      -2.775  -2.073  -0.788  0.00  0.00    +0.047 A 
ATOM     27  C   UNL     1      -3.263  -1.353   0.318  0.00  0.00    +0.009 A 
ATOM     28  C   UNL     1      -4.467  -0.652   0.217  0.00  0.00    +0.056 A 
ATOM     29  C   UNL     1      -5.170  -0.670  -0.971  0.00  0.00    +0.121 A 
ATOM     30  C   UNL     1      -4.684  -1.384  -2.063  0.00  0.00    +0.047 A 
ATOM     31  C   UNL     1      -3.499  -2.080  -1.975  0.00  0.00    +0.030 A 
ATOM     32  C   UNL     1      -0.098  -2.785   1.668  0.00  0.00    +0.063 C 
BRANCH  29  33
ATOM     33  O   UNL     1      -6.343   0.011  -1.074  0.00  0.00    -0.495 OA
ATOM     34  C   UNL     1      -7.019  -0.050  -2.331  0.00  0.00    +0.277 C 
ENDBRANCH  29  33
ENDBRANCH  21  22
BRANCH  21  35
ATOM     35  O   UNL     1      -2.030  -1.988   3.734  0.00  0.00    -0.389 OA
ATOM     36  H   UNL     1      -2.637  -2.904   3.792  0.00  0.00    +0.210 HD
ENDBRANCH  21  35
ENDBRANCH  20  21
ENDBRANCH  14  20
TORSDOF 6
