REMARK  Name = ZINC53897337
REMARK  6 active torsions:
REMARK  status: ('A' for Active; 'I' for Inactive)
REMARK    1  A    between atoms: C_1  and  O_2
REMARK    2  A    between atoms: O_2  and  C_3
REMARK    3  A    between atoms: N_6  and  C_9
REMARK    4  A    between atoms: C_9  and  C_10
REMARK    5  A    between atoms: N_12  and  C_13
REMARK    6  A    between atoms: C_14  and  C_22
REMARK                            x       y       z     vdW  Elec       q    Type
REMARK                         _______ _______ _______ _____ _____    ______ ____
ROOT
ATOM      1  C   UNL     1       1.917  -4.824  -3.768  0.00  0.00    +0.201 C 
ATOM      2  O   UNL     1       1.769  -5.199  -2.624  0.00  0.00    -0.278 OA
ATOM      3  N   UNL     1       2.493  -5.638  -4.675  0.00  0.00    -0.281 N 
ATOM      4  H   UNL     1       2.611  -5.338  -5.590  0.00  0.00    +0.155 HD
ENDROOT
BRANCH   3   5
ATOM      5  C   UNL     1       2.917  -6.904  -4.300  0.00  0.00    +0.084 A 
ATOM      6  C   UNL     1       3.529  -7.865  -5.088  0.00  0.00    +0.068 A 
ATOM      7  C   UNL     1       3.878  -9.123  -4.450  0.00  0.00    -0.023 A 
ATOM      8  C   UNL     1       3.551  -9.188  -3.142  0.00  0.00    -0.004 A 
ATOM      9  S   UNL     1       2.813  -7.621  -2.785  0.00  0.00    -0.077 S 
ATOM     10  C   UNL     1       3.776 -10.342  -2.215  0.00  0.00    +0.043 C 
ATOM     11  C   UNL     1       4.094 -11.585  -3.060  0.00  0.00    +0.005 C 
ATOM     12  C   UNL     1       5.157 -11.218  -4.099  0.00  0.00    +0.005 C 
ATOM     13  C   UNL     1       4.554 -10.290  -5.156  0.00  0.00    +0.037 C 
BRANCH   6  14
ATOM     14  C   UNL     1       3.812  -7.624  -6.506  0.00  0.00    +0.244 C 
ATOM     15  O   UNL     1       4.874  -7.132  -6.840  0.00  0.00    -0.270 OA
ATOM     16  N   UNL     1       2.896  -7.947  -7.441  0.00  0.00    -0.325 N 
ATOM     17  H   UNL     1       2.050  -8.338  -7.175  0.00  0.00    +0.145 HD
ATOM     18  H   UNL     1       3.083  -7.787  -8.379  0.00  0.00    +0.145 HD
ENDBRANCH   6  14
ENDBRANCH   3   5
BRANCH   1  19
ATOM     19  C   UNL     1       1.457  -3.448  -4.176  0.00  0.00    +0.019 C 
BRANCH  19  23
ATOM     20  C   UNL     1       0.652  -0.570  -1.138  0.00  0.00    +0.114 C 
ATOM     21  C   UNL     1      -0.374  -0.795  -2.253  0.00  0.00    +0.013 C 
ATOM     22  C   UNL     1       0.312  -1.475  -3.440  0.00  0.00    -0.076 C 
ATOM     23  N   UNL     1       0.868  -2.765  -3.016  0.00  0.00    +0.386 N 
ATOM     24  C   UNL     1       1.903  -2.552  -1.998  0.00  0.00    -0.076 C 
ATOM     25  C   UNL     1       1.278  -1.914  -0.755  0.00  0.00    +0.013 C 
ATOM     26  H   UNL     1       0.131  -3.337  -2.630  0.00  0.00    -0.081 HD
BRANCH  20  28
ATOM     27  C   UNL     1      -0.017   1.425   0.010  0.00  0.00    +0.194 C 
ATOM     28  O   UNL     1       0.002  -0.004   0.002  0.00  0.00    -0.380 OA
ENDBRANCH  20  28
ENDBRANCH  19  23
ENDBRANCH   1  19
TORSDOF 5
