REMARK  Name = ZINC57569059
REMARK  13 active torsions:
REMARK  status: ('A' for Active; 'I' for Inactive)
REMARK    1  A    between atoms: C_1  and  C_2
REMARK    2  A    between atoms: C_2  and  C_3
REMARK    3  A    between atoms: C_3  and  N_4
REMARK    4  A    between atoms: N_4  and  C_5
REMARK    5  A    between atoms: C_8  and  S_19
REMARK    6  A    between atoms: C_10  and  N_11
REMARK    7  A    between atoms: N_11  and  C_12
REMARK    8  A    between atoms: C_12  and  C_13
REMARK    9  A    between atoms: S_19  and  N_22
REMARK   10  A    between atoms: N_22  and  C_23
REMARK   11  A    between atoms: N_22  and  C_25
REMARK   12  A    between atoms: C_23  and  C_24
REMARK   13  A    between atoms: C_25  and  C_26
REMARK                            x       y       z     vdW  Elec       q    Type
REMARK                         _______ _______ _______ _____ _____    ______ ____
ROOT
ATOM      1  C   UNL     1       1.344  -2.648  -2.325  0.00  0.00    +0.048 A 
ATOM      2  C   UNL     1       1.930  -1.943  -3.364  0.00  0.00    +0.027 A 
ATOM      3  C   UNL     1       2.528  -2.623  -4.410  0.00  0.00    +0.030 A 
ATOM      4  C   UNL     1       2.544  -4.005  -4.422  0.00  0.00    +0.107 A 
ATOM      5  C   UNL     1       1.961  -4.716  -3.389  0.00  0.00    +0.053 A 
ATOM      6  C   UNL     1       1.364  -4.043  -2.334  0.00  0.00    +0.051 A 
ENDROOT
BRANCH   4   7
ATOM      7  S   UNL     1       3.307  -4.864  -5.758  0.00  0.00    +0.061 S 
ATOM      8  O   UNL     1       2.710  -6.152  -5.807  0.00  0.00    -0.153 OA
ATOM      9  O   UNL     1       3.299  -3.977  -6.868  0.00  0.00    -0.153 OA
BRANCH   7  10
ATOM     10  N   UNL     1       4.895  -5.094  -5.348  0.00  0.00    -0.177 NA
BRANCH  10  11
ATOM     11  C   UNL     1       5.298  -6.304  -4.627  0.00  0.00    +0.106 C 
ATOM     12  C   UNL     1       5.782  -7.356  -5.626  0.00  0.00    +0.022 C 
ENDBRANCH  10  11
BRANCH  10  13
ATOM     13  C   UNL     1       5.898  -4.088  -5.707  0.00  0.00    +0.106 C 
ATOM     14  C   UNL     1       6.111  -3.136  -4.528  0.00  0.00    +0.022 C 
ENDBRANCH  10  13
ENDBRANCH   7  10
ENDBRANCH   4   7
BRANCH   1  15
ATOM     15  N   UNL     1       0.738  -1.962  -1.265  0.00  0.00    -0.342 N 
ATOM     16  H   UNL     1       0.332  -2.457  -0.536  0.00  0.00    +0.146 HD
BRANCH  15  17
ATOM     17  C   UNL     1       0.718  -0.497  -1.257  0.00  0.00    +0.101 C 
BRANCH  17  19
ATOM     18  C   UNL     1      -0.019   1.526   0.010  0.00  0.00    +0.005 C 
ATOM     19  C   UNL     1       0.002  -0.004   0.002  0.00  0.00    +0.015 C 
ENDBRANCH  17  19
ENDBRANCH  15  17
ENDBRANCH   1  15
BRANCH   6  20
ATOM     20  N   UNL     1       0.778  -4.761  -1.284  0.00  0.00    -0.334 N 
ATOM     21  H   UNL     1       0.357  -4.288  -0.549  0.00  0.00    +0.147 HD
BRANCH  20  22
ATOM     22  C   UNL     1       0.800  -6.226  -1.297  0.00  0.00    +0.198 C 
BRANCH  22  23
ATOM     23  C   UNL     1       0.109  -6.749  -0.064  0.00  0.00    +0.237 C 
ATOM     24  O   UNL     1      -0.356  -5.975   0.745  0.00  0.00    -0.274 OA
ATOM     25  N   UNL     1       0.008  -8.078   0.139  0.00  0.00    -0.239 N 
ATOM     26  C   UNL     1      -0.610  -8.546   1.241  0.00  0.00    +0.303 C 
ATOM     27  O   UNL     1      -1.077  -7.770   2.052  0.00  0.00    -0.253 OA
ATOM     28  N   UNL     1      -0.711  -9.874   1.444  0.00  0.00    -0.313 N 
ATOM     29  H   UNL     1       0.380  -8.697  -0.508  0.00  0.00    +0.159 HD
ATOM     30  H   UNL     1      -0.339 -10.493   0.797  0.00  0.00    +0.146 HD
ATOM     31  H   UNL     1      -1.156 -10.211   2.238  0.00  0.00    +0.146 HD
ENDBRANCH  22  23
ENDBRANCH  20  22
ENDBRANCH   6  20
TORSDOF 10
