REMARK  Name = ZINC19775641
REMARK  9 active torsions:
REMARK  status: ('A' for Active; 'I' for Inactive)
REMARK    1  A    between atoms: C_1  and  C_2
REMARK    2  A    between atoms: C_7  and  C_9
REMARK    3  A    between atoms: C_7  and  C_10
REMARK    4  A    between atoms: N_11  and  C_13
REMARK    5  A    between atoms: C_13  and  C_14
REMARK    6  A    between atoms: N_16  and  C_17
REMARK    7  A    between atoms: C_19  and  N_25
REMARK    8  A    between atoms: C_22  and  O_23
REMARK    9  A    between atoms: O_23  and  C_24
REMARK                            x       y       z     vdW  Elec       q    Type
REMARK                         _______ _______ _______ _____ _____    ______ ____
ROOT
ATOM      1  C   UNL     1       1.361  -2.427  -3.405  0.00  0.00    +0.201 C 
ATOM      2  O   UNL     1       1.262  -1.303  -3.849  0.00  0.00    -0.278 OA
ATOM      3  N   UNL     1       2.160  -3.325  -4.015  0.00  0.00    -0.284 N 
ATOM      4  H   UNL     1       2.291  -4.203  -3.625  0.00  0.00    +0.155 HD
ENDROOT
BRANCH   3   5
ATOM      5  C   UNL     1       2.803  -2.989  -5.215  0.00  0.00    +0.077 A 
ATOM      6  C   UNL     1       3.241  -1.691  -5.428  0.00  0.00    +0.049 A 
ATOM      7  C   UNL     1       3.877  -1.362  -6.617  0.00  0.00    +0.027 A 
ATOM      8  C   UNL     1       4.073  -2.332  -7.591  0.00  0.00    +0.026 A 
ATOM      9  C   UNL     1       3.636  -3.625  -7.380  0.00  0.00    +0.049 A 
ATOM     10  C   UNL     1       3.007  -3.960  -6.192  0.00  0.00    +0.141 A 
BRANCH   7  11
ATOM     11  N   UNL     1       4.320  -0.052  -6.834  0.00  0.00    -0.358 N 
ATOM     12  H   UNL     1       4.183   0.625  -6.153  0.00  0.00    +0.142 HD
ATOM     13  H   UNL     1       4.764   0.178  -7.665  0.00  0.00    +0.142 HD
ENDBRANCH   7  11
BRANCH  10  14
ATOM     14  O   UNL     1       2.582  -5.236  -5.983  0.00  0.00    -0.493 OA
ATOM     15  C   UNL     1       2.825  -6.180  -7.028  0.00  0.00    +0.277 C 
ENDBRANCH  10  14
ENDBRANCH   3   5
BRANCH   1  16
ATOM     16  C   UNL     1       0.592  -2.821  -2.170  0.00  0.00    +0.019 C 
BRANCH  16  26
ATOM     17  C   UNL     1       0.017   1.545   0.013  0.00  0.00    +0.009 C 
ATOM     18  C   UNL     1       0.036   0.009   0.009  0.00  0.00    -0.048 C 
ATOM     19  C   UNL     1      -1.392  -0.601   0.023  0.00  0.00    -0.011 C 
ATOM     20  C   UNL     1      -1.073  -2.005  -0.562  0.00  0.00    -0.067 C 
ATOM     21  C   UNL     1      -0.361  -2.803   0.512  0.00  0.00    -0.009 C 
ATOM     22  C   UNL     1       0.697  -2.085   1.321  0.00  0.00    -0.036 C 
ATOM     23  C   UNL     1       0.770  -0.575   1.217  0.00  0.00    +0.011 C 
ATOM     24  C   UNL     1       2.080  -2.678   0.989  0.00  0.00    +0.011 C 
ATOM     25  C   UNL     1       0.436  -2.424   2.812  0.00  0.00    +0.011 C 
ATOM     26  N   UNL     1      -0.192  -1.683  -1.703  0.00  0.00    +0.388 N 
ATOM     27  C   UNL     1       0.673  -0.567  -1.276  0.00  0.00    -0.071 C 
ATOM     28  H   UNL     1      -0.775  -1.351  -2.474  0.00  0.00    -0.081 HD
ENDBRANCH  16  26
ENDBRANCH   1  16
TORSDOF 5
