REMARK  Name = ZINC16694828
REMARK  6 active torsions:
REMARK  status: ('A' for Active; 'I' for Inactive)
REMARK    1  A    between atoms: C_1  and  C_2
REMARK    2  A    between atoms: C_9  and  C_14
REMARK    3  A    between atoms: C_14  and  N_40
REMARK    4  A    between atoms: C_15  and  C_17
REMARK    5  A    between atoms: C_15  and  C_18
REMARK    6  A    between atoms: C_15  and  N_40
REMARK                            x       y       z     vdW  Elec       q    Type
REMARK                         _______ _______ _______ _____ _____    ______ ____
ROOT
ATOM      1  C   UNL     1      -0.018   1.465   0.010  0.00  0.00    -0.006 C 
ENDROOT
BRANCH   1  10
ATOM      2  C   UNL     1       4.420  -0.879  -0.043  0.00  0.00    +0.046 C 
ATOM      3  C   UNL     1       4.714   0.600  -0.039  0.00  0.00    -0.024 A 
ATOM      4  C   UNL     1       6.017   1.046  -0.049  0.00  0.00    +0.005 A 
ATOM      5  C   UNL     1       6.303   2.404  -0.045  0.00  0.00    +0.001 A 
ATOM      6  C   UNL     1       5.287   3.335  -0.031  0.00  0.00    +0.015 A 
ATOM      7  C   UNL     1       3.962   2.904  -0.021  0.00  0.00    +0.065 A 
ATOM      8  C   UNL     1       3.667   1.523  -0.025  0.00  0.00    +0.081 A 
ATOM      9  N   UNL     1       2.369   1.127  -0.009  0.00  0.00    -0.235 NA
ATOM     10  C   UNL     1       1.396   1.986  -0.001  0.00  0.00    +0.093 A 
ATOM     11  N   UNL     1       1.587   3.332   0.005  0.00  0.00    -0.312 N 
ATOM     12  H   UNL     1       0.820   3.925   0.015  0.00  0.00    +0.170 HD
ATOM     13  C   UNL     1       2.837   3.850  -0.005  0.00  0.00    +0.259 A 
ATOM     14  O   UNL     1       3.022   5.053  -0.000  0.00  0.00    -0.267 OA
ENDBRANCH   1  10
BRANCH   1  15
ATOM     15  N   UNL     1       0.011  -0.010   0.002  0.00  0.00    +0.388 N 
ATOM     16  H   UNL     1       0.512  -0.344   0.834  0.00  0.00    -0.084 HD
ATOM     17  H   UNL     1       0.496  -0.335  -0.843  0.00  0.00    -0.084 HD
BRANCH  15  18
ATOM     18  C   UNL     1      -1.362  -0.549   0.012  0.00  0.00    -0.042 C 
ATOM     19  C   UNL     1      -1.869  -0.629   1.454  0.00  0.00    -0.009 C 
BRANCH  18  20
ATOM     20  C   UNL     1      -1.357  -1.928  -0.596  0.00  0.00    -0.041 A 
ATOM     21  C   UNL     1      -0.200  -2.685  -0.581  0.00  0.00    +0.043 A 
ATOM     22  C   UNL     1      -0.195  -3.951  -1.139  0.00  0.00    +0.142 A 
ATOM     23  C   UNL     1      -1.349  -4.460  -1.712  0.00  0.00    +0.077 A 
ATOM     24  C   UNL     1      -2.505  -3.702  -1.727  0.00  0.00    +0.043 A 
ATOM     25  C   UNL     1      -2.510  -2.438  -1.164  0.00  0.00    +0.044 A 
ATOM     26 CL   UNL     1      -3.964  -1.488  -1.177  0.00  0.00    -0.083 Cl
ATOM     27 CL   UNL     1      -1.344  -6.049  -2.413  0.00  0.00    -0.081 Cl
ATOM     28  F   UNL     1       0.935  -4.692  -1.124  0.00  0.00    -0.204 F 
ENDBRANCH  18  20
ENDBRANCH  15  18
ENDBRANCH   1  15
TORSDOF 4
