REMARK  Name = ZINC63294640
REMARK  5 active torsions:
REMARK  status: ('A' for Active; 'I' for Inactive)
REMARK    1  A    between atoms: C_1  and  C_2
REMARK    2  A    between atoms: N_4  and  C_5
REMARK    3  A    between atoms: C_8  and  N_11
REMARK    4  A    between atoms: C_12  and  C_14
REMARK    5  A    between atoms: C_14  and  N_15
REMARK                            x       y       z     vdW  Elec       q    Type
REMARK                         _______ _______ _______ _____ _____    ______ ____
ROOT
ATOM      1  N   UNL     1       0.220  -9.054  -3.181  0.00  0.00    -0.291 N 
ATOM      2  C   UNL     1       0.319 -10.389  -3.333  0.00  0.00    +0.303 C 
ATOM      3  O   UNL     1       0.202 -11.121  -2.370  0.00  0.00    -0.253 OA
ATOM      4  N   UNL     1       0.548 -10.913  -4.554  0.00  0.00    -0.283 N 
ATOM      5  C   UNL     1       0.812 -10.022  -5.688  0.00  0.00    +0.114 C 
ATOM      6  C   UNL     1       2.178 -10.371  -6.308  0.00  0.00    +0.052 C 
ATOM      7  C   UNL     1       2.225 -11.874  -6.430  0.00  0.00    -0.035 C 
ATOM      8  C   UNL     1       2.502 -12.663  -7.461  0.00  0.00    +0.001 A 
ATOM      9  C   UNL     1       2.968 -12.364  -8.825  0.00  0.00    +0.030 A 
ATOM     10  C   UNL     1       3.135 -13.433  -9.649  0.00  0.00    +0.042 A 
ATOM     11  C   UNL     1       2.887 -14.754  -9.257  0.00  0.00    +0.022 A 
ATOM     12  C   UNL     1       2.464 -15.119  -8.020  0.00  0.00    +0.027 A 
ATOM     13  C   UNL     1       2.261 -14.083  -7.063  0.00  0.00    +0.043 A 
ATOM     14  N   UNL     1       1.888 -14.149  -5.819  0.00  0.00    -0.376 N 
ATOM     15  C   UNL     1       1.906 -12.797  -5.260  0.00  0.00    +0.124 C 
ATOM     16  C   UNL     1       0.536 -12.374  -4.733  0.00  0.00    +0.138 C 
ATOM     17 CL   UNL     1       3.684 -13.146 -11.271  0.00  0.00    -0.084 Cl
ATOM     18  H   UNL     1       0.237  -8.474  -3.959  0.00  0.00    +0.151 HD
ATOM     19  H   UNL     1       1.641 -14.957  -5.343  0.00  0.00    +0.160 HD
ENDROOT
BRANCH   1  20
ATOM     20  C   UNL     1       0.086  -8.477  -1.841  0.00  0.00    +0.202 C 
BRANCH  20  22
ATOM     21  N   UNL     1      -0.135  -6.230  -0.832  0.00  0.00    -0.284 N 
ATOM     22  C   UNL     1      -0.006  -6.977  -1.946  0.00  0.00    +0.234 C 
ATOM     23  O   UNL     1       0.037  -6.442  -3.034  0.00  0.00    -0.274 OA
ATOM     24  H   UNL     1      -0.237  -6.660   0.031  0.00  0.00    +0.155 HD
BRANCH  21  28
ATOM     25  C   UNL     1      -0.095  -2.068  -1.096  0.00  0.00    +0.033 A 
ATOM     26  C   UNL     1       0.470  -2.700   0.004  0.00  0.00    +0.025 A 
ATOM     27  C   UNL     1       0.457  -4.077   0.091  0.00  0.00    +0.025 A 
ATOM     28  C   UNL     1      -0.122  -4.832  -0.920  0.00  0.00    +0.034 A 
ATOM     29  C   UNL     1      -0.687  -4.201  -2.021  0.00  0.00    +0.025 A 
ATOM     30  C   UNL     1      -0.679  -2.823  -2.106  0.00  0.00    +0.025 A 
BRANCH  25  34
ATOM     31  C   UNL     1      -1.156   1.486  -1.745  0.00  0.00    +0.109 C 
ATOM     32  C   UNL     1      -1.122  -0.021  -1.743  0.00  0.00    +0.214 C 
ATOM     33  O   UNL     1      -2.030  -0.648  -2.245  0.00  0.00    -0.276 OA
ATOM     34  N   UNL     1      -0.081  -0.671  -1.185  0.00  0.00    -0.286 N 
ATOM     35  H   UNL     1       0.677  -0.170  -0.845  0.00  0.00    +0.155 HD
ENDBRANCH  25  34
ENDBRANCH  21  28
ENDBRANCH  20  22
ENDBRANCH   1  20
TORSDOF 4
