REMARK  Name = ZINC64348708
REMARK  9 active torsions:
REMARK  status: ('A' for Active; 'I' for Inactive)
REMARK    1  A    between atoms: C_1  and  C_2
REMARK    2  A    between atoms: C_2  and  C_3
REMARK    3  A    between atoms: C_2  and  C_4
REMARK    4  A    between atoms: C_4  and  C_6
REMARK    5  A    between atoms: C_4  and  N_20
REMARK    6  A    between atoms: N_8  and  C_9
REMARK    7  A    between atoms: C_9  and  C_10
REMARK    8  A    between atoms: C_10  and  C_11
REMARK    9  A    between atoms: C_25  and  O_33
REMARK                            x       y       z     vdW  Elec       q    Type
REMARK                         _______ _______ _______ _____ _____    ______ ____
ROOT
ATOM      1  C   UNL     1       0.765  -0.592  -1.187  0.00  0.00    +0.163 C 
ENDROOT
BRANCH   1   2
ATOM      2  N   UNL     1       1.134  -2.002  -1.336  0.00  0.00    -0.287 N 
ATOM      3  C   UNL     1       2.112  -2.526  -0.571  0.00  0.00    +0.308 C 
ATOM      4  O   UNL     1       2.688  -1.829   0.241  0.00  0.00    -0.252 OA
ATOM      5  N   UNL     1       2.451  -3.823  -0.708  0.00  0.00    -0.245 N 
ATOM      6  C   UNL     1       1.779  -4.695  -1.686  0.00  0.00    +0.210 C 
ATOM      7  C   UNL     1       1.554  -6.048  -1.063  0.00  0.00    +0.206 C 
ATOM      8  N   UNL     1       2.325  -6.502  -0.128  0.00  0.00    -0.214 NA
ATOM      9  C   UNL     1       3.380  -5.775   0.356  0.00  0.00    +0.089 A 
ATOM     10  C   UNL     1       3.465  -4.401   0.072  0.00  0.00    +0.064 A 
ATOM     11  C   UNL     1       4.519  -3.651   0.553  0.00  0.00    +0.026 A 
ATOM     12  C   UNL     1       5.503  -4.259   1.315  0.00  0.00    +0.002 A 
ATOM     13  C   UNL     1       5.434  -5.612   1.593  0.00  0.00    +0.002 A 
ATOM     14  C   UNL     1       4.373  -6.376   1.124  0.00  0.00    +0.030 A 
ATOM     15  H   UNL     1       0.674  -2.558  -1.984  0.00  0.00    +0.151 HD
BRANCH   7  16
ATOM     16  O   UNL     1       0.523  -6.805  -1.491  0.00  0.00    -0.494 OA
ATOM     17  H   UNL     1       0.448  -7.658  -1.041  0.00  0.00    +0.293 HD
ENDBRANCH   7  16
ENDBRANCH   1   2
BRANCH   1  18
ATOM     18  C   UNL     1       0.152  -0.095  -2.471  0.00  0.00    +0.234 C 
ATOM     19  O   UNL     1      -0.385  -0.875  -3.229  0.00  0.00    -0.274 OA
ATOM     20  N   UNL     1       0.201   1.216  -2.779  0.00  0.00    -0.313 N 
ATOM     21  H   UNL     1       0.565   1.850  -2.141  0.00  0.00    +0.149 HD
BRANCH  20  22
ATOM     22  C   UNL     1      -0.296   1.684  -4.075  0.00  0.00    +0.108 C 
BRANCH  22  23
ATOM     23  C   UNL     1      -0.125   3.202  -4.169  0.00  0.00    +0.052 C 
BRANCH  23  24
ATOM     24  C   UNL     1      -0.636   3.683  -5.502  0.00  0.00    -0.040 C 
ATOM     25  C   UNL     1      -1.868   4.173  -5.773  0.00  0.00    -0.001 A 
ATOM     26  C   UNL     1      -3.055   4.394  -4.939  0.00  0.00    +0.010 A 
ATOM     27  C   UNL     1      -4.169   4.910  -5.506  0.00  0.00    +0.001 A 
ATOM     28  C   UNL     1      -4.218   5.237  -6.868  0.00  0.00    +0.002 A 
ATOM     29  C   UNL     1      -3.168   5.062  -7.699  0.00  0.00    +0.026 A 
ATOM     30  C   UNL     1      -1.945   4.527  -7.208  0.00  0.00    +0.043 A 
ATOM     31  N   UNL     1      -0.806   4.267  -7.802  0.00  0.00    -0.380 N 
ATOM     32  C   UNL     1       0.126   3.723  -6.808  0.00  0.00    +0.144 C 
ATOM     33  H   UNL     1      -0.610   4.413  -8.741  0.00  0.00    +0.160 HD
ENDBRANCH  23  24
ENDBRANCH  22  23
ENDBRANCH  20  22
ENDBRANCH   1  18
BRANCH   1  35
ATOM     34  C   UNL     1      -1.437  -1.375  -0.303  0.00  0.00    +0.009 C 
ATOM     35  C   UNL     1      -0.248  -0.446  -0.050  0.00  0.00    +0.012 C 
ATOM     36  C   UNL     1       0.418  -0.820   1.276  0.00  0.00    +0.009 C 
ENDBRANCH   1  35
TORSDOF 7
