REMARK  Name = ZINC17079237
REMARK  5 active torsions:
REMARK  status: ('A' for Active; 'I' for Inactive)
REMARK    1  A    between atoms: C_3  and  S_24
REMARK    2  A    between atoms: C_6  and  N_7
REMARK    3  A    between atoms: C_8  and  C_10
REMARK    4  A    between atoms: C_14  and  N_21
REMARK    5  A    between atoms: S_24  and  N_27
REMARK                            x       y       z     vdW  Elec       q    Type
REMARK                         _______ _______ _______ _____ _____    ______ ____
ROOT
ATOM      1  N   UNL     1       1.037   6.397   0.027  0.00  0.00    -0.281 N 
ATOM      2  C   UNL     1      -0.097   5.669   0.032  0.00  0.00    +0.253 C 
ATOM      3  O   UNL     1      -1.178   6.227   0.036  0.00  0.00    -0.270 OA
ATOM      4  H   UNL     1       2.013   5.896   0.100  0.00  0.00    +0.155 HD
ENDROOT
BRANCH   2   5
ATOM      5  C   UNL     1      -0.028   4.199   0.031  0.00  0.00    +0.097 A 
ATOM      6  C   UNL     1       1.193   3.552   0.026  0.00  0.00    +0.030 A 
ATOM      7  C   UNL     1       1.201   2.089   0.026  0.00  0.00    +0.020 A 
ATOM      8  C   UNL     1       2.413   1.386   0.021  0.00  0.00    +0.044 A 
ATOM      9  C   UNL     1       2.407   0.020   0.020  0.00  0.00    +0.127 A 
ATOM     10  C   UNL     1       1.207  -0.677   0.026  0.00  0.00    +0.036 A 
ATOM     11  C   UNL     1       0.003  -0.004   0.031  0.00  0.00    +0.049 A 
ATOM     12  C   UNL     1      -0.016   1.385   0.031  0.00  0.00    +0.138 A 
ATOM     13  O   UNL     1      -1.195   2.045   0.030  0.00  0.00    -0.439 OA
ATOM     14  C   UNL     1      -1.258   3.390   0.036  0.00  0.00    +0.205 A 
ATOM     15  N   UNL     1      -2.422   3.983   0.041  0.00  0.00    -0.369 N 
ATOM     16  H   UNL     1      -3.344   3.383   0.045  0.00  0.00    +0.159 HD
ATOM     17  H   UNL     1      -2.479   5.081   0.041  0.00  0.00    +0.159 HD
BRANCH   9  18
ATOM     18  N   UNL     1       3.688  -0.721   0.015  0.00  0.00    +0.056 N 
ATOM     19  O   UNL     1       3.687  -1.939   0.015  0.00  0.00    -0.126 OA
ATOM     20  O   UNL     1       4.743  -0.113   0.010  0.00  0.00    -0.126 OA
ENDBRANCH   9  18
ENDBRANCH   2   5
BRANCH   1  26
ATOM     21  C   UNL     1       1.953   8.486  -0.767  0.00  0.00    +0.025 A 
ATOM     22  C   UNL     1       1.883   9.862  -0.866  0.00  0.00    +0.030 A 
ATOM     23  C   UNL     1       0.846  10.548  -0.262  0.00  0.00    +0.105 A 
ATOM     24  C   UNL     1      -0.129   9.860   0.437  0.00  0.00    +0.030 A 
ATOM     25  C   UNL     1      -0.068   8.483   0.535  0.00  0.00    +0.025 A 
ATOM     26  C   UNL     1       0.973   7.791  -0.070  0.00  0.00    +0.034 A 
BRANCH  23  27
ATOM     27  S   UNL     1       0.764  12.304  -0.384  0.00  0.00    +0.056 S 
ATOM     28  O   UNL     1       1.493  12.664  -1.550  0.00  0.00    -0.153 OA
ATOM     29  O   UNL     1      -0.598  12.662  -0.196  0.00  0.00    -0.153 OA
BRANCH  27  30
ATOM     30  N   UNL     1       1.599  12.924   0.905  0.00  0.00    -0.204 NA
ATOM     31  H   UNL     1       1.572  14.023   0.865  0.00  0.00    +0.144 HD
ATOM     32  H   UNL     1       2.643  12.581   0.865  0.00  0.00    +0.144 HD
ENDBRANCH  27  30
ENDBRANCH  23  27
ENDBRANCH   1  26
TORSDOF 5
