REMARK  Name = ZINC09674404
REMARK  8 active torsions:
REMARK  status: ('A' for Active; 'I' for Inactive)
REMARK    1  A    between atoms: C_9  and  C_28
REMARK    2  A    between atoms: C_14  and  S_16
REMARK    3  A    between atoms: S_16  and  C_17
REMARK    4  A    between atoms: C_17  and  C_18
REMARK    5  A    between atoms: N_20  and  C_21
REMARK    6  A    between atoms: C_28  and  C_29
REMARK    7  A    between atoms: C_29  and  C_30
REMARK    8  A    between atoms: N_32  and  C_33
REMARK                            x       y       z     vdW  Elec       q    Type
REMARK                         _______ _______ _______ _____ _____    ______ ____
ROOT
ATOM      1  C   UNL     1      -6.064  11.988  -2.986  0.00  0.00    +0.001 A 
ATOM      2  C   UNL     1      -7.242  12.633  -2.639  0.00  0.00    +0.002 A 
ATOM      3  C   UNL     1      -7.713  12.595  -1.345  0.00  0.00    +0.028 A 
ATOM      4  C   UNL     1      -6.997  11.898  -0.368  0.00  0.00    +0.077 A 
ATOM      5  C   UNL     1      -5.801  11.243  -0.726  0.00  0.00    +0.041 A 
ATOM      6  C   UNL     1      -5.340  11.294  -2.038  0.00  0.00    +0.013 A 
ATOM      7  C   UNL     1      -5.059  10.513   0.325  0.00  0.00    +0.139 C 
ATOM      8  N   UNL     1      -3.946   9.838   0.258  0.00  0.00    -0.255 NA
ATOM      9  C   UNL     1      -3.657   9.314   1.601  0.00  0.00    +0.194 C 
ATOM     10  C   UNL     1      -4.809   9.815   2.445  0.00  0.00    +0.251 C 
ATOM     11  O   UNL     1      -4.989   9.623   3.628  0.00  0.00    -0.272 OA
ATOM     12  N   UNL     1      -5.596  10.520   1.601  0.00  0.00    -0.200 N 
ATOM     13  C   UNL     1      -6.776  11.193   1.842  0.00  0.00    +0.169 C 
ATOM     14  N   UNL     1      -7.431  11.839   0.916  0.00  0.00    -0.225 NA
ENDROOT
BRANCH  13  15
ATOM     15  S   UNL     1      -7.429  11.181   3.479  0.00  0.00    -0.080 S 
BRANCH  15  16
ATOM     16  C   UNL     1      -8.921  12.175   3.229  0.00  0.00    +0.173 C 
BRANCH  16  17
ATOM     17  C   UNL     1      -9.664  12.303   4.534  0.00  0.00    +0.228 C 
ATOM     18  O   UNL     1      -9.227  11.774   5.535  0.00  0.00    -0.275 OA
ATOM     19  N   UNL     1     -10.813  13.004   4.589  0.00  0.00    -0.283 N 
ATOM     20  H   UNL     1     -11.129  13.480   3.805  0.00  0.00    +0.155 HD
BRANCH  19  21
ATOM     21  C   UNL     1     -11.552  13.046   5.778  0.00  0.00    +0.069 A 
ATOM     22  C   UNL     1     -10.899  13.044   7.003  0.00  0.00    +0.026 A 
ATOM     23  C   UNL     1     -11.630  13.085   8.175  0.00  0.00    +0.002 A 
ATOM     24  C   UNL     1     -13.011  13.130   8.129  0.00  0.00    +0.003 A 
ATOM     25  C   UNL     1     -13.666  13.133   6.912  0.00  0.00    +0.040 A 
ATOM     26  C   UNL     1     -12.941  13.096   5.735  0.00  0.00    +0.144 A 
ATOM     27  F   UNL     1     -13.580  13.104   4.545  0.00  0.00    -0.204 F 
ENDBRANCH  19  21
ENDBRANCH  16  17
ENDBRANCH  15  16
ENDBRANCH  13  15
BRANCH   9  28
ATOM     28  C   UNL     1      -3.629   7.784   1.585  0.00  0.00    +0.045 C 
BRANCH  28  29
ATOM     29  C   UNL     1      -2.442   7.305   0.747  0.00  0.00    +0.098 C 
BRANCH  29  30
ATOM     30  C   UNL     1      -2.414   5.798   0.732  0.00  0.00    +0.213 C 
ATOM     31  O   UNL     1      -3.260   5.170   1.332  0.00  0.00    -0.276 OA
ATOM     32  N   UNL     1      -1.448   5.149   0.051  0.00  0.00    -0.312 N 
ATOM     33  H   UNL     1      -0.772   5.652  -0.429  0.00  0.00    +0.149 HD
BRANCH  32  34
ATOM     34  C   UNL     1      -1.421   3.684   0.036  0.00  0.00    +0.073 C 
ATOM     35  C   UNL     1      -0.697   3.200  -1.222  0.00  0.00    +0.022 C 
ATOM     36  C   UNL     1      -0.668   1.671  -1.238  0.00  0.00    +0.002 C 
ATOM     37  C   UNL     1       0.068   1.162   0.003  0.00  0.00    +0.000 C 
ATOM     38  C   UNL     1      -0.656   1.645   1.261  0.00  0.00    +0.002 C 
ATOM     39  C   UNL     1      -0.685   3.175   1.276  0.00  0.00    +0.022 C 
ENDBRANCH  32  34
ENDBRANCH  29  30
ENDBRANCH  28  29
ENDBRANCH   9  28
TORSDOF 8
