REMARK  Name = ZINC38714866
REMARK  15 active torsions:
REMARK  status: ('A' for Active; 'I' for Inactive)
REMARK    1  A    between atoms: C_1  and  C_2
REMARK    2  A    between atoms: C_2  and  N_3
REMARK    3  A    between atoms: N_3  and  C_4
REMARK    4  A    between atoms: N_3  and  C_6
REMARK    5  A    between atoms: C_4  and  C_5
REMARK    6  A    between atoms: C_6  and  C_7
REMARK    7  A    between atoms: C_7  and  C_8
REMARK    8  A    between atoms: C_8  and  N_9
REMARK    9  A    between atoms: C_10  and  C_27
REMARK   10  A    between atoms: C_18  and  C_25
REMARK   11  A    between atoms: C_30  and  O_35
REMARK   12  A    between atoms: C_31  and  O_33
REMARK   13  A    between atoms: O_33  and  C_34
REMARK   14  A    between atoms: O_35  and  C_36
REMARK   15  A    between atoms: C_36  and  C_37
REMARK                            x       y       z     vdW  Elec       q    Type
REMARK                         _______ _______ _______ _____ _____    ______ ____
ROOT
ATOM      1  N   UNL     1       2.352  -4.535   3.681  0.00  0.00    -0.284 N 
ATOM      2  C   UNL     1       3.794  -4.652   3.954  0.00  0.00    +0.145 C 
ATOM      3  C   UNL     1       3.904  -5.177   5.348  0.00  0.00    +0.072 A 
ATOM      4  C   UNL     1       5.075  -5.506   6.167  0.00  0.00    +0.199 A 
ATOM      5  O   UNL     1       6.215  -5.219   5.848  0.00  0.00    -0.287 OA
ATOM      6  C   UNL     1       4.739  -6.223   7.423  0.00  0.00    +0.066 A 
ATOM      7  C   UNL     1       5.747  -6.779   8.210  0.00  0.00    +0.035 A 
ATOM      8  C   UNL     1       5.417  -7.445   9.370  0.00  0.00    +0.045 A 
ATOM      9  C   UNL     1       4.085  -7.561   9.751  0.00  0.00    -0.029 A 
ATOM     10  C   UNL     1       3.083  -7.014   8.982  0.00  0.00    +0.051 A 
ATOM     11  C   UNL     1       3.392  -6.333   7.806  0.00  0.00    +0.140 A 
ATOM     12  O   UNL     1       2.387  -5.797   7.075  0.00  0.00    -0.450 OA
ATOM     13  C   UNL     1       2.637  -5.341   5.832  0.00  0.00    +0.199 A 
ATOM     14  C   UNL     1       1.685  -4.935   4.783  0.00  0.00    +0.283 C 
ATOM     15  O   UNL     1       0.476  -4.960   4.893  0.00  0.00    -0.267 OA
ATOM     16  C   UNL     1       3.735  -8.295  11.019  0.00  0.00    +0.045 C 
ATOM     17 CL   UNL     1       6.664  -8.140  10.357  0.00  0.00    -0.083 Cl
ENDROOT
BRANCH   2  18
ATOM     18  C   UNL     1       4.431  -5.612   2.983  0.00  0.00    -0.019 A 
ATOM     19  C   UNL     1       3.766  -6.769   2.621  0.00  0.00    +0.009 A 
ATOM     20  C   UNL     1       4.346  -7.654   1.731  0.00  0.00    +0.050 A 
ATOM     21  C   UNL     1       5.597  -7.381   1.200  0.00  0.00    +0.162 A 
ATOM     22  C   UNL     1       6.266  -6.217   1.564  0.00  0.00    +0.162 A 
ATOM     23  C   UNL     1       5.677  -5.332   2.453  0.00  0.00    +0.055 A 
BRANCH  22  24
ATOM     24  O   UNL     1       7.494  -5.946   1.045  0.00  0.00    -0.491 OA
ATOM     25  C   UNL     1       8.121  -4.732   1.464  0.00  0.00    +0.277 C 
ENDBRANCH  22  24
BRANCH  21  26
ATOM     26  O   UNL     1       6.169  -8.251   0.324  0.00  0.00    -0.489 OA
BRANCH  26  27
ATOM     27  C   UNL     1       5.425  -9.426  -0.004  0.00  0.00    +0.226 C 
ATOM     28  C   UNL     1       6.223 -10.276  -0.994  0.00  0.00    +0.048 C 
ENDBRANCH  26  27
ENDBRANCH  21  26
ENDBRANCH   2  18
BRANCH   1  29
ATOM     29  C   UNL     1       1.748  -4.062   2.433  0.00  0.00    +0.107 C 
BRANCH  29  30
ATOM     30  C   UNL     1       1.558  -2.546   2.502  0.00  0.00    +0.000 C 
BRANCH  30  31
ATOM     31  C   UNL     1       0.926  -2.051   1.199  0.00  0.00    -0.077 C 
BRANCH  31  32
ATOM     32  N   UNL     1       0.643  -0.614   1.306  0.00  0.00    +0.379 N 
ATOM     33  H   UNL     1       0.074  -0.444   2.122  0.00  0.00    -0.082 HD
BRANCH  32  35
ATOM     34  C   UNL     1       1.607   1.609   1.663  0.00  0.00    -0.017 C 
ATOM     35  C   UNL     1       1.905   0.127   1.426  0.00  0.00    -0.082 C 
ENDBRANCH  32  35
BRANCH  32  36
ATOM     36  C   UNL     1      -0.076  -0.166   0.106  0.00  0.00    -0.082 C 
ATOM     37  C   UNL     1      -1.460  -0.817   0.068  0.00  0.00    -0.017 C 
ENDBRANCH  32  36
ENDBRANCH  31  32
ENDBRANCH  30  31
ENDBRANCH  29  30
ENDBRANCH   1  29
TORSDOF 10
