REMARK  Name = ZINC12743713
REMARK  9 active torsions:
REMARK  status: ('A' for Active; 'I' for Inactive)
REMARK    1  A    between atoms: C_1  and  N_47
REMARK    2  A    between atoms: C_2  and  C_3
REMARK    3  A    between atoms: C_2  and  N_47
REMARK    4  A    between atoms: C_3  and  C_4
REMARK    5  A    between atoms: N_6  and  C_7
REMARK    6  A    between atoms: C_14  and  C_15
REMARK    7  A    between atoms: C_14  and  N_47
REMARK    8  A    between atoms: N_17  and  C_18
REMARK    9  A    between atoms: C_23  and  C_24
REMARK                            x       y       z     vdW  Elec       q    Type
REMARK                         _______ _______ _______ _____ _____    ______ ____
ROOT
ATOM      1  C   UNL     1       1.899   0.170  -1.327  0.00  0.00    -0.096 C 
ATOM      2  N   UNL     1       1.807   0.862  -0.025  0.00  0.00    +0.384 N 
ATOM      3  H   UNL     1       1.724   0.160   0.720  0.00  0.00    -0.082 HD
ENDROOT
BRANCH   2   4
ATOM      4  C   UNL     1       3.025   1.666   0.207  0.00  0.00    -0.069 C 
BRANCH   4   5
ATOM      5  C   UNL     1       4.212   0.721   0.399  0.00  0.00    +0.077 C 
BRANCH   5   6
ATOM      6  C   UNL     1       5.459   1.526   0.658  0.00  0.00    +0.215 C 
ATOM      7  O   UNL     1       5.404   2.737   0.687  0.00  0.00    -0.276 OA
ATOM      8  N   UNL     1       6.636   0.900   0.858  0.00  0.00    -0.283 N 
ATOM      9  H   UNL     1       6.697  -0.063   0.756  0.00  0.00    +0.155 HD
BRANCH   8  10
ATOM     10  C   UNL     1       7.771   1.640   1.212  0.00  0.00    +0.069 A 
ATOM     11  C   UNL     1       7.646   2.764   2.017  0.00  0.00    +0.026 A 
ATOM     12  C   UNL     1       8.768   3.489   2.370  0.00  0.00    +0.002 A 
ATOM     13  C   UNL     1      10.014   3.102   1.913  0.00  0.00    +0.003 A 
ATOM     14  C   UNL     1      10.144   1.987   1.107  0.00  0.00    +0.040 A 
ATOM     15  C   UNL     1       9.026   1.253   0.754  0.00  0.00    +0.144 A 
ATOM     16  F   UNL     1       9.152   0.164  -0.034  0.00  0.00    -0.204 F 
ENDBRANCH   8  10
ENDBRANCH   5   6
ENDBRANCH   4   5
ENDBRANCH   2   4
BRANCH   2  17
ATOM     17  C   UNL     1       0.613   1.733   0.001  0.00  0.00    +0.018 C 
BRANCH  17  18
ATOM     18  C   UNL     1      -0.621   0.868  -0.017  0.00  0.00    +0.201 C 
ATOM     19  O   UNL     1      -0.514  -0.339  -0.063  0.00  0.00    -0.278 OA
ATOM     20  N   UNL     1      -1.842   1.437   0.014  0.00  0.00    -0.287 N 
ATOM     21  H   UNL     1      -1.928   2.398   0.107  0.00  0.00    +0.155 HD
BRANCH  20  22
ATOM     22  C   UNL     1      -2.987   0.639  -0.089  0.00  0.00    +0.045 A 
ATOM     23  C   UNL     1      -2.945  -0.693   0.302  0.00  0.00    +0.024 A 
ATOM     24  C   UNL     1      -4.079  -1.476   0.203  0.00  0.00    +0.002 A 
ATOM     25  C   UNL     1      -5.252  -0.938  -0.294  0.00  0.00    +0.001 A 
ATOM     26  C   UNL     1      -5.295   0.386  -0.689  0.00  0.00    +0.014 A 
ATOM     27  C   UNL     1      -4.167   1.176  -0.588  0.00  0.00    +0.076 A 
BRANCH  27  28
ATOM     28  C   UNL     1      -4.215   2.620  -1.019  0.00  0.00    +0.419 C 
ATOM     29  F   UNL     1      -5.500   2.925  -1.481  0.00  0.00    -0.166 F 
ATOM     30  F   UNL     1      -3.903   3.442   0.069  0.00  0.00    -0.166 F 
ATOM     31  F   UNL     1      -3.288   2.831  -2.044  0.00  0.00    -0.166 F 
ENDBRANCH  27  28
ENDBRANCH  20  22
ENDBRANCH  17  18
ENDBRANCH   2  17
TORSDOF 8
