REMARK  Name = ZINC42081474
REMARK  4 active torsions:
REMARK  status: ('A' for Active; 'I' for Inactive)
REMARK    1  A    between atoms: C_11  and  N_13
REMARK    2  A    between atoms: N_13  and  C_14
REMARK    3  A    between atoms: C_14  and  C_15
REMARK    4  A    between atoms: C_15  and  C_16
REMARK                            x       y       z     vdW  Elec       q    Type
REMARK                         _______ _______ _______ _____ _____    ______ ____
ROOT
ATOM      1  C   UNL     1      -0.017   1.378   0.010  0.00  0.00    +0.001 A 
ATOM      2  C   UNL     1       1.175   2.083   0.002  0.00  0.00    +0.004 A 
ATOM      3  C   UNL     1       2.373   1.407  -0.013  0.00  0.00    -0.030 A 
ATOM      4  C   UNL     1       2.406   0.018  -0.021  0.00  0.00    +0.049 A 
ATOM      5  C   UNL     1       1.203  -0.686  -0.013  0.00  0.00    +0.039 A 
ATOM      6  C   UNL     1       0.002  -0.004   0.002  0.00  0.00    +0.017 A 
ATOM      7 BR   UNL     1       1.214  -2.576  -0.023  0.00  0.00    -0.048 Br
ATOM      8  N   UNL     1       3.727  -0.433  -0.036  0.00  0.00    -0.285 N 
ATOM      9  C   UNL     1       4.610   0.579  -0.039  0.00  0.00    +0.208 C 
ATOM     10  O   UNL     1       5.819   0.480  -0.051  0.00  0.00    -0.277 OA
ATOM     11  C   UNL     1       3.813   1.866  -0.024  0.00  0.00    +0.049 C 
ATOM     12  H   UNL     1       3.978  -1.370  -0.043  0.00  0.00    +0.155 HD
ENDROOT
BRANCH  11  13
ATOM     13  N   UNL     1       4.114   2.644   1.185  0.00  0.00    +0.389 N 
ATOM     14  H   UNL     1       3.459   3.407   1.266  0.00  0.00    -0.084 HD
ATOM     15  H   UNL     1       4.039   2.049   1.996  0.00  0.00    -0.084 HD
BRANCH  13  16
ATOM     16  C   UNL     1       5.479   3.179   1.095  0.00  0.00    -0.081 C 
BRANCH  16  17
ATOM     17  C   UNL     1       5.793   3.990   2.354  0.00  0.00    -0.016 C 
BRANCH  17  18
ATOM     18  C   UNL     1       7.215   4.547   2.260  0.00  0.00    -0.013 C 
ATOM     19  C   UNL     1       8.240   3.397   2.334  0.00  0.00    +0.003 C 
ATOM     20  C   UNL     1       9.414   3.985   3.155  0.00  0.00    +0.000 C 
ATOM     21  C   UNL     1       8.689   4.843   4.221  0.00  0.00    +0.000 C 
ATOM     22  C   UNL     1       7.501   5.467   3.460  0.00  0.00    +0.003 C 
ENDBRANCH  17  18
ENDBRANCH  16  17
ENDBRANCH  13  16
ENDBRANCH  11  13
TORSDOF 4
