REMARK  Name = ZINC59170636
REMARK  8 active torsions:
REMARK  status: ('A' for Active; 'I' for Inactive)
REMARK    1  A    between atoms: C_1  and  C_2
REMARK    2  A    between atoms: C_2  and  C_3
REMARK    3  A    between atoms: C_6  and  N_9
REMARK    4  A    between atoms: C_10  and  C_12
REMARK    5  A    between atoms: N_22  and  N_23
REMARK    6  A    between atoms: N_23  and  S_24
REMARK    7  A    between atoms: S_24  and  C_27
REMARK    8  A    between atoms: C_30  and  C_33
REMARK                            x       y       z     vdW  Elec       q    Type
REMARK                         _______ _______ _______ _____ _____    ______ ____
ROOT
ATOM      1  C   UNL     1      -7.671  -2.163  -0.920  0.00  0.00    +0.099 A 
ATOM      2  C   UNL     1      -8.259  -2.434  -2.132  0.00  0.00    +0.030 A 
ATOM      3  C   UNL     1      -9.406  -3.350  -2.142  0.00  0.00    +0.020 A 
ATOM      4  C   UNL     1      -9.883  -3.882  -3.344  0.00  0.00    +0.031 A 
ATOM      5  C   UNL     1     -10.961  -4.743  -3.329  0.00  0.00    +0.042 A 
ATOM      6  C   UNL     1     -11.569  -5.081  -2.129  0.00  0.00    +0.023 A 
ATOM      7  C   UNL     1     -11.107  -4.562  -0.935  0.00  0.00    +0.048 A 
ATOM      8  C   UNL     1     -10.027  -3.695  -0.929  0.00  0.00    +0.138 A 
ATOM      9  O   UNL     1      -9.567  -3.172   0.236  0.00  0.00    -0.437 OA
ATOM     10  C   UNL     1      -8.245  -2.825   0.275  0.00  0.00    +0.225 A 
ATOM     11  N   UNL     1      -7.515  -3.064   1.327  0.00  0.00    -0.260 N 
ATOM     12 CL   UNL     1     -11.559  -5.405  -4.817  0.00  0.00    -0.084 Cl
ATOM     13  H   UNL     1      -6.554  -2.935   1.290  0.00  0.00    +0.189 HD
ENDROOT
BRANCH   1  15
ATOM     14  N   UNL     1      -5.902  -0.813  -1.928  0.00  0.00    -0.281 N 
ATOM     15  C   UNL     1      -6.515  -1.257  -0.813  0.00  0.00    +0.253 C 
ATOM     16  O   UNL     1      -6.114  -0.909   0.281  0.00  0.00    -0.270 OA
ATOM     17  H   UNL     1      -6.282  -1.005  -2.800  0.00  0.00    +0.155 HD
BRANCH  14  21
ATOM     18  C   UNL     1      -2.377   1.386  -1.631  0.00  0.00    -0.048 A 
ATOM     19  C   UNL     1      -2.628   0.634  -2.765  0.00  0.00    +0.005 A 
ATOM     20  C   UNL     1      -3.796  -0.096  -2.866  0.00  0.00    +0.023 A 
ATOM     21  C   UNL     1      -4.718  -0.075  -1.828  0.00  0.00    +0.034 A 
ATOM     22  C   UNL     1      -4.463   0.681  -0.691  0.00  0.00    +0.023 A 
ATOM     23  C   UNL     1      -3.291   1.405  -0.594  0.00  0.00    +0.005 A 
BRANCH  18  25
ATOM     24  C   UNL     1      -0.012   1.317  -0.888  0.00  0.00    +0.009 C 
ATOM     25  C   UNL     1      -1.102   2.182  -1.524  0.00  0.00    +0.032 C 
ENDBRANCH  18  25
ENDBRANCH  14  21
ENDBRANCH   1  15
BRANCH  11  26
ATOM     26  N   UNL     1      -8.117  -3.508   2.511  0.00  0.00    -0.157 N 
ATOM     27  H   UNL     1      -9.064  -3.716   2.526  0.00  0.00    +0.194 HD
BRANCH  26  28
ATOM     28  S   UNL     1      -7.211  -3.678   3.887  0.00  0.00    +0.085 S 
ATOM     29  O   UNL     1      -8.129  -3.834   4.961  0.00  0.00    -0.149 OA
ATOM     30  O   UNL     1      -6.208  -4.641   3.597  0.00  0.00    -0.149 OA
BRANCH  28  31
ATOM     31  C   UNL     1      -6.378  -2.148   4.155  0.00  0.00    +0.110 A 
ATOM     32  C   UNL     1      -5.143  -1.924   3.578  0.00  0.00    +0.029 A 
ATOM     33  C   UNL     1      -4.490  -0.724   3.787  0.00  0.00    +0.005 A 
ATOM     34  C   UNL     1      -5.072   0.252   4.574  0.00  0.00    -0.050 A 
ATOM     35  C   UNL     1      -6.309   0.028   5.151  0.00  0.00    +0.005 A 
ATOM     36  C   UNL     1      -6.964  -1.171   4.938  0.00  0.00    +0.029 A 
ATOM     37  C   UNL     1      -4.360   1.560   4.804  0.00  0.00    +0.044 C 
ENDBRANCH  28  31
ENDBRANCH  26  28
ENDBRANCH  11  26
TORSDOF 6
