REMARK  Name = ZINC04556326
REMARK  7 active torsions:
REMARK  status: ('A' for Active; 'I' for Inactive)
REMARK    1  A    between atoms: C_1  and  C_2
REMARK    2  A    between atoms: C_2  and  N_46
REMARK    3  A    between atoms: C_10  and  O_24
REMARK    4  A    between atoms: C_12  and  C_15
REMARK    5  A    between atoms: C_18  and  O_22
REMARK    6  A    between atoms: C_19  and  O_21
REMARK    7  A    between atoms: O_22  and  C_23
REMARK                            x       y       z     vdW  Elec       q    Type
REMARK                         _______ _______ _______ _____ _____    ______ ____
ROOT
ATOM      1  C   UNL     1       3.489  -0.324   6.433  0.00  0.00    -0.074 C 
ATOM      2  C   UNL     1       2.804  -0.522   5.078  0.00  0.00    +0.018 C 
ATOM      3  C   UNL     1       3.231   0.617   4.158  0.00  0.00    -0.027 A 
ATOM      4  C   UNL     1       3.772   1.743   4.683  0.00  0.00    -0.021 A 
ATOM      5  S   UNL     1       4.115   2.777   3.285  0.00  0.00    -0.080 S 
ATOM      6  C   UNL     1       3.557   1.739   2.044  0.00  0.00    +0.080 A 
ATOM      7  C   UNL     1       3.100   0.596   2.714  0.00  0.00    +0.067 A 
ATOM      8  C   UNL     1       2.534  -0.498   1.884  0.00  0.00    +0.220 C 
ATOM      9  N   UNL     1       2.313  -0.253   0.622  0.00  0.00    -0.223 NA
ATOM     10  C   UNL     1       2.489   1.046  -0.016  0.00  0.00    +0.224 C 
ATOM     11  N   UNL     1       3.506   1.860   0.676  0.00  0.00    -0.313 N 
ATOM     12  C   UNL     1       4.013   2.022   6.133  0.00  0.00    -0.035 C 
ATOM     13  H   UNL     1       4.106   2.449   0.192  0.00  0.00    +0.149 HD
ATOM     14  N   UNL     1       3.224   1.045   6.921  0.00  0.00    +0.383 N 
ATOM     15  H   UNL     1       2.225   1.252   6.807  0.00  0.00    -0.081 HD
ENDROOT
BRANCH  10  16
ATOM     16  C   UNL     1       1.175   1.783   0.000  0.00  0.00    -0.002 A 
ATOM     17  C   UNL     1       1.160   3.166   0.008  0.00  0.00    +0.011 A 
ATOM     18  C   UNL     1      -0.043   3.847   0.023  0.00  0.00    +0.050 A 
ATOM     19  C   UNL     1      -1.237   3.144   0.030  0.00  0.00    +0.161 A 
ATOM     20  C   UNL     1      -1.222   1.752   0.017  0.00  0.00    +0.159 A 
ATOM     21  C   UNL     1      -0.013   1.076   0.008  0.00  0.00    +0.056 A 
BRANCH  20  22
ATOM     22  O   UNL     1      -2.391   1.058   0.019  0.00  0.00    -0.503 OA
ATOM     23  H   UNL     1      -2.725   0.852   0.903  0.00  0.00    +0.292 HD
ENDBRANCH  20  22
BRANCH  19  24
ATOM     24  O   UNL     1      -2.421   3.812   0.044  0.00  0.00    -0.491 OA
ATOM     25  C   UNL     1      -2.361   5.240   0.051  0.00  0.00    +0.277 C 
ENDBRANCH  19  24
ENDBRANCH  10  16
BRANCH  14  27
ATOM     26  C   UNL     1       5.034   0.742   8.576  0.00  0.00    -0.017 C 
ATOM     27  C   UNL     1       3.576   1.148   8.354  0.00  0.00    -0.082 C 
ENDBRANCH  14  27
BRANCH   8  28
ATOM     28  O   UNL     1       2.254  -1.708   2.420  0.00  0.00    -0.492 OA
ATOM     29  H   UNL     1       1.889  -2.343   1.789  0.00  0.00    +0.294 HD
ENDBRANCH   8  28
TORSDOF 5
