REMARK  Name = ZINC43193621
REMARK  16 active torsions:
REMARK  status: ('A' for Active; 'I' for Inactive)
REMARK    1  A    between atoms: C_4  and  C_7
REMARK    2  A    between atoms: C_7  and  C_8
REMARK    3  A    between atoms: C_8  and  C_9
REMARK    4  A    between atoms: C_9  and  O_10
REMARK    5  A    between atoms: O_10  and  C_11
REMARK    6  A    between atoms: C_13  and  O_42
REMARK    7  A    between atoms: C_15  and  O_41
REMARK    8  A    between atoms: C_17  and  O_24
REMARK    9  A    between atoms: C_19  and  C_22
REMARK   10  A    between atoms: C_22  and  O_23
REMARK   11  A    between atoms: O_24  and  C_25
REMARK   12  A    between atoms: C_27  and  O_40
REMARK   13  A    between atoms: C_29  and  O_39
REMARK   14  A    between atoms: C_31  and  O_38
REMARK   15  A    between atoms: C_33  and  C_36
REMARK   16  A    between atoms: C_36  and  O_37
REMARK                            x       y       z     vdW  Elec       q    Type
REMARK                         _______ _______ _______ _____ _____    ______ ____
ROOT
ATOM      1  C   UNL     1       4.498  -4.467  -4.820  0.00  0.00    +0.282 C 
ATOM      2  C   UNL     1       4.354  -5.991  -4.787  0.00  0.00    +0.201 C 
ATOM      3  C   UNL     1       5.113  -6.593  -5.973  0.00  0.00    +0.179 C 
ATOM      4  C   UNL     1       6.577  -6.146  -5.909  0.00  0.00    +0.183 C 
ATOM      5  C   UNL     1       6.634  -4.616  -5.900  0.00  0.00    +0.178 C 
ATOM      6  O   UNL     1       5.883  -4.119  -4.790  0.00  0.00    -0.341 OA
ENDROOT
BRANCH   2   7
ATOM      7  O   UNL     1       2.972  -6.342  -4.874  0.00  0.00    -0.384 OA
ATOM      8  H   UNL     1       2.430  -5.989  -4.155  0.00  0.00    +0.210 HD
ENDBRANCH   2   7
BRANCH   3   9
ATOM      9  O   UNL     1       5.045  -8.019  -5.910  0.00  0.00    -0.386 OA
ATOM     10  H   UNL     1       4.144  -8.371  -5.939  0.00  0.00    +0.210 HD
ENDBRANCH   3   9
BRANCH   4  11
ATOM     11  O   UNL     1       7.181  -6.655  -4.719  0.00  0.00    -0.340 OA
BRANCH  11  12
ATOM     12  C   UNL     1       7.784  -7.941  -4.877  0.00  0.00    +0.282 C 
ATOM     13  C   UNL     1       8.174  -8.494  -3.504  0.00  0.00    +0.201 C 
ATOM     14  C   UNL     1       8.874  -9.844  -3.687  0.00  0.00    +0.179 C 
ATOM     15  C   UNL     1      10.087  -9.658  -4.605  0.00  0.00    +0.177 C 
ATOM     16  C   UNL     1       9.623  -9.060  -5.935  0.00  0.00    +0.178 C 
ATOM     17  O   UNL     1       8.953  -7.821  -5.691  0.00  0.00    -0.341 OA
BRANCH  13  18
ATOM     18  O   UNL     1       9.060  -7.580  -2.855  0.00  0.00    -0.384 OA
ATOM     19  H   UNL     1       8.682  -6.702  -2.711  0.00  0.00    +0.210 HD
ENDBRANCH  13  18
BRANCH  14  20
ATOM     20  O   UNL     1       9.306 -10.335  -2.416  0.00  0.00    -0.386 OA
ATOM     21  H   UNL     1       8.588 -10.470  -1.783  0.00  0.00    +0.210 HD
ENDBRANCH  14  20
BRANCH  15  22
ATOM     22  O   UNL     1      11.025  -8.777  -3.984  0.00  0.00    -0.386 OA
ATOM     23  H   UNL     1      11.357  -9.092  -3.133  0.00  0.00    +0.210 HD
ENDBRANCH  15  22
BRANCH  16  24
ATOM     24  C   UNL     1      10.836  -8.815  -6.835  0.00  0.00    +0.190 C 
BRANCH  24  25
ATOM     25  O   UNL     1      10.394  -8.366  -8.118  0.00  0.00    -0.392 OA
ATOM     26  H   UNL     1      11.112  -8.191  -8.742  0.00  0.00    +0.210 HD
ENDBRANCH  24  25
ENDBRANCH  16  24
ENDBRANCH  11  12
ENDBRANCH   4  11
BRANCH   5  27
ATOM     27  C   UNL     1       8.090  -4.161  -5.776  0.00  0.00    +0.190 C 
BRANCH  27  28
ATOM     28  O   UNL     1       8.154  -2.737  -5.884  0.00  0.00    -0.392 OA
ATOM     29  H   UNL     1       9.049  -2.378  -5.814  0.00  0.00    +0.210 HD
ENDBRANCH  27  28
ENDBRANCH   5  27
BRANCH   1  30
ATOM     30  O   UNL     1       3.839  -3.901  -3.685  0.00  0.00    -0.349 OA
BRANCH  30  31
ATOM     31  C   UNL     1       3.717  -2.478  -3.733  0.00  0.00    +0.163 C 
BRANCH  31  32
ATOM     32  C   UNL     1       3.001  -1.985  -2.475  0.00  0.00    +0.028 C 
BRANCH  32  33
ATOM     33  C   UNL     1       2.870  -0.461  -2.526  0.00  0.00    +0.006 C 
BRANCH  33  37
ATOM     34  C   UNL     1      -0.019   1.526   0.010  0.00  0.00    +0.000 C 
ATOM     35  C   UNL     1       1.417   2.055  -0.000  0.00  0.00    +0.000 C 
ATOM     36  C   UNL     1       2.133   1.562  -1.259  0.00  0.00    +0.003 C 
ATOM     37  C   UNL     1       2.154   0.032  -1.268  0.00  0.00    -0.011 C 
ATOM     38  C   UNL     1       0.718  -0.497  -1.257  0.00  0.00    +0.003 C 
ATOM     39  C   UNL     1       0.002  -0.004   0.002  0.00  0.00    +0.000 C 
ENDBRANCH  33  37
ENDBRANCH  32  33
ENDBRANCH  31  32
ENDBRANCH  30  31
ENDBRANCH   1  30
TORSDOF 16
