REMARK  Name = ZINC39667152
REMARK  10 active torsions:
REMARK  status: ('A' for Active; 'I' for Inactive)
REMARK    1  A    between atoms: C_1  and  C_2
REMARK    2  A    between atoms: C_5  and  C_9
REMARK    3  A    between atoms: C_6  and  C_8
REMARK    4  A    between atoms: C_9  and  C_10
REMARK    5  A    between atoms: C_10  and  N_11
REMARK    6  A    between atoms: C_12  and  C_14
REMARK    7  A    between atoms: C_25  and  C_27
REMARK    8  A    between atoms: C_27  and  O_28
REMARK    9  A    between atoms: O_28  and  C_29
REMARK   10  A    between atoms: C_39  and  C_40
REMARK                            x       y       z     vdW  Elec       q    Type
REMARK                         _______ _______ _______ _____ _____    ______ ____
ROOT
ATOM      1  C   UNL     1      -2.485  -8.466   0.197  0.00  0.00    +0.100 C 
ATOM      2  C   UNL     1      -2.062  -8.991  -1.193  0.00  0.00    +0.121 C 
ATOM      3  N   UNL     1      -2.893 -10.199  -1.406  0.00  0.00    -0.297 N 
ATOM      4  C   UNL     1      -4.221  -9.834  -0.857  0.00  0.00    +0.115 C 
ATOM      5  C   UNL     1      -3.903  -9.021   0.414  0.00  0.00    -0.004 C 
ATOM      6  C   UNL     1      -4.900  -7.877   0.570  0.00  0.00    -0.010 C 
ATOM      7  C   UNL     1      -6.293  -8.453   0.843  0.00  0.00    -0.082 C 
ATOM      8  N   UNL     1      -6.257  -9.268   2.063  0.00  0.00    +0.379 N 
ATOM      9  C   UNL     1      -5.366 -10.418   1.871  0.00  0.00    -0.082 C 
ATOM     10  C   UNL     1      -3.934  -9.925   1.642  0.00  0.00    -0.010 C 
ATOM     11  C   UNL     1      -2.525 -11.365  -1.972  0.00  0.00    +0.253 C 
ATOM     12  O   UNL     1      -3.328 -12.268  -2.076  0.00  0.00    -0.272 OA
ATOM     13  H   UNL     1      -5.919  -8.707   2.831  0.00  0.00    -0.086 HD
ATOM     14  H   UNL     1      -7.187  -9.596   2.274  0.00  0.00    -0.086 HD
ENDROOT
BRANCH   1  16
ATOM     15  N   UNL     1      -2.275  -6.288   1.352  0.00  0.00    -0.315 N 
ATOM     16  C   UNL     1      -2.505  -6.959   0.206  0.00  0.00    +0.218 C 
ATOM     17  O   UNL     1      -2.727  -6.349  -0.819  0.00  0.00    -0.275 OA
ATOM     18  H   UNL     1      -2.097  -6.775   2.172  0.00  0.00    +0.149 HD
BRANCH  15  19
ATOM     19  C   UNL     1      -2.294  -4.823   1.360  0.00  0.00    +0.109 C 
BRANCH  19  20
ATOM     20  C   UNL     1      -2.006  -4.317   2.775  0.00  0.00    +0.054 C 
BRANCH  20  25
ATOM     21  C   UNL     1      -2.080   1.461   2.803  0.00  0.00    +0.044 C 
ATOM     22  C   UNL     1      -2.061  -0.046   2.796  0.00  0.00    -0.050 A 
ATOM     23  C   UNL     1      -0.863  -0.721   2.652  0.00  0.00    +0.003 A 
ATOM     24  C   UNL     1      -0.845  -2.103   2.645  0.00  0.00    +0.004 A 
ATOM     25  C   UNL     1      -2.025  -2.811   2.783  0.00  0.00    -0.043 A 
ATOM     26  C   UNL     1      -3.222  -2.136   2.928  0.00  0.00    -0.047 A 
ATOM     27  C   UNL     1      -3.240  -0.753   2.939  0.00  0.00    +0.007 A 
ATOM     28  C   UNL     1      -4.509  -2.907   3.078  0.00  0.00    +0.044 C 
ENDBRANCH  20  25
ENDBRANCH  19  20
ENDBRANCH  15  19
ENDBRANCH   1  16
BRANCH  11  29
ATOM     29  C   UNL     1      -1.116 -11.548  -2.474  0.00  0.00    +0.324 C 
BRANCH  29  30
ATOM     30  O   UNL     1      -0.973 -12.858  -3.026  0.00  0.00    -0.479 OA
BRANCH  30  31
ATOM     31  C   UNL     1       0.247 -13.187  -3.528  0.00  0.00    +0.164 A 
ATOM     32  C   UNL     1       1.284 -12.272  -3.484  0.00  0.00    +0.049 A 
ATOM     33  C   UNL     1       2.533 -12.596  -3.992  0.00  0.00    +0.004 A 
ATOM     34  C   UNL     1       2.760 -13.834  -4.548  0.00  0.00    +0.012 A 
ATOM     35  C   UNL     1       1.723 -14.771  -4.600  0.00  0.00    +0.024 A 
ATOM     36  C   UNL     1       0.458 -14.448  -4.081  0.00  0.00    +0.181 A 
ATOM     37  O   UNL     1      -0.541 -15.357  -4.128  0.00  0.00    -0.418 OA
ATOM     38  C   UNL     1      -0.355 -16.575  -4.658  0.00  0.00    +0.338 A 
ATOM     39  O   UNL     1      -1.285 -17.361  -4.679  0.00  0.00    -0.245 OA
ATOM     40  C   UNL     1       0.891 -16.969  -5.192  0.00  0.00    +0.096 A 
ATOM     41  C   UNL     1       1.933 -16.099  -5.186  0.00  0.00    -0.033 A 
ATOM     42  C   UNL     1       3.273 -16.493  -5.751  0.00  0.00    +0.045 C 
ENDBRANCH  30  31
ENDBRANCH  29  30
ENDBRANCH  11  29
TORSDOF 7
