REMARK  Name = ZINC04221777
REMARK  9 active torsions:
REMARK  status: ('A' for Active; 'I' for Inactive)
REMARK    1  A    between atoms: C_1  and  C_2
REMARK    2  A    between atoms: C_2  and  C_4
REMARK    3  A    between atoms: C_2  and  N_7
REMARK    4  A    between atoms: C_8  and  C_10
REMARK    5  A    between atoms: C_12  and  N_21
REMARK    6  A    between atoms: C_14  and  O_20
REMARK    7  A    between atoms: C_16  and  O_19
REMARK    8  A    between atoms: N_21  and  S_22
REMARK    9  A    between atoms: S_22  and  C_25
REMARK                            x       y       z     vdW  Elec       q    Type
REMARK                         _______ _______ _______ _____ _____    ______ ____
ROOT
ATOM      1  C   UNL     1      -2.734   1.065   1.945  0.00  0.00    +0.015 C 
ATOM      2  C   UNL     1      -1.777   1.808   1.431  0.00  0.00    +0.004 C 
ATOM      3  C   UNL     1      -1.290   1.681   0.017  0.00  0.00    +0.131 C 
ATOM      4  C   UNL     1      -2.309   0.910  -0.824  0.00  0.00    +0.166 C 
ATOM      5  C   UNL     1      -2.682  -0.377  -0.078  0.00  0.00    +0.149 C 
ATOM      6  C   UNL     1      -3.466   0.001   1.181  0.00  0.00    +0.074 C 
ENDROOT
BRANCH   1   8
ATOM      7  N   UNL     1      -4.082   0.551   3.915  0.00  0.00    -0.301 N 
ATOM      8  C   UNL     1      -3.107   1.291   3.350  0.00  0.00    +0.240 C 
ATOM      9  O   UNL     1      -2.536   2.144   4.001  0.00  0.00    -0.271 OA
ATOM     10  H   UNL     1      -4.537  -0.130   3.395  0.00  0.00    +0.150 HD
BRANCH   7  12
ATOM     11  C   UNL     1      -3.520  -0.025   6.225  0.00  0.00    +0.038 C 
ATOM     12  C   UNL     1      -4.454   0.775   5.314  0.00  0.00    +0.156 C 
BRANCH  12  13
ATOM     13  C   UNL     1      -5.875   0.327   5.534  0.00  0.00    +0.231 C 
ATOM     14  O   UNL     1      -6.515  -0.134   4.613  0.00  0.00    -0.274 OA
ATOM     15  N   UNL     1      -6.436   0.439   6.754  0.00  0.00    -0.328 N 
ATOM     16  H   UNL     1      -5.925   0.808   7.491  0.00  0.00    +0.145 HD
ATOM     17  H   UNL     1      -7.352   0.151   6.896  0.00  0.00    +0.145 HD
ENDBRANCH  12  13
ENDBRANCH   7  12
ENDBRANCH   1   8
BRANCH   5  18
ATOM     18  O   UNL     1      -3.491  -1.205  -0.916  0.00  0.00    -0.389 OA
ATOM     19  H   UNL     1      -3.773  -2.030  -0.499  0.00  0.00    +0.210 HD
ENDBRANCH   5  18
BRANCH   4  20
ATOM     20  O   UNL     1      -1.735   0.581  -2.091  0.00  0.00    -0.387 OA
ATOM     21  H   UNL     1      -2.328   0.090  -2.676  0.00  0.00    +0.210 HD
ENDBRANCH   4  20
BRANCH   3  22
ATOM     22  N   UNL     1      -0.011   0.966   0.007  0.00  0.00    -0.180 NA
ATOM     23  H   UNL     1       0.002  -0.004   0.002  0.00  0.00    +0.149 HD
BRANCH  22  24
ATOM     24  S   UNL     1       1.412   1.813  -0.002  0.00  0.00    +0.065 S 
ATOM     25  O   UNL     1       2.457   0.851   0.010  0.00  0.00    -0.153 OA
ATOM     26  O   UNL     1       1.292   2.796  -1.021  0.00  0.00    -0.153 OA
BRANCH  24  27
ATOM     27  C   UNL     1       1.510   2.683   1.528  0.00  0.00    +0.142 A 
ATOM     28  C   UNL     1       2.050   2.282   2.704  0.00  0.00    +0.036 A 
ATOM     29  C   UNL     1       2.014   3.142   3.786  0.00  0.00    +0.010 A 
ATOM     30  C   UNL     1       1.440   4.361   3.638  0.00  0.00    +0.047 A 
ATOM     31  S   UNL     1       0.931   4.324   1.927  0.00  0.00    -0.077 S 
ENDBRANCH  24  27
ENDBRANCH  22  24
ENDBRANCH   3  22
TORSDOF 8
