REMARK  Name = ZINC63117439
REMARK  14 active torsions:
REMARK  status: ('A' for Active; 'I' for Inactive)
REMARK    1  A    between atoms: C_1  and  C_2
REMARK    2  A    between atoms: C_2  and  O_3
REMARK    3  A    between atoms: O_3  and  C_4
REMARK    4  A    between atoms: C_7  and  C_12
REMARK    5  A    between atoms: C_9  and  O_10
REMARK    6  A    between atoms: O_10  and  C_11
REMARK    7  A    between atoms: C_12  and  C_14
REMARK    8  A    between atoms: C_12  and  C_32
REMARK    9  A    between atoms: C_14  and  N_15
REMARK   10  A    between atoms: C_16  and  C_18
REMARK   11  A    between atoms: C_18  and  C_19
REMARK   12  A    between atoms: C_19  and  C_21
REMARK   13  A    between atoms: C_19  and  N_28
REMARK   14  A    between atoms: C_26  and  C_27
REMARK                            x       y       z     vdW  Elec       q    Type
REMARK                         _______ _______ _______ _____ _____    ______ ____
ROOT
ATOM      1  C   UNL     1      -2.592  -5.997   0.407  0.00  0.00    +0.064 C 
ENDROOT
BRANCH   1   2
ATOM      2  C   UNL     1      -2.069  -6.487  -0.919  0.00  0.00    -0.033 C 
ATOM      3  C   UNL     1      -2.755  -7.175  -1.860  0.00  0.00    -0.000 A 
ATOM      4  C   UNL     1      -4.141  -7.656  -1.927  0.00  0.00    +0.010 A 
ATOM      5  C   UNL     1      -4.547  -8.332  -3.026  0.00  0.00    +0.001 A 
ATOM      6  C   UNL     1      -3.680  -8.586  -4.098  0.00  0.00    +0.002 A 
ATOM      7  C   UNL     1      -2.394  -8.176  -4.109  0.00  0.00    +0.026 A 
ATOM      8  C   UNL     1      -1.861  -7.455  -3.005  0.00  0.00    +0.043 A 
ATOM      9  N   UNL     1      -0.668  -6.960  -2.781  0.00  0.00    -0.380 N 
ATOM     10  C   UNL     1      -0.673  -6.303  -1.469  0.00  0.00    +0.145 C 
ATOM     11  H   UNL     1       0.090  -7.014  -3.384  0.00  0.00    +0.160 HD
ENDBRANCH   1   2
BRANCH   1  15
ATOM     12  C   UNL     1      -2.261  -1.737   0.580  0.00  0.00    +0.162 A 
ATOM     13  C   UNL     1      -1.128  -2.516   0.409  0.00  0.00    +0.050 A 
ATOM     14  C   UNL     1      -1.239  -3.893   0.354  0.00  0.00    +0.008 A 
ATOM     15  C   UNL     1      -2.478  -4.496   0.468  0.00  0.00    -0.035 A 
ATOM     16  C   UNL     1      -3.612  -3.724   0.638  0.00  0.00    +0.053 A 
ATOM     17  C   UNL     1      -3.507  -2.343   0.701  0.00  0.00    +0.162 A 
BRANCH  17  18
ATOM     18  O   UNL     1      -4.622  -1.583   0.874  0.00  0.00    -0.491 OA
ATOM     19  C   UNL     1      -5.867  -2.274   0.991  0.00  0.00    +0.277 C 
ENDBRANCH  17  18
BRANCH  12  20
ATOM     20  O   UNL     1      -2.154  -0.382   0.635  0.00  0.00    -0.489 OA
BRANCH  20  22
ATOM     21  C   UNL     1      -0.922   1.696   0.590  0.00  0.00    +0.048 C 
ATOM     22  C   UNL     1      -0.843   0.171   0.504  0.00  0.00    +0.226 C 
ENDBRANCH  20  22
ENDBRANCH  12  20
ENDBRANCH   1  15
BRANCH   1  23
ATOM     23  C   UNL     1      -1.773  -6.618   1.540  0.00  0.00    +0.116 C 
BRANCH  23  24
ATOM     24  N   UNL     1      -1.979  -8.068   1.554  0.00  0.00    -0.314 N 
ATOM     25  C   UNL     1      -1.352  -8.829   2.473  0.00  0.00    +0.215 C 
ATOM     26  O   UNL     1      -0.618  -8.313   3.288  0.00  0.00    -0.276 OA
ATOM     27  H   UNL     1      -2.567  -8.481   0.901  0.00  0.00    +0.149 HD
BRANCH  25  28
ATOM     28  C   UNL     1      -1.565 -10.321   2.487  0.00  0.00    +0.123 C 
BRANCH  28  29
ATOM     29  C   UNL     1      -0.745 -10.942   3.620  0.00  0.00    +0.114 C 
BRANCH  29  30
ATOM     30  C   UNL     1      -0.860 -12.443   3.558  0.00  0.00    -0.024 A 
ATOM     31  C   UNL     1      -1.835 -13.031   2.775  0.00  0.00    +0.006 A 
ATOM     32  C   UNL     1      -1.941 -14.408   2.718  0.00  0.00    +0.000 A 
ATOM     33  C   UNL     1      -1.070 -15.198   3.445  0.00  0.00    +0.000 A 
ATOM     34  C   UNL     1      -0.093 -14.611   4.228  0.00  0.00    +0.004 A 
ATOM     35  C   UNL     1       0.015 -13.233   4.281  0.00  0.00    -0.045 A 
ATOM     36  C   UNL     1       1.082 -12.594   5.130  0.00  0.00    +0.044 C 
ENDBRANCH  29  30
BRANCH  29  37
ATOM     37  N   UNL     1      -1.253 -10.466   4.909  0.00  0.00    -0.292 N 
ATOM     38  C   UNL     1      -2.512 -10.762   5.287  0.00  0.00    +0.298 C 
ATOM     39  O   UNL     1      -3.195 -11.501   4.604  0.00  0.00    -0.253 OA
ATOM     40  N   UNL     1      -3.015 -10.240   6.424  0.00  0.00    -0.313 N 
ATOM     41  H   UNL     1      -0.684  -9.937   5.489  0.00  0.00    +0.151 HD
ATOM     42  H   UNL     1      -2.470  -9.651   6.969  0.00  0.00    +0.146 HD
ATOM     43  H   UNL     1      -3.921 -10.454   6.696  0.00  0.00    +0.146 HD
ENDBRANCH  29  37
ENDBRANCH  28  29
ENDBRANCH  25  28
ENDBRANCH  23  24
ENDBRANCH   1  23
TORSDOF 11
