REMARK  Name = ZINC35740268
REMARK  4 active torsions:
REMARK  status: ('A' for Active; 'I' for Inactive)
REMARK    1  A    between atoms: C_1  and  C_2
REMARK    2  A    between atoms: N_9  and  C_10
REMARK    3  A    between atoms: N_17  and  C_18
REMARK    4  A    between atoms: C_22  and  C_24
REMARK                            x       y       z     vdW  Elec       q    Type
REMARK                         _______ _______ _______ _____ _____    ______ ____
ROOT
ATOM      1  C   UNL     1      -0.071   0.938  -2.530  0.00  0.00    +0.053 C 
ATOM      2  C   UNL     1       0.229  -0.504  -2.210  0.00  0.00    +0.007 A 
ATOM      3  C   UNL     1       0.161  -1.583  -3.034  0.00  0.00    +0.054 A 
ATOM      4  C   UNL     1       0.497  -2.794  -2.462  0.00  0.00    +0.110 A 
ATOM      5  N   UNL     1       0.470  -3.977  -3.192  0.00  0.00    -0.344 N 
ATOM      6  N   UNL     1       0.849  -2.775  -1.182  0.00  0.00    -0.239 N 
ATOM      7  S   UNL     1       0.736  -1.162  -0.752  0.00  0.00    -0.008 S 
ATOM      8  C   UNL     1       1.218  -3.818  -0.405  0.00  0.00    +0.212 C 
ATOM      9  N   UNL     1       0.318  -4.698  -0.013  0.00  0.00    -0.215 NA
ATOM     10  N   UNL     1       2.535  -3.962  -0.024  0.00  0.00    -0.284 N 
ATOM     11  H   UNL     1       0.136  -3.977  -4.103  0.00  0.00    +0.144 HD
ATOM     12  H   UNL     1       3.182  -3.273  -0.244  0.00  0.00    +0.155 HD
ATOM     13  H   UNL     1       0.787  -4.802  -2.791  0.00  0.00    +0.144 HD
ENDROOT
BRANCH   9  14
ATOM     14  C   UNL     1      -1.007  -4.479  -0.266  0.00  0.00    +0.069 A 
ATOM     15  C   UNL     1      -1.631  -3.323   0.210  0.00  0.00    +0.028 A 
ATOM     16  C   UNL     1      -2.969  -3.108  -0.049  0.00  0.00    +0.003 A 
ATOM     17  C   UNL     1      -3.693  -4.034  -0.778  0.00  0.00    +0.020 A 
ATOM     18  C   UNL     1      -3.083  -5.182  -1.253  0.00  0.00    +0.043 A 
ATOM     19  C   UNL     1      -1.743  -5.407  -1.006  0.00  0.00    +0.047 A 
ATOM     20 CL   UNL     1      -4.001  -6.338  -2.166  0.00  0.00    -0.083 Cl
ENDBRANCH   9  14
BRANCH  10  21
ATOM     21  C   UNL     1       2.939  -5.101   0.679  0.00  0.00    +0.035 A 
ATOM     22  C   UNL     1       2.339  -6.328   0.419  0.00  0.00    +0.023 A 
ATOM     23  C   UNL     1       2.734  -7.457   1.111  0.00  0.00    +0.003 A 
ATOM     24  C   UNL     1       3.727  -7.375   2.066  0.00  0.00    +0.019 A 
ATOM     25  C   UNL     1       4.337  -6.148   2.334  0.00  0.00    +0.054 A 
ATOM     26  C   UNL     1       3.942  -5.009   1.631  0.00  0.00    +0.042 A 
BRANCH  25  27
ATOM     27  C   UNL     1       5.368  -6.059   3.324  0.00  0.00    +0.099 C 
ATOM     28  N   UNL     1       6.186  -5.989   4.110  0.00  0.00    -0.191 NA
ENDBRANCH  25  27
ENDBRANCH  10  21
TORSDOF 3
