REMARK  Name = ZINC13038959
REMARK  16 active torsions:
REMARK  status: ('A' for Active; 'I' for Inactive)
REMARK    1  A    between atoms: C_1  and  C_2
REMARK    2  A    between atoms: C_5  and  C_8
REMARK    3  A    between atoms: C_8  and  N_9
REMARK    4  A    between atoms: N_9  and  C_10
REMARK    5  A    between atoms: C_13  and  S_19
REMARK    6  A    between atoms: C_15  and  N_16
REMARK    7  A    between atoms: S_19  and  N_22
REMARK    8  A    between atoms: N_22  and  C_23
REMARK    9  A    between atoms: C_23  and  C_24
REMARK   10  A    between atoms: C_24  and  N_63
REMARK   11  A    between atoms: C_25  and  C_26
REMARK   12  A    between atoms: C_25  and  C_27
REMARK   13  A    between atoms: C_25  and  N_63
REMARK   14  A    between atoms: C_28  and  C_29
REMARK   15  A    between atoms: C_28  and  C_30
REMARK   16  A    between atoms: C_28  and  N_63
REMARK                            x       y       z     vdW  Elec       q    Type
REMARK                         _______ _______ _______ _____ _____    ______ ____
ROOT
ATOM      1  C   UNL     1      -2.280   3.388  -4.053  0.00  0.00    +0.058 A 
ATOM      2  C   UNL     1      -1.711   4.073  -2.987  0.00  0.00    +0.027 A 
ATOM      3  C   UNL     1      -1.525   3.433  -1.777  0.00  0.00    +0.030 A 
ATOM      4  C   UNL     1      -1.895   2.109  -1.630  0.00  0.00    +0.108 A 
ATOM      5  C   UNL     1      -2.462   1.424  -2.689  0.00  0.00    +0.063 A 
ATOM      6  C   UNL     1      -2.656   2.060  -3.900  0.00  0.00    +0.149 A 
ENDROOT
BRANCH   6   7
ATOM      7  N   UNL     1      -3.264   1.326  -5.033  0.00  0.00    +0.058 N 
ATOM      8  O   UNL     1      -4.151   0.517  -4.829  0.00  0.00    -0.126 OA
ATOM      9  O   UNL     1      -2.876   1.532  -6.169  0.00  0.00    -0.126 OA
ENDBRANCH   6   7
BRANCH   4  10
ATOM     10  S   UNL     1      -1.650   1.294  -0.087  0.00  0.00    +0.058 S 
ATOM     11  O   UNL     1      -2.584   0.224  -0.040  0.00  0.00    -0.153 OA
ATOM     12  O   UNL     1      -1.605   2.310   0.906  0.00  0.00    -0.153 OA
BRANCH  10  13
ATOM     13  N   UNL     1      -0.144   0.606  -0.130  0.00  0.00    -0.192 NA
ATOM     14  H   UNL     1      -0.051  -0.359  -0.103  0.00  0.00    +0.148 HD
BRANCH  13  15
ATOM     15  C   UNL     1       1.047   1.456  -0.214  0.00  0.00    +0.087 C 
BRANCH  15  16
ATOM     16  C   UNL     1       2.288   0.628   0.127  0.00  0.00    -0.061 C 
BRANCH  16  17
ATOM     17  N   UNL     1       3.489   1.456  -0.114  0.00  0.00    +0.384 N 
ATOM     18  H   UNL     1       3.364   1.978  -0.989  0.00  0.00    -0.081 HD
BRANCH  17  19
ATOM     19  C   UNL     1       3.672   2.415   0.996  0.00  0.00    -0.074 C 
ATOM     20  C   UNL     1       2.899   3.693   0.667  0.00  0.00    -0.014 C 
ATOM     21  C   UNL     1       3.146   1.823   2.305  0.00  0.00    -0.014 C 
ENDBRANCH  17  19
BRANCH  17  22
ATOM     22  C   UNL     1       4.681   0.591  -0.236  0.00  0.00    -0.074 C 
ATOM     23  C   UNL     1       4.454  -0.413  -1.368  0.00  0.00    -0.014 C 
ATOM     24  C   UNL     1       5.894   1.464  -0.565  0.00  0.00    -0.014 C 
ENDBRANCH  17  22
ENDBRANCH  16  17
ENDBRANCH  15  16
ENDBRANCH  13  15
ENDBRANCH  10  13
ENDBRANCH   4  10
BRANCH   1  25
ATOM     25  N   UNL     1      -2.475   4.034  -5.276  0.00  0.00    -0.338 N 
ATOM     26  H   UNL     1      -2.947   3.583  -5.993  0.00  0.00    +0.146 HD
BRANCH  25  27
ATOM     27  C   UNL     1      -1.968   5.394  -5.475  0.00  0.00    +0.137 C 
BRANCH  27  32
ATOM     28  C   UNL     1      -3.268   7.173 -10.817  0.00  0.00    +0.044 C 
ATOM     29  C   UNL     1      -2.929   6.709  -9.424  0.00  0.00    -0.050 A 
ATOM     30  C   UNL     1      -3.810   6.941  -8.385  0.00  0.00    +0.003 A 
ATOM     31  C   UNL     1      -3.499   6.516  -7.107  0.00  0.00    +0.005 A 
ATOM     32  C   UNL     1      -2.307   5.858  -6.868  0.00  0.00    -0.030 A 
ATOM     33  C   UNL     1      -1.424   5.630  -7.907  0.00  0.00    +0.005 A 
ATOM     34  C   UNL     1      -1.737   6.051  -9.186  0.00  0.00    +0.003 A 
ENDBRANCH  27  32
ENDBRANCH  25  27
ENDBRANCH   1  25
TORSDOF 11
