REMARK  Name = ZINC34996185
REMARK  7 active torsions:
REMARK  status: ('A' for Active; 'I' for Inactive)
REMARK    1  A    between atoms: C_1  and  C_2
REMARK    2  A    between atoms: C_2  and  C_4
REMARK    3  A    between atoms: C_2  and  N_11
REMARK    4  A    between atoms: N_11  and  C_12
REMARK    5  A    between atoms: C_12  and  C_13
REMARK    6  A    between atoms: C_16  and  O_20
REMARK    7  A    between atoms: C_17  and  O_19
REMARK                            x       y       z     vdW  Elec       q    Type
REMARK                         _______ _______ _______ _____ _____    ______ ____
ROOT
ATOM      1  N   UNL     1      -1.376  -0.512   0.012  0.00  0.00    +0.386 N 
ATOM      2  H   UNL     1      -1.888  -0.113  -0.760  0.00  0.00    -0.085 HD
ATOM      3  H   UNL     1      -1.364  -1.518  -0.076  0.00  0.00    -0.085 HD
ENDROOT
BRANCH   1   5
ATOM      4  C   UNL     1      -0.019   1.526   0.010  0.00  0.00    -0.009 C 
ATOM      5  C   UNL     1       0.002  -0.004   0.002  0.00  0.00    -0.043 C 
BRANCH   5   6
ATOM      6  C   UNL     1       0.707  -0.490  -1.238  0.00  0.00    -0.048 A 
ATOM      7  C   UNL     1      -0.023  -0.817  -2.365  0.00  0.00    +0.003 A 
ATOM      8  C   UNL     1       0.624  -1.262  -3.503  0.00  0.00    +0.000 A 
ATOM      9  C   UNL     1       2.002  -1.381  -3.513  0.00  0.00    +0.001 A 
ATOM     10  C   UNL     1       2.732  -1.054  -2.387  0.00  0.00    +0.015 A 
ATOM     11  C   UNL     1       2.086  -0.603  -1.250  0.00  0.00    +0.019 A 
ATOM     12 BR   UNL     1       3.086  -0.149   0.290  0.00  0.00    -0.050 Br
ENDBRANCH   5   6
ENDBRANCH   1   5
BRANCH   1  13
ATOM     13  C   UNL     1      -2.026  -0.140   1.276  0.00  0.00    -0.046 C 
BRANCH  13  14
ATOM     14  C   UNL     1      -3.440  -0.661   1.287  0.00  0.00    -0.061 A 
ATOM     15  C   UNL     1      -4.467   0.119   0.789  0.00  0.00    +0.005 A 
ATOM     16  C   UNL     1      -5.765  -0.355   0.797  0.00  0.00    +0.049 A 
ATOM     17  C   UNL     1      -6.040  -1.615   1.303  0.00  0.00    +0.158 A 
ATOM     18  C   UNL     1      -5.006  -2.401   1.804  0.00  0.00    +0.158 A 
ATOM     19  C   UNL     1      -3.706  -1.921   1.789  0.00  0.00    +0.051 A 
BRANCH  18  20
ATOM     20  O   UNL     1      -5.271  -3.638   2.302  0.00  0.00    -0.503 OA
ATOM     21  H   UNL     1      -5.224  -4.345   1.644  0.00  0.00    +0.292 HD
ENDBRANCH  18  20
BRANCH  17  22
ATOM     22  O   UNL     1      -7.317  -2.082   1.312  0.00  0.00    -0.503 OA
ATOM     23  H   UNL     1      -7.564  -2.567   0.512  0.00  0.00    +0.292 HD
ENDBRANCH  17  22
ENDBRANCH  13  14
ENDBRANCH   1  13
TORSDOF 6
