REMARK  Name = ZINC65488904
REMARK  12 active torsions:
REMARK  status: ('A' for Active; 'I' for Inactive)
REMARK    1  A    between atoms: C_1  and  C_2
REMARK    2  A    between atoms: C_2  and  O_3
REMARK    3  A    between atoms: O_3  and  C_4
REMARK    4  A    between atoms: C_7  and  C_12
REMARK    5  A    between atoms: C_9  and  C_10
REMARK    6  A    between atoms: C_10  and  O_11
REMARK    7  A    between atoms: N_17  and  C_28
REMARK    8  A    between atoms: C_21  and  C_23
REMARK    9  A    between atoms: C_21  and  C_26
REMARK   10  A    between atoms: C_23  and  C_24
REMARK   11  A    between atoms: C_24  and  O_25
REMARK   12  A    between atoms: C_26  and  O_27
REMARK                            x       y       z     vdW  Elec       q    Type
REMARK                         _______ _______ _______ _____ _____    ______ ____
ROOT
ATOM      1  C   UNL     1       0.966  -5.970   1.690  0.00  0.00    +0.086 C 
ATOM      2  C   UNL     1       2.149  -6.584   0.906  0.00  0.00    -0.003 C 
ATOM      3  C   UNL     1       2.093  -6.074  -0.553  0.00  0.00    -0.074 C 
ATOM      4  N   UNL     1       2.593  -7.227  -1.343  0.00  0.00    +0.378 N 
ATOM      5  C   UNL     1       2.018  -8.431  -0.707  0.00  0.00    -0.074 C 
ATOM      6  C   UNL     1       1.756  -8.086   0.787  0.00  0.00    -0.002 C 
ATOM      7  C   UNL     1       0.240  -8.124   1.048  0.00  0.00    +0.046 C 
ATOM      8  N   UNL     1      -0.215  -6.725   1.201  0.00  0.00    -0.301 NA
ATOM      9  C   UNL     1       2.138  -7.124  -2.736  0.00  0.00    -0.096 C 
ATOM     10  H   UNL     1      -0.981  -6.660   1.854  0.00  0.00    +0.123 HD
ATOM     11  H   UNL     1       3.601  -7.263  -1.307  0.00  0.00    -0.082 HD
ENDROOT
BRANCH   1  15
ATOM     12  C   UNL     1       0.567  -1.811   0.792  0.00  0.00    +0.126 A 
ATOM     13  C   UNL     1      -0.031  -2.759  -0.026  0.00  0.00    +0.046 A 
ATOM     14  C   UNL     1       0.100  -4.103   0.267  0.00  0.00    +0.009 A 
ATOM     15  C   UNL     1       0.825  -4.504   1.373  0.00  0.00    -0.030 A 
ATOM     16  C   UNL     1       1.422  -3.561   2.190  0.00  0.00    +0.014 A 
ATOM     17  C   UNL     1       1.299  -2.216   1.899  0.00  0.00    +0.020 A 
BRANCH  12  18
ATOM     18  O   UNL     1       0.441  -0.489   0.507  0.00  0.00    -0.492 OA
BRANCH  18  20
ATOM     19  C   UNL     1      -0.357   1.377  -0.806  0.00  0.00    +0.048 C 
ATOM     20  C   UNL     1      -0.327  -0.145  -0.648  0.00  0.00    +0.225 C 
ENDBRANCH  18  20
ENDBRANCH  12  18
BRANCH  17  21
ATOM     21  C   UNL     1       1.955  -1.190   2.787  0.00  0.00    +0.194 C 
BRANCH  21  22
ATOM     22  O   UNL     1       2.644  -1.850   3.850  0.00  0.00    -0.390 OA
ATOM     23  H   UNL     1       3.091  -1.249   4.462  0.00  0.00    +0.210 HD
ENDBRANCH  21  22
ENDBRANCH  17  21
ENDBRANCH   1  15
BRANCH   7  24
ATOM     24  C   UNL     1      -0.049  -8.906   2.331  0.00  0.00    +0.052 C 
BRANCH  24  25
ATOM     25  C   UNL     1      -1.546  -8.846   2.639  0.00  0.00    +0.157 C 
BRANCH  25  26
ATOM     26  O   UNL     1      -1.834  -9.674   3.767  0.00  0.00    -0.395 OA
ATOM     27  H   UNL     1      -2.768  -9.684   4.020  0.00  0.00    +0.209 HD
ENDBRANCH  25  26
ENDBRANCH  24  25
ENDBRANCH   7  24
BRANCH   7  28
ATOM     28  C   UNL     1      -0.475  -8.779  -0.136  0.00  0.00    +0.178 C 
BRANCH  28  29
ATOM     29  O   UNL     1       0.050 -10.092  -0.343  0.00  0.00    -0.393 OA
ATOM     30  H   UNL     1      -0.358 -10.567  -1.080  0.00  0.00    +0.209 HD
ENDBRANCH  28  29
ENDBRANCH   7  28
TORSDOF 10
