REMARK  Name = ZINC41779944
REMARK  13 active torsions:
REMARK  status: ('A' for Active; 'I' for Inactive)
REMARK    1  A    between atoms: C_1  and  C_2
REMARK    2  A    between atoms: C_2  and  O_3
REMARK    3  A    between atoms: O_3  and  C_4
REMARK    4  A    between atoms: C_9  and  O_10
REMARK    5  A    between atoms: O_10  and  C_11
REMARK    6  A    between atoms: C_11  and  C_12
REMARK    7  A    between atoms: N_14  and  N_15
REMARK    8  A    between atoms: C_16  and  C_18
REMARK    9  A    between atoms: C_18  and  C_20
REMARK   10  A    between atoms: C_18  and  N_24
REMARK   11  A    between atoms: C_20  and  C_21
REMARK   12  A    between atoms: C_21  and  S_22
REMARK   13  A    between atoms: S_22  and  C_23
REMARK                            x       y       z     vdW  Elec       q    Type
REMARK                         _______ _______ _______ _____ _____    ______ ____
ROOT
ATOM      1  N   UNL     1       4.207  -0.354  -7.437  0.00  0.00    -0.233 N 
ATOM      2  C   UNL     1       4.852  -0.690  -8.572  0.00  0.00    +0.249 C 
ATOM      3  O   UNL     1       5.021  -1.858  -8.850  0.00  0.00    -0.272 OA
ATOM      4  H   UNL     1       4.072   0.580  -7.214  0.00  0.00    +0.173 HD
ENDROOT
BRANCH   1   7
ATOM      5  C   UNL     1       3.088  -1.019  -5.443  0.00  0.00    +0.267 C 
ATOM      6  O   UNL     1       2.919   0.150  -5.165  0.00  0.00    -0.271 OA
ATOM      7  N   UNL     1       3.733  -1.355  -6.578  0.00  0.00    -0.232 N 
ATOM      8  H   UNL     1       3.868  -2.289  -6.801  0.00  0.00    +0.173 HD
BRANCH   5   9
ATOM      9  C   UNL     1       2.578  -2.095  -4.520  0.00  0.00    +0.326 C 
BRANCH   9  10
ATOM     10  O   UNL     1       1.936  -1.492  -3.394  0.00  0.00    -0.479 OA
BRANCH  10  16
ATOM     11  C   UNL     1       0.777  -1.811  -1.336  0.00  0.00    +0.162 A 
ATOM     12  C   UNL     1       0.243  -2.669  -0.388  0.00  0.00    +0.049 A 
ATOM     13  C   UNL     1       0.352  -4.037  -0.555  0.00  0.00    +0.004 A 
ATOM     14  C   UNL     1       0.992  -4.552  -1.667  0.00  0.00    +0.004 A 
ATOM     15  C   UNL     1       1.526  -3.702  -2.616  0.00  0.00    +0.049 A 
ATOM     16  C   UNL     1       1.416  -2.330  -2.458  0.00  0.00    +0.163 A 
BRANCH  11  17
ATOM     17  O   UNL     1       0.671  -0.465  -1.174  0.00  0.00    -0.489 OA
BRANCH  17  19
ATOM     18  C   UNL     1      -0.019   1.526   0.010  0.00  0.00    +0.048 C 
ATOM     19  C   UNL     1       0.002  -0.004   0.002  0.00  0.00    +0.226 C 
ENDBRANCH  17  19
ENDBRANCH  11  17
ENDBRANCH  10  16
ENDBRANCH   9  10
ENDBRANCH   5   9
ENDBRANCH   1   7
BRANCH   2  20
ATOM     20  C   UNL     1       5.362   0.386  -9.495  0.00  0.00    +0.163 C 
BRANCH  20  21
ATOM     21  N   UNL     1       6.402  -0.170 -10.365  0.00  0.00    -0.288 N 
ATOM     22  C   UNL     1       6.113  -1.196 -11.189  0.00  0.00    +0.298 C 
ATOM     23  O   UNL     1       4.990  -1.661 -11.211  0.00  0.00    -0.253 OA
ATOM     24  N   UNL     1       7.070  -1.707 -11.989  0.00  0.00    -0.313 N 
ATOM     25  H   UNL     1       7.298   0.201 -10.348  0.00  0.00    +0.151 HD
ATOM     26  H   UNL     1       7.966  -1.336 -11.972  0.00  0.00    +0.146 HD
ATOM     27  H   UNL     1       6.862  -2.446 -12.583  0.00  0.00    +0.146 HD
ENDBRANCH  20  21
BRANCH  20  28
ATOM     28  C   UNL     1       4.209   0.913 -10.351  0.00  0.00    +0.042 C 
BRANCH  28  29
ATOM     29  C   UNL     1       4.699   2.089 -11.199  0.00  0.00    +0.071 C 
BRANCH  29  30
ATOM     30  S   UNL     1       3.331   2.713 -12.214  0.00  0.00    -0.164 S 
ATOM     31  C   UNL     1       4.066   4.085 -13.146  0.00  0.00    +0.084 C 
ENDBRANCH  29  30
ENDBRANCH  28  29
ENDBRANCH  20  28
ENDBRANCH   2  20
TORSDOF 11
