REMARK  Name = ZINC55121927
REMARK  7 active torsions:
REMARK  status: ('A' for Active; 'I' for Inactive)
REMARK    1  A    between atoms: C_1  and  C_2
REMARK    2  A    between atoms: C_6  and  C_12
REMARK    3  A    between atoms: C_9  and  N_11
REMARK    4  A    between atoms: N_14  and  C_15
REMARK    5  A    between atoms: C_15  and  C_16
REMARK    6  A    between atoms: C_15  and  C_17
REMARK    7  A    between atoms: C_15  and  C_18
REMARK                            x       y       z     vdW  Elec       q    Type
REMARK                         _______ _______ _______ _____ _____    ______ ____
ROOT
ATOM      1  C   UNL     1      -0.019   1.526   0.010  0.00  0.00    +0.006 C 
ATOM      2  C   UNL     1       0.002  -0.004   0.002  0.00  0.00    -0.029 C 
ATOM      3  C   UNL     1      -1.433  -0.534   0.013  0.00  0.00    +0.002 C 
ATOM      4  C   UNL     1      -2.149  -0.040   1.272  0.00  0.00    +0.013 C 
ATOM      5  C   UNL     1      -1.409  -0.547   2.511  0.00  0.00    +0.073 C 
ATOM      6  C   UNL     1       0.026  -0.018   2.500  0.00  0.00    -0.003 C 
ATOM      7  C   UNL     1       0.742  -0.511   1.242  0.00  0.00    -0.072 C 
ENDROOT
BRANCH   7   8
ATOM      8  N   UNL     1       2.120  -0.002   1.231  0.00  0.00    +0.380 N 
ATOM      9  H   UNL     1       2.107   1.006   1.237  0.00  0.00    -0.090 HD
ATOM     10  H   UNL     1       2.608  -0.337   2.049  0.00  0.00    -0.090 HD
ATOM     11  H   UNL     1       2.592  -0.328   0.401  0.00  0.00    -0.090 HD
ENDBRANCH   7   8
BRANCH   5  12
ATOM     12  C   UNL     1      -1.389  -2.054   2.503  0.00  0.00    +0.216 C 
ATOM     13  O   UNL     1      -0.331  -2.646   2.490  0.00  0.00    -0.276 OA
ATOM     14  N   UNL     1      -2.547  -2.744   2.510  0.00  0.00    -0.310 N 
ATOM     15  H   UNL     1      -3.393  -2.270   2.521  0.00  0.00    +0.149 HD
BRANCH  14  16
ATOM     16  C   UNL     1      -2.527  -4.208   2.502  0.00  0.00    +0.026 C 
ATOM     17  C   UNL     1      -1.787  -4.715   3.742  0.00  0.00    +0.031 C 
ATOM     18  C   UNL     1      -3.962  -4.738   2.513  0.00  0.00    +0.031 C 
ATOM     19  C   UNL     1      -1.811  -4.702   1.243  0.00  0.00    +0.031 C 
ENDBRANCH  14  16
ENDBRANCH   5  12
TORSDOF 3
