REMARK  Name = ZINC15053811
REMARK  4 active torsions:
REMARK  status: ('A' for Active; 'I' for Inactive)
REMARK    1  A    between atoms: C_7  and  C_11
REMARK    2  A    between atoms: N_15  and  C_19
REMARK    3  A    between atoms: C_22  and  S_25
REMARK    4  A    between atoms: S_25  and  N_28
REMARK                            x       y       z     vdW  Elec       q    Type
REMARK                         _______ _______ _______ _____ _____    ______ ____
ROOT
ATOM      1  C   UNL     1       0.963  -3.496   1.065  0.00  0.00    +0.030 C 
ATOM      2  C   UNL     1       1.337  -4.638   0.427  0.00  0.00    +0.079 C 
ATOM      3  C   UNL     1       0.647  -5.882   0.326  0.00  0.00    +0.263 C 
ATOM      4  O   UNL     1      -0.439  -6.038   0.854  0.00  0.00    -0.269 OA
ATOM      5  N   UNL     1       1.215  -6.862  -0.355  0.00  0.00    -0.215 N 
ATOM      6  C   UNL     1       2.450  -6.667  -0.950  0.00  0.00    +0.165 C 
ATOM      7  N   UNL     1       3.161  -7.505  -1.655  0.00  0.00    -0.279 NA
ATOM      8  S   UNL     1       2.819  -4.975  -0.514  0.00  0.00    -0.049 S 
ATOM      9  H   UNL     1       4.018  -7.229  -2.015  0.00  0.00    +0.189 HD
ENDROOT
BRANCH   1  16
ATOM     10  C   UNL     1       0.382   1.051   2.008  0.00  0.00    +0.001 A 
ATOM     11  C   UNL     1       1.578   1.753   1.972  0.00  0.00    +0.002 A 
ATOM     12  C   UNL     1       2.761   1.110   1.682  0.00  0.00    +0.026 A 
ATOM     13  C   UNL     1       2.762  -0.257   1.423  0.00  0.00    +0.047 A 
ATOM     14  C   UNL     1       1.551  -0.966   1.460  0.00  0.00    +0.007 A 
ATOM     15  C   UNL     1       0.362  -0.302   1.754  0.00  0.00    +0.010 A 
ATOM     16  C   UNL     1       1.891  -2.367   1.147  0.00  0.00    +0.001 A 
ATOM     17  C   UNL     1       3.242  -2.402   0.948  0.00  0.00    +0.091 A 
ATOM     18  N   UNL     1       3.761  -1.157   1.111  0.00  0.00    -0.360 N 
ATOM     19  H   UNL     1       4.700  -0.932   1.020  0.00  0.00    +0.165 HD
ENDBRANCH   1  16
BRANCH   5  20
ATOM     20  C   UNL     1       0.567  -8.099  -0.476  0.00  0.00    +0.044 A 
ATOM     21  C   UNL     1       0.683  -9.046   0.533  0.00  0.00    +0.026 A 
ATOM     22  C   UNL     1       0.042 -10.264   0.412  0.00  0.00    +0.030 A 
ATOM     23  C   UNL     1      -0.714 -10.540  -0.712  0.00  0.00    +0.105 A 
ATOM     24  C   UNL     1      -0.831  -9.599  -1.719  0.00  0.00    +0.030 A 
ATOM     25  C   UNL     1      -0.198  -8.377  -1.601  0.00  0.00    +0.026 A 
BRANCH  23  26
ATOM     26  S   UNL     1      -1.529 -12.095  -0.864  0.00  0.00    +0.056 S 
ATOM     27  O   UNL     1      -1.726 -12.317  -2.253  0.00  0.00    -0.153 OA
ATOM     28  O   UNL     1      -0.817 -13.008  -0.039  0.00  0.00    -0.153 OA
BRANCH  26  29
ATOM     29  N   UNL     1      -3.034 -11.926  -0.193  0.00  0.00    -0.204 NA
ATOM     30  H   UNL     1      -3.304 -11.074   0.184  0.00  0.00    +0.144 HD
ATOM     31  H   UNL     1      -3.645 -12.679  -0.178  0.00  0.00    +0.144 HD
ENDBRANCH  26  29
ENDBRANCH  23  26
ENDBRANCH   5  20
TORSDOF 4
