REMARK  Name = ZINC48757409
REMARK  7 active torsions:
REMARK  status: ('A' for Active; 'I' for Inactive)
REMARK    1  A    between atoms: C_1  and  C_2
REMARK    2  A    between atoms: C_2  and  C_4
REMARK    3  A    between atoms: C_2  and  N_14
REMARK    4  A    between atoms: C_7  and  S_10
REMARK    5  A    between atoms: S_10  and  N_13
REMARK    6  A    between atoms: C_15  and  C_17
REMARK    7  A    between atoms: N_19  and  C_20
REMARK                            x       y       z     vdW  Elec       q    Type
REMARK                         _______ _______ _______ _____ _____    ______ ____
ROOT
ATOM      1  N   UNL     1       0.686  -0.481  -1.202  0.00  0.00    -0.301 N 
ATOM      2  C   UNL     1       0.004  -0.614  -2.357  0.00  0.00    +0.300 C 
ATOM      3  O   UNL     1      -1.179  -0.350  -2.397  0.00  0.00    -0.265 OA
ATOM      4  H   UNL     1       1.633  -0.692  -1.170  0.00  0.00    +0.150 HD
ENDROOT
BRANCH   2   5
ATOM      5  C   UNL     1       0.706  -1.088  -3.588  0.00  0.00    +0.303 C 
ATOM      6  O   UNL     1       1.889  -1.352  -3.548  0.00  0.00    -0.265 OA
ATOM      7  N   UNL     1       0.024  -1.221  -4.743  0.00  0.00    -0.278 N 
ATOM      8  H   UNL     1      -0.935  -1.075  -4.759  0.00  0.00    +0.155 HD
BRANCH   7   9
ATOM      9  C   UNL     1       0.698  -1.571  -5.915  0.00  0.00    +0.039 A 
ATOM     10  C   UNL     1       0.293  -1.042  -7.134  0.00  0.00    +0.061 A 
ATOM     11  C   UNL     1       0.962  -1.389  -8.294  0.00  0.00    +0.128 A 
ATOM     12  C   UNL     1       2.035  -2.264  -8.241  0.00  0.00    +0.076 A 
ATOM     13  C   UNL     1       2.440  -2.792  -7.027  0.00  0.00    +0.128 A 
ATOM     14  C   UNL     1       1.777  -2.444  -5.864  0.00  0.00    +0.061 A 
ATOM     15  F   UNL     1       3.486  -3.646  -6.978  0.00  0.00    -0.205 F 
ATOM     16  F   UNL     1       0.569  -0.875  -9.480  0.00  0.00    -0.205 F 
ENDBRANCH   7   9
ENDBRANCH   2   5
BRANCH   1  18
ATOM     17  C   UNL     1      -0.033   1.513   0.017  0.00  0.00    +0.033 C 
ATOM     18  C   UNL     1      -0.001  -0.016   0.005  0.00  0.00    +0.101 C 
BRANCH  18  19
ATOM     19  C   UNL     1       0.732  -0.513   1.224  0.00  0.00    -0.027 A 
ATOM     20  C   UNL     1       2.115  -0.514   1.246  0.00  0.00    +0.007 A 
ATOM     21  C   UNL     1       2.788  -0.970   2.364  0.00  0.00    +0.029 A 
ATOM     22  C   UNL     1       2.079  -1.425   3.460  0.00  0.00    +0.105 A 
ATOM     23  C   UNL     1       0.697  -1.423   3.438  0.00  0.00    +0.029 A 
ATOM     24  C   UNL     1       0.023  -0.963   2.322  0.00  0.00    +0.007 A 
BRANCH  22  25
ATOM     25  S   UNL     1       2.937  -2.007   4.885  0.00  0.00    +0.056 S 
ATOM     26  O   UNL     1       2.049  -2.886   5.562  0.00  0.00    -0.153 OA
ATOM     27  O   UNL     1       4.225  -2.414   4.445  0.00  0.00    -0.153 OA
BRANCH  25  28
ATOM     28  N   UNL     1       3.168  -0.706   5.883  0.00  0.00    -0.204 NA
ATOM     29  H   UNL     1       3.208  -0.833   6.844  0.00  0.00    +0.144 HD
ATOM     30  H   UNL     1       3.263   0.183   5.507  0.00  0.00    +0.144 HD
ENDBRANCH  25  28
ENDBRANCH  22  25
ENDBRANCH  18  19
ENDBRANCH   1  18
TORSDOF 6
