REMARK  Name = ZINC19968193
REMARK  5 active torsions:
REMARK  status: ('A' for Active; 'I' for Inactive)
REMARK    1  A    between atoms: C_1  and  C_2
REMARK    2  A    between atoms: C_2  and  C_3
REMARK    3  A    between atoms: C_2  and  C_4
REMARK    4  A    between atoms: C_4  and  C_6
REMARK    5  A    between atoms: C_4  and  N_17
REMARK                            x       y       z     vdW  Elec       q    Type
REMARK                         _______ _______ _______ _____ _____    ______ ____
ROOT
ATOM      1  C   UNL     1       1.144   6.054   0.077  0.00  0.00    -0.061 A 
ATOM      2  C   UNL     1       2.276   5.372  -0.335  0.00  0.00    +0.004 A 
ATOM      3  C   UNL     1       2.281   3.991  -0.361  0.00  0.00    +0.024 A 
ATOM      4  C   UNL     1       1.148   3.288   0.026  0.00  0.00    +0.037 A 
ATOM      5  C   UNL     1       0.014   3.975   0.439  0.00  0.00    -0.026 A 
ATOM      6  C   UNL     1       0.015   5.355   0.463  0.00  0.00    +0.007 A 
ATOM      7  C   UNL     1      -1.214   3.211   0.859  0.00  0.00    +0.046 C 
ATOM      8  C   UNL     1      -1.333   1.935   0.019  0.00  0.00    +0.101 C 
ATOM      9  C   UNL     1      -0.014   1.209   0.009  0.00  0.00    +0.218 C 
ATOM     10  O   UNL     1       0.002  -0.004   0.002  0.00  0.00    -0.275 OA
ATOM     11  N   UNL     1       1.146   1.889   0.001  0.00  0.00    -0.285 N 
ATOM     12  H   UNL     1       2.098   1.339  -0.024  0.00  0.00    +0.155 HD
ENDROOT
BRANCH   1  13
ATOM     13  C   UNL     1       1.143   7.560   0.103  0.00  0.00    -0.042 C 
BRANCH  13  14
ATOM     14  N   UNL     1       2.439   8.043   0.598  0.00  0.00    +0.383 N 
ATOM     15  H   UNL     1       2.610   7.658   1.615  0.00  0.00    -0.089 HD
ATOM     16  H   UNL     1       2.437   9.143   0.618  0.00  0.00    -0.089 HD
ATOM     17  H   UNL     1       3.240   7.689  -0.067  0.00  0.00    -0.089 HD
ENDBRANCH  13  14
BRANCH  13  19
ATOM     18  C   UNL     1      -0.445   7.593  -1.826  0.00  0.00    +0.006 C 
ATOM     19  C   UNL     1       0.905   8.095  -1.310  0.00  0.00    -0.028 C 
ATOM     20  C   UNL     1       0.903   9.625  -1.283  0.00  0.00    +0.006 C 
ENDBRANCH  13  19
ENDBRANCH   1  13
TORSDOF 3
