REMARK  Name = ZINC66115520
REMARK  10 active torsions:
REMARK  status: ('A' for Active; 'I' for Inactive)
REMARK    1  A    between atoms: C_1  and  O_2
REMARK    2  A    between atoms: O_2  and  C_3
REMARK    3  A    between atoms: C_7  and  C_17
REMARK    4  A    between atoms: C_8  and  O_9
REMARK    5  A    between atoms: O_9  and  C_10
REMARK    6  A    between atoms: C_10  and  C_11
REMARK    7  A    between atoms: C_17  and  N_18
REMARK    8  A    between atoms: C_24  and  C_26
REMARK    9  A    between atoms: C_26  and  C_27
REMARK   10  A    between atoms: N_29  and  N_30
REMARK                            x       y       z     vdW  Elec       q    Type
REMARK                         _______ _______ _______ _____ _____    ______ ____
ROOT
ATOM      1  C   UNL     1       2.185  -3.352  -2.564  0.00  0.00    -0.038 C 
ENDROOT
BRANCH   1   2
ATOM      2  N   UNL     1       3.098  -3.663  -1.456  0.00  0.00    +0.391 N 
ATOM      3  C   UNL     1       4.190  -2.678  -1.426  0.00  0.00    -0.058 C 
ATOM      4  C   UNL     1       4.982  -2.860  -0.130  0.00  0.00    +0.085 C 
ATOM      5  N   UNL     1       5.355  -4.264   0.032  0.00  0.00    -0.318 N 
ATOM      6  C   UNL     1       4.757  -5.251  -0.645  0.00  0.00    +0.200 C 
ATOM      7  O   UNL     1       5.107  -6.393  -0.437  0.00  0.00    -0.278 OA
ATOM      8  C   UNL     1       3.670  -5.001  -1.651  0.00  0.00    +0.028 C 
ATOM      9  H   UNL     1       6.064  -4.489   0.655  0.00  0.00    +0.149 HD
ATOM     10  H   UNL     1       2.591  -3.636  -0.584  0.00  0.00    -0.080 HD
BRANCH   8  11
ATOM     11  C   UNL     1       2.571  -6.052  -1.481  0.00  0.00    +0.091 C 
BRANCH  11  12
ATOM     12  C   UNL     1       3.118  -7.412  -1.831  0.00  0.00    +0.225 C 
ATOM     13  O   UNL     1       4.228  -7.515  -2.309  0.00  0.00    -0.275 OA
ATOM     14  N   UNL     1       2.373  -8.514  -1.613  0.00  0.00    -0.254 N 
ATOM     15  H   UNL     1       1.486  -8.432  -1.231  0.00  0.00    +0.169 HD
BRANCH  14  16
ATOM     16  N   UNL     1       2.869  -9.747  -1.931  0.00  0.00    -0.254 NA
ATOM     17  H   UNL     1       3.749  -9.914  -1.466  0.00  0.00    +0.140 HD
ATOM     18  H   UNL     1       2.202 -10.472  -1.712  0.00  0.00    +0.140 HD
ENDBRANCH  14  16
ENDBRANCH  11  12
ENDBRANCH   8  11
ENDBRANCH   1   2
BRANCH   1  23
ATOM     19  C   UNL     1      -0.193  -0.770  -1.147  0.00  0.00    +0.162 A 
ATOM     20  C   UNL     1       0.230   0.376  -1.801  0.00  0.00    +0.049 A 
ATOM     21  C   UNL     1       1.282   0.313  -2.696  0.00  0.00    +0.004 A 
ATOM     22  C   UNL     1       1.913  -0.893  -2.942  0.00  0.00    +0.005 A 
ATOM     23  C   UNL     1       1.495  -2.040  -2.293  0.00  0.00    -0.019 A 
ATOM     24  C   UNL     1       0.446  -1.982  -1.391  0.00  0.00    +0.164 A 
BRANCH  19  26
ATOM     25  C   UNL     1      -1.836   0.568  -0.067  0.00  0.00    +0.277 C 
ATOM     26  O   UNL     1      -1.227  -0.710  -0.266  0.00  0.00    -0.491 OA
ENDBRANCH  19  26
BRANCH  24  27
ATOM     27  O   UNL     1       0.037  -3.109  -0.747  0.00  0.00    -0.484 OA
BRANCH  27  28
ATOM     28  C   UNL     1      -0.979  -3.886  -1.383  0.00  0.00    +0.264 C 
BRANCH  28  29
ATOM     29  C   UNL     1      -1.393  -5.014  -0.472  0.00  0.00    -0.010 A 
ATOM     30  C   UNL     1      -0.830  -6.267  -0.624  0.00  0.00    +0.007 A 
ATOM     31  C   UNL     1      -1.209  -7.301   0.212  0.00  0.00    +0.000 A 
ATOM     32  C   UNL     1      -2.151  -7.081   1.199  0.00  0.00    +0.000 A 
ATOM     33  C   UNL     1      -2.714  -5.828   1.351  0.00  0.00    +0.000 A 
ATOM     34  C   UNL     1      -2.331  -4.793   0.519  0.00  0.00    +0.007 A 
ENDBRANCH  28  29
ENDBRANCH  27  28
ENDBRANCH  24  27
ENDBRANCH   1  23
TORSDOF 9
