REMARK  Name = ZINC35374613
REMARK  14 active torsions:
REMARK  status: ('A' for Active; 'I' for Inactive)
REMARK    1  A    between atoms: C_1  and  C_2
REMARK    2  A    between atoms: C_2  and  C_3
REMARK    3  A    between atoms: C_3  and  C_5
REMARK    4  A    between atoms: C_3  and  C_6
REMARK    5  A    between atoms: C_6  and  N_7
REMARK    6  A    between atoms: C_8  and  C_10
REMARK    7  A    between atoms: C_21  and  C_23
REMARK    8  A    between atoms: C_23  and  C_24
REMARK    9  A    between atoms: C_24  and  C_26
REMARK   10  A    between atoms: C_24  and  C_27
REMARK   11  A    between atoms: C_27  and  C_28
REMARK   12  A    between atoms: C_28  and  C_29
REMARK   13  A    between atoms: C_28  and  C_30
REMARK   14  A    between atoms: C_28  and  C_31
REMARK                            x       y       z     vdW  Elec       q    Type
REMARK                         _______ _______ _______ _____ _____    ______ ____
ROOT
ATOM      1  C   UNL     1      -0.291  -4.917   2.306  0.00  0.00    +0.028 C 
ATOM      2  C   UNL     1       1.059  -4.222   1.954  0.00  0.00    +0.061 C 
ATOM      3  S   UNL     1       2.084  -4.833   3.364  0.00  0.00    -0.174 S 
ATOM      4  C   UNL     1       1.056  -6.281   3.828  0.00  0.00    -0.016 C 
ATOM      5  N   UNL     1      -0.007  -6.278   2.802  0.00  0.00    +0.397 N 
ATOM      6  C   UNL     1       1.888  -7.551   3.745  0.00  0.00    +0.017 C 
ATOM      7  C   UNL     1       1.016  -8.759   4.106  0.00  0.00    +0.107 C 
ATOM      8  N   UNL     1       0.380  -8.509   5.407  0.00  0.00    -0.302 N 
ATOM      9  C   UNL     1      -0.402  -7.278   5.588  0.00  0.00    +0.107 C 
ATOM     10  C   UNL     1       0.477  -6.078   5.219  0.00  0.00    +0.017 C 
ATOM     11  C   UNL     1       0.512  -9.393   6.416  0.00  0.00    +0.216 C 
ATOM     12  O   UNL     1       1.159 -10.405   6.255  0.00  0.00    -0.276 OA
ATOM     13  H   UNL     1      -0.848  -6.663   3.204  0.00  0.00    -0.083 HD
ATOM     14  H   UNL     1       0.281  -6.856   2.027  0.00  0.00    -0.083 HD
ENDROOT
BRANCH   1  16
ATOM     15  N   UNL     1      -1.546  -3.868   0.450  0.00  0.00    -0.316 N 
ATOM     16  C   UNL     1      -1.155  -4.997   1.073  0.00  0.00    +0.200 C 
ATOM     17  O   UNL     1      -1.498  -6.078   0.643  0.00  0.00    -0.278 OA
ATOM     18  H   UNL     1      -1.272  -3.004   0.794  0.00  0.00    +0.149 HD
BRANCH  15  19
ATOM     19  C   UNL     1      -2.386  -3.947  -0.748  0.00  0.00    +0.107 C 
BRANCH  19  20
ATOM     20  C   UNL     1      -2.684  -2.534  -1.255  0.00  0.00    +0.003 C 
ATOM     21  C   UNL     1      -1.384  -1.872  -1.715  0.00  0.00    +0.009 C 
BRANCH  20  23
ATOM     22  C   UNL     1      -4.056  -1.195  -2.857  0.00  0.00    +0.004 C 
ATOM     23  C   UNL     1      -3.661  -2.610  -2.430  0.00  0.00    +0.001 C 
ENDBRANCH  20  23
ENDBRANCH  19  20
ENDBRANCH  15  19
ENDBRANCH   1  16
BRANCH  11  24
ATOM     24  C   UNL     1      -0.146  -9.122   7.745  0.00  0.00    +0.099 C 
BRANCH  24  25
ATOM     25  C   UNL     1       0.157 -10.272   8.707  0.00  0.00    -0.005 C 
ATOM     26  C   UNL     1       1.659 -10.310   8.999  0.00  0.00    +0.008 C 
BRANCH  25  27
ATOM     27  C   UNL     1      -0.611 -10.060  10.013  0.00  0.00    +0.010 C 
BRANCH  27  28
ATOM     28  C   UNL     1      -0.453 -11.295  10.904  0.00  0.00    -0.037 C 
ATOM     29  C   UNL     1       1.005 -11.419  11.350  0.00  0.00    +0.010 C 
ATOM     30  C   UNL     1      -1.353 -11.155  12.133  0.00  0.00    +0.010 C 
ATOM     31  C   UNL     1      -0.854 -12.545  10.118  0.00  0.00    +0.010 C 
ENDBRANCH  27  28
ENDBRANCH  25  27
ENDBRANCH  24  25
ENDBRANCH  11  24
TORSDOF 8
