REMARK  Name = ZINC49596368
REMARK  6 active torsions:
REMARK  status: ('A' for Active; 'I' for Inactive)
REMARK    1  A    between atoms: C_1  and  O_2
REMARK    2  A    between atoms: O_2  and  C_3
REMARK    3  A    between atoms: C_6  and  C_10
REMARK    4  A    between atoms: C_10  and  O_11
REMARK    5  A    between atoms: O_11  and  C_12
REMARK    6  A    between atoms: C_17  and  C_18
REMARK                            x       y       z     vdW  Elec       q    Type
REMARK                         _______ _______ _______ _____ _____    ______ ____
ROOT
ATOM      1  C   UNL     1       4.639  -3.303  -5.049  0.00  0.00    +0.134 A 
ATOM      2  C   UNL     1       4.062  -3.679  -6.252  0.00  0.00    +0.046 A 
ATOM      3  C   UNL     1       4.827  -4.285  -7.229  0.00  0.00    +0.006 A 
ATOM      4  C   UNL     1       6.174  -4.523  -7.018  0.00  0.00    +0.039 A 
ATOM      5  C   UNL     1       6.767  -4.155  -5.825  0.00  0.00    +0.137 A 
ATOM      6  C   UNL     1       6.004  -3.535  -4.830  0.00  0.00    +0.089 A 
ATOM      7  F   UNL     1       8.082  -4.390  -5.622  0.00  0.00    -0.205 F 
ENDROOT
BRANCH   6   8
ATOM      8  C   UNL     1       6.630  -3.134  -3.556  0.00  0.00    +0.101 C 
ATOM      9  N   UNL     1       7.567  -2.186  -3.543  0.00  0.00    -0.387 N 
ATOM     10  N   UNL     1       6.259  -3.720  -2.417  0.00  0.00    -0.344 N 
ATOM     11  H   UNL     1       7.837  -1.760  -4.372  0.00  0.00    +0.157 HD
ATOM     12  H   UNL     1       5.577  -4.410  -2.427  0.00  0.00    +0.144 HD
ATOM     13  H   UNL     1       6.671  -3.457  -1.580  0.00  0.00    +0.144 HD
ATOM     14  H   UNL     1       7.979  -1.923  -2.705  0.00  0.00    +0.157 HD
ENDBRANCH   6   8
BRANCH   1  15
ATOM     15  O   UNL     1       3.888  -2.708  -4.089  0.00  0.00    -0.487 OA
BRANCH  15  16
ATOM     16  C   UNL     1       2.504  -2.503  -4.383  0.00  0.00    +0.264 C 
BRANCH  16  20
ATOM     17  C   UNL     1       0.606  -0.607  -1.056  0.00  0.00    +0.134 A 
ATOM     18  C   UNL     1       1.173   0.160  -2.062  0.00  0.00    +0.047 A 
ATOM     19  C   UNL     1       1.786  -0.455  -3.137  0.00  0.00    +0.010 A 
ATOM     20  C   UNL     1       1.835  -1.835  -3.209  0.00  0.00    -0.009 A 
ATOM     21  C   UNL     1       1.271  -2.603  -2.208  0.00  0.00    +0.026 A 
ATOM     22  C   UNL     1       0.661  -1.992  -1.128  0.00  0.00    +0.060 A 
ATOM     23 BR   UNL     1      -0.103  -3.043   0.246  0.00  0.00    -0.047 Br
BRANCH  17  25
ATOM     24  C   UNL     1      -0.017   1.425   0.010  0.00  0.00    +0.277 C 
ATOM     25  O   UNL     1       0.002  -0.004   0.002  0.00  0.00    -0.494 OA
ENDBRANCH  17  25
ENDBRANCH  16  20
ENDBRANCH  15  16
ENDBRANCH   1  15
TORSDOF 5
