REMARK  Name = ZINC39690767
REMARK  7 active torsions:
REMARK  status: ('A' for Active; 'I' for Inactive)
REMARK    1  A    between atoms: C_1  and  C_2
REMARK    2  A    between atoms: C_2  and  O_3
REMARK    3  A    between atoms: O_3  and  C_4
REMARK    4  A    between atoms: C_8  and  C_10
REMARK    5  A    between atoms: C_14  and  C_23
REMARK    6  A    between atoms: N_25  and  C_26
REMARK    7  A    between atoms: C_26  and  C_27
REMARK                            x       y       z     vdW  Elec       q    Type
REMARK                         _______ _______ _______ _____ _____    ______ ____
ROOT
ATOM      1  C   UNL     1       2.271  -4.303   3.739  0.00  0.00    +0.247 C 
ATOM      2  O   UNL     1       1.644  -3.832   2.810  0.00  0.00    -0.270 OA
ATOM      3  N   UNL     1       2.456  -5.635   3.821  0.00  0.00    -0.296 N 
ATOM      4  C   UNL     1       2.046  -6.670   2.843  0.00  0.00    +0.121 C 
ATOM      5  C   UNL     1       3.220  -7.675   2.822  0.00  0.00    +0.100 C 
ATOM      6  C   UNL     1       3.917  -7.491   4.181  0.00  0.00    -0.004 C 
ATOM      7  C   UNL     1       3.122  -6.396   4.905  0.00  0.00    +0.115 C 
ATOM      8  C   UNL     1       3.873  -8.792   4.977  0.00  0.00    -0.010 C 
ATOM      9  C   UNL     1       4.623  -8.601   6.299  0.00  0.00    -0.082 C 
ATOM     10  N   UNL     1       6.013  -8.219   6.024  0.00  0.00    +0.379 N 
ATOM     11  C   UNL     1       6.050  -6.921   5.339  0.00  0.00    -0.082 C 
ATOM     12  C   UNL     1       5.361  -7.041   3.977  0.00  0.00    -0.010 C 
ATOM     13  H   UNL     1       6.521  -8.153   6.894  0.00  0.00    -0.086 HD
ATOM     14  H   UNL     1       6.444  -8.919   5.439  0.00  0.00    -0.086 HD
ENDROOT
BRANCH   1  19
ATOM     15  C   UNL     1       3.814  -1.315   5.420  0.00  0.00    +0.121 A 
ATOM     16  C   UNL     1       3.878  -1.752   6.737  0.00  0.00    +0.046 A 
ATOM     17  C   UNL     1       3.420  -3.012   7.075  0.00  0.00    +0.004 A 
ATOM     18  C   UNL     1       2.897  -3.844   6.106  0.00  0.00    +0.013 A 
ATOM     19  C   UNL     1       2.829  -3.414   4.780  0.00  0.00    +0.040 A 
ATOM     20  C   UNL     1       3.286  -2.139   4.441  0.00  0.00    +0.058 A 
BRANCH  15  21
ATOM     21  O   UNL     1       4.265  -0.075   5.093  0.00  0.00    -0.492 OA
BRANCH  21  23
ATOM     22  C   UNL     1       5.251   2.073   5.597  0.00  0.00    +0.048 C 
ATOM     23  C   UNL     1       4.797   0.722   6.153  0.00  0.00    +0.225 C 
ENDBRANCH  21  23
ENDBRANCH  15  21
ENDBRANCH   1  19
BRANCH   5  24
ATOM     24  C   UNL     1       4.167  -7.351   1.696  0.00  0.00    +0.218 C 
ATOM     25  O   UNL     1       4.362  -6.197   1.380  0.00  0.00    -0.275 OA
ATOM     26  N   UNL     1       4.798  -8.345   1.039  0.00  0.00    -0.311 N 
ATOM     27  H   UNL     1       4.642  -9.269   1.292  0.00  0.00    +0.149 HD
BRANCH  26  28
ATOM     28  C   UNL     1       5.719  -8.031  -0.056  0.00  0.00    +0.140 C 
BRANCH  28  29
ATOM     29  C   UNL     1       6.287  -9.309  -0.617  0.00  0.00    -0.016 A 
ATOM     30  C   UNL     1       7.548  -9.730  -0.240  0.00  0.00    +0.006 A 
ATOM     31  C   UNL     1       8.069 -10.902  -0.755  0.00  0.00    +0.000 A 
ATOM     32  C   UNL     1       7.328 -11.655  -1.647  0.00  0.00    +0.001 A 
ATOM     33  C   UNL     1       6.066 -11.235  -2.025  0.00  0.00    +0.015 A 
ATOM     34  C   UNL     1       5.543 -10.065  -1.506  0.00  0.00    +0.023 A 
ATOM     35 BR   UNL     1       3.814  -9.494  -2.017  0.00  0.00    -0.050 Br
ENDBRANCH  28  29
ENDBRANCH  26  28
ENDBRANCH   5  24
TORSDOF 6
