REMARK  Name = ZINC11997617
REMARK  12 active torsions:
REMARK  status: ('A' for Active; 'I' for Inactive)
REMARK    1  A    between atoms: C_1  and  N_2
REMARK    2  A    between atoms: N_2  and  C_3
REMARK    3  A    between atoms: N_2  and  C_4
REMARK    4  A    between atoms: C_5  and  C_17
REMARK    5  A    between atoms: C_8  and  O_15
REMARK    6  A    between atoms: C_11  and  O_13
REMARK    7  A    between atoms: O_13  and  C_14
REMARK    8  A    between atoms: O_15  and  C_16
REMARK    9  A    between atoms: C_17  and  N_18
REMARK   10  A    between atoms: N_18  and  C_19
REMARK   11  A    between atoms: C_19  and  C_20
REMARK   12  A    between atoms: C_25  and  C_27
REMARK                            x       y       z     vdW  Elec       q    Type
REMARK                         _______ _______ _______ _____ _____    ______ ____
ROOT
ATOM      1  N   UNL     1      -1.673   2.053   3.727  0.00  0.00    -0.286 N 
ATOM      2  C   UNL     1      -0.622   2.458   4.468  0.00  0.00    +0.253 C 
ATOM      3  O   UNL     1       0.349   1.736   4.590  0.00  0.00    -0.270 OA
ENDROOT
BRANCH   2   4
ATOM      4  C   UNL     1      -0.650   3.772   5.127  0.00  0.00    +0.101 A 
ATOM      5  C   UNL     1       0.387   4.680   4.948  0.00  0.00    +0.023 A 
ATOM      6  C   UNL     1       0.333   5.929   5.582  0.00  0.00    -0.027 A 
ATOM      7  C   UNL     1      -0.723   6.242   6.367  0.00  0.00    +0.022 A 
ATOM      8  N   UNL     1      -1.735   5.347   6.554  0.00  0.00    -0.325 N 
ATOM      9  H   UNL     1      -2.477   5.589   7.129  0.00  0.00    +0.169 HD
ATOM     10  C   UNL     1      -1.733   4.140   5.967  0.00  0.00    +0.261 A 
ATOM     11  O   UNL     1      -2.656   3.366   6.153  0.00  0.00    -0.267 OA
ATOM     12  C   UNL     1      -0.854   7.575   7.061  0.00  0.00    +0.053 C 
ATOM     13  C   UNL     1       0.497   8.284   7.128  0.00  0.00    +0.006 C 
ATOM     14  C   UNL     1       1.103   8.300   5.720  0.00  0.00    +0.005 C 
ATOM     15  C   UNL     1       1.488   6.870   5.349  0.00  0.00    +0.037 C 
ENDBRANCH   2   4
BRANCH   1  16
ATOM     16  C   UNL     1      -1.557   0.863   2.880  0.00  0.00    +0.147 C 
BRANCH  16  18
ATOM     17  C   UNL     1      -1.613   1.189   0.382  0.00  0.00    +0.104 A 
ATOM     18  C   UNL     1      -0.889   1.233   1.581  0.00  0.00    +0.009 A 
ATOM     19  C   UNL     1       0.420   1.612   1.570  0.00  0.00    +0.022 A 
ATOM     20  C   UNL     1       1.007   1.950   0.336  0.00  0.00    +0.044 A 
ATOM     21  C   UNL     1       2.355   2.349   0.253  0.00  0.00    +0.129 A 
ATOM     22  C   UNL     1       2.894   2.672  -0.972  0.00  0.00    +0.050 A 
ATOM     23  C   UNL     1       2.120   2.608  -2.127  0.00  0.00    +0.051 A 
ATOM     24  C   UNL     1       0.810   2.224  -2.077  0.00  0.00    +0.144 A 
ATOM     25  C   UNL     1       0.224   1.886  -0.841  0.00  0.00    +0.093 A 
ATOM     26  N   UNL     1      -1.099   1.499  -0.835  0.00  0.00    -0.340 N 
ATOM     27  H   UNL     1      -1.658   1.447  -1.694  0.00  0.00    +0.167 HD
BRANCH  17  29
ATOM     28  C   UNL     1      -3.685   1.530   1.447  0.00  0.00    +0.130 C 
ATOM     29  N   UNL     1      -2.945   0.802   0.408  0.00  0.00    -0.322 N 
ATOM     30  C   UNL     1      -3.572   0.982  -0.909  0.00  0.00    +0.130 C 
ENDBRANCH  17  29
BRANCH  24  31
ATOM     31  O   UNL     1       0.073   2.168  -3.218  0.00  0.00    -0.493 OA
ATOM     32  C   UNL     1       0.733   2.525  -4.435  0.00  0.00    +0.277 C 
ENDBRANCH  24  31
BRANCH  21  33
ATOM     33  O   UNL     1       3.119   2.415   1.375  0.00  0.00    -0.494 OA
ATOM     34  C   UNL     1       4.478   2.828   1.212  0.00  0.00    +0.277 C 
ENDBRANCH  21  33
ENDBRANCH  16  18
ENDBRANCH   1  16
BRANCH   1  35
ATOM     35  C   UNL     1      -2.930   2.804   3.768  0.00  0.00    +0.182 C 
BRANCH  35  36
ATOM     36  C   UNL     1      -4.068   1.861   4.064  0.00  0.00    +0.122 A 
ATOM     37  C   UNL     1      -4.205   1.119   5.178  0.00  0.00    +0.046 A 
ATOM     38  C   UNL     1      -5.407   0.388   5.037  0.00  0.00    +0.041 A 
ATOM     39  C   UNL     1      -5.933   0.728   3.847  0.00  0.00    +0.195 A 
ATOM     40  O   UNL     1      -5.121   1.625   3.264  0.00  0.00    -0.466 OA
ENDBRANCH  35  36
ENDBRANCH   1  35
TORSDOF 8
