REMARK  Name = ZINC03838737
REMARK  8 active torsions:
REMARK  status: ('A' for Active; 'I' for Inactive)
REMARK    1  A    between atoms: C_4  and  N_7
REMARK    2  A    between atoms: N_10  and  C_11
REMARK    3  A    between atoms: C_14  and  C_22
REMARK    4  A    between atoms: C_14  and  O_29
REMARK    5  A    between atoms: C_16  and  O_21
REMARK    6  A    between atoms: C_18  and  O_20
REMARK    7  A    between atoms: N_24  and  C_25
REMARK    8  A    between atoms: C_25  and  C_26
REMARK                            x       y       z     vdW  Elec       q    Type
REMARK                         _______ _______ _______ _____ _____    ______ ____
ROOT
ATOM      1  C   UNL     1      -1.433  -0.534   0.013  0.00  0.00    +0.109 C 
ATOM      2  C   UNL     1      -1.413  -2.063   0.004  0.00  0.00    +0.069 C 
ATOM      3  C   UNL     1      -0.673  -2.570   1.244  0.00  0.00    +0.146 C 
ATOM      4  C   UNL     1       0.763  -2.041   1.233  0.00  0.00    +0.078 C 
ATOM      5  C   UNL     1       0.742  -0.511   1.242  0.00  0.00    +0.148 C 
ATOM      6  C   UNL     1       0.002  -0.004   0.002  0.00  0.00    +0.163 C 
ENDROOT
BRANCH   1  10
ATOM      7  N   UNL     1      -3.379   1.612  -2.252  0.00  0.00    -0.297 N 
ATOM      8  C   UNL     1      -2.727   1.166  -1.160  0.00  0.00    +0.300 C 
ATOM      9  O   UNL     1      -2.667   1.858  -0.163  0.00  0.00    -0.253 OA
ATOM     10  N   UNL     1      -2.142  -0.048  -1.174  0.00  0.00    -0.294 N 
ATOM     11  H   UNL     1      -3.427   1.060  -3.048  0.00  0.00    +0.151 HD
ATOM     12  H   UNL     1      -2.190  -0.601  -1.970  0.00  0.00    +0.151 HD
BRANCH   7  16
ATOM     13  C   UNL     1      -6.186   4.726  -3.044  0.00  0.00    +0.000 C 
ATOM     14  C   UNL     1      -4.787   4.841  -3.652  0.00  0.00    +0.002 C 
ATOM     15  C   UNL     1      -4.122   3.462  -3.668  0.00  0.00    +0.022 C 
ATOM     16  C   UNL     1      -4.015   2.932  -2.237  0.00  0.00    +0.074 C 
ATOM     17  C   UNL     1      -5.414   2.817  -1.629  0.00  0.00    +0.022 C 
ATOM     18  C   UNL     1      -6.078   4.195  -1.613  0.00  0.00    +0.002 C 
ENDBRANCH   7  16
ENDBRANCH   1  10
BRANCH   3  19
ATOM     19  C   UNL     1      -0.652  -4.077   1.236  0.00  0.00    +0.245 C 
ATOM     20  O   UNL     1      -0.745  -4.679   0.187  0.00  0.00    -0.273 OA
ATOM     21  N   UNL     1      -0.530  -4.756   2.394  0.00  0.00    -0.304 N 
ATOM     22  H   UNL     1      -0.456  -4.274   3.232  0.00  0.00    +0.149 HD
BRANCH  21  23
ATOM     23  C   UNL     1      -0.510  -6.221   2.386  0.00  0.00    +0.200 C 
BRANCH  23  24
ATOM     24  C   UNL     1      -0.366  -6.729   3.797  0.00  0.00    +0.228 C 
ATOM     25  O   UNL     1      -0.288  -5.945   4.719  0.00  0.00    -0.274 OA
ATOM     26  N   UNL     1      -0.324  -8.055   4.035  0.00  0.00    -0.328 N 
ATOM     27  H   UNL     1      -0.387  -8.682   3.298  0.00  0.00    +0.145 HD
ATOM     28  H   UNL     1      -0.232  -8.382   4.943  0.00  0.00    +0.145 HD
ENDBRANCH  23  24
ENDBRANCH  21  23
ENDBRANCH   3  19
BRANCH   6  29
ATOM     29  O   UNL     1      -0.017   1.425   0.010  0.00  0.00    -0.387 OA
ATOM     30  H   UNL     1       0.861   1.830   0.004  0.00  0.00    +0.210 HD
ENDBRANCH   6  29
BRANCH   5  31
ATOM     31  O   UNL     1       2.083  -0.016   1.231  0.00  0.00    -0.389 OA
ATOM     32  H   UNL     1       2.612  -0.299   1.990  0.00  0.00    +0.210 HD
ENDBRANCH   5  31
BRANCH   3  33
ATOM     33  O   UNL     1      -1.341  -2.110   2.420  0.00  0.00    -0.379 OA
ATOM     34  H   UNL     1      -0.926  -2.394   3.245  0.00  0.00    +0.211 HD
ENDBRANCH   3  33
TORSDOF 8
