REMARK  Name = ZINC08456081
REMARK  7 active torsions:
REMARK  status: ('A' for Active; 'I' for Inactive)
REMARK    1  A    between atoms: C_1  and  O_2
REMARK    2  A    between atoms: O_2  and  C_3
REMARK    3  A    between atoms: C_6  and  C_15
REMARK    4  A    between atoms: C_8  and  C_9
REMARK    5  A    between atoms: C_9  and  N_52
REMARK    6  A    between atoms: N_16  and  N_17
REMARK    7  A    between atoms: C_18  and  C_20
REMARK                            x       y       z     vdW  Elec       q    Type
REMARK                         _______ _______ _______ _____ _____    ______ ____
ROOT
ATOM      1  C   UNL     1      -1.251   2.145   0.006  0.00  0.00    +0.138 C 
ATOM      2  N   UNL     1      -1.251   3.443   0.009  0.00  0.00    -0.187 NA
ENDROOT
BRANCH   1   6
ATOM      3  C   UNL     1       2.425   0.022  -0.029  0.00  0.00    +0.121 A 
ATOM      4  C   UNL     1       2.428   1.411  -0.026  0.00  0.00    +0.046 A 
ATOM      5  C   UNL     1       1.237   2.104  -0.012  0.00  0.00    +0.013 A 
ATOM      6  C   UNL     1       0.026   1.408  -0.002  0.00  0.00    -0.005 A 
ATOM      7  C   UNL     1       0.028   0.010  -0.005  0.00  0.00    +0.014 A 
ATOM      8  C   UNL     1       1.224  -0.674  -0.018  0.00  0.00    -0.022 A 
BRANCH   3  10
ATOM      9  C   UNL     1       4.800   0.121  -0.053  0.00  0.00    +0.277 C 
ATOM     10  O   UNL     1       3.602  -0.657  -0.043  0.00  0.00    -0.495 OA
ENDBRANCH   3  10
BRANCH   8  11
ATOM     11  C   UNL     1       1.228  -2.182  -0.021  0.00  0.00    -0.039 C 
BRANCH  11  17
ATOM     12  C   UNL     1       2.119  -4.043   1.238  0.00  0.00    -0.068 C 
ATOM     13  C   UNL     1       2.917  -4.367   2.506  0.00  0.00    +0.050 C 
ATOM     14  S   UNL     1       1.799  -4.238   3.936  0.00  0.00    -0.164 S 
ATOM     15  C   UNL     1       1.024  -2.609   3.693  0.00  0.00    +0.050 C 
ATOM     16  C   UNL     1       0.496  -2.536   2.255  0.00  0.00    -0.068 C 
ATOM     17  N   UNL     1       1.636  -2.647   1.316  0.00  0.00    +0.384 N 
ATOM     18  H   UNL     1       2.401  -2.052   1.655  0.00  0.00    -0.081 HD
ENDBRANCH  11  17
ENDBRANCH   8  11
ENDBRANCH   1   6
BRANCH   2  19
ATOM     19  N   UNL     1      -2.464   4.144   0.017  0.00  0.00    -0.202 N 
ATOM     20  C   UNL     1      -2.464   5.491   0.020  0.00  0.00    +0.271 C 
ATOM     21  O   UNL     1      -1.410   6.100   0.016  0.00  0.00    -0.268 OA
ATOM     22  H   UNL     1      -3.304   3.659   0.020  0.00  0.00    +0.178 HD
BRANCH  20  23
ATOM     23  C   UNL     1      -3.735   6.225   0.028  0.00  0.00    +0.095 A 
ATOM     24  C   UNL     1      -3.937   7.571   0.032  0.00  0.00    +0.069 A 
ATOM     25  C   UNL     1      -5.248   8.083   0.039  0.00  0.00    +0.027 A 
ATOM     26  C   UNL     1      -6.278   7.113   0.042  0.00  0.00    +0.023 A 
ATOM     27  S   UNL     1      -5.395   5.572   0.027  0.00  0.00    -0.082 S 
ATOM     28  C   UNL     1      -7.612   7.458   0.048  0.00  0.00    +0.016 A 
ATOM     29  C   UNL     1      -7.970   8.792   0.053  0.00  0.00    +0.003 A 
ATOM     30  C   UNL     1      -6.981   9.766   0.051  0.00  0.00    +0.021 A 
ATOM     31  C   UNL     1      -5.660   9.441   0.044  0.00  0.00    +0.051 A 
ATOM     32 CL   UNL     1      -4.466  10.701   0.042  0.00  0.00    -0.083 Cl
ATOM     33 CL   UNL     1      -2.580   8.655   0.028  0.00  0.00    -0.082 Cl
ENDBRANCH  20  23
ENDBRANCH   2  19
TORSDOF 6
