REMARK  Name = ZINC63140452
REMARK  10 active torsions:
REMARK  status: ('A' for Active; 'I' for Inactive)
REMARK    1  A    between atoms: C_1  and  C_2
REMARK    2  A    between atoms: C_2  and  O_3
REMARK    3  A    between atoms: O_3  and  C_4
REMARK    4  A    between atoms: C_9  and  C_10
REMARK    5  A    between atoms: N_29  and  C_32
REMARK    6  A    between atoms: C_32  and  C_33
REMARK    7  A    between atoms: C_36  and  O_41
REMARK    8  A    between atoms: C_37  and  O_39
REMARK    9  A    between atoms: O_39  and  C_40
REMARK   10  A    between atoms: O_41  and  C_42
REMARK                            x       y       z     vdW  Elec       q    Type
REMARK                         _______ _______ _______ _____ _____    ______ ____
ROOT
ATOM      1  C   UNL     1       2.055  -1.434   3.442  0.00  0.00    +0.137 C 
ATOM      2  C   UNL     1       0.962  -0.957   4.402  0.00  0.00    +0.131 C 
ATOM      3  C   UNL     1       1.668  -0.267   5.563  0.00  0.00    -0.034 C 
ATOM      4  C   UNL     1       1.154   0.954   5.642  0.00  0.00    -0.001 A 
ATOM      5  C   UNL     1       1.380   2.052   6.596  0.00  0.00    +0.010 A 
ATOM      6  C   UNL     1       0.681   3.196   6.370  0.00  0.00    +0.001 A 
ATOM      7  C   UNL     1      -0.208   3.356   5.302  0.00  0.00    +0.002 A 
ATOM      8  C   UNL     1      -0.480   2.398   4.380  0.00  0.00    +0.026 A 
ATOM      9  C   UNL     1       0.190   1.147   4.516  0.00  0.00    +0.043 A 
ATOM     10  N   UNL     1       0.096   0.050   3.788  0.00  0.00    -0.375 N 
ATOM     11  C   UNL     1       2.781  -0.928   6.339  0.00  0.00    +0.065 C 
ATOM     12  C   UNL     1       3.783  -1.465   5.301  0.00  0.00    +0.167 C 
ATOM     13  N   UNL     1       3.068  -2.164   4.238  0.00  0.00    -0.279 N 
ATOM     14  C   UNL     1       3.285  -3.452   3.946  0.00  0.00    +0.234 C 
ATOM     15  O   UNL     1       2.624  -3.947   3.058  0.00  0.00    -0.274 OA
ATOM     16  C   UNL     1       4.283  -4.322   4.636  0.00  0.00    +0.204 C 
ATOM     17  N   UNL     1       5.012  -3.608   5.671  0.00  0.00    -0.287 N 
ATOM     18  C   UNL     1       4.794  -2.330   5.978  0.00  0.00    +0.237 C 
ATOM     19  O   UNL     1       5.462  -1.837   6.862  0.00  0.00    -0.274 OA
ATOM     20  H   UNL     1      -0.441  -0.074   2.990  0.00  0.00    +0.160 HD
ENDROOT
BRANCH   1  26
ATOM     21  C   UNL     1       2.096  -2.527   1.186  0.00  0.00    +0.125 A 
ATOM     22  C   UNL     1       1.548  -3.378   0.236  0.00  0.00    +0.046 A 
ATOM     23  C   UNL     1       0.369  -4.045   0.506  0.00  0.00    +0.004 A 
ATOM     24  C   UNL     1      -0.266  -3.865   1.722  0.00  0.00    +0.001 A 
ATOM     25  C   UNL     1       0.278  -3.018   2.669  0.00  0.00    +0.009 A 
ATOM     26  C   UNL     1       1.460  -2.353   2.406  0.00  0.00    +0.017 A 
BRANCH  21  27
ATOM     27  O   UNL     1       3.256  -1.871   0.923  0.00  0.00    -0.492 OA
BRANCH  27  29
ATOM     28  C   UNL     1       5.143  -1.280  -0.467  0.00  0.00    +0.048 C 
ATOM     29  C   UNL     1       3.855  -2.098  -0.355  0.00  0.00    +0.225 C 
ENDBRANCH  27  29
ENDBRANCH  21  27
ENDBRANCH   1  26
BRANCH  17  30
ATOM     30  C   UNL     1       6.040  -4.334   6.419  0.00  0.00    +0.143 C 
BRANCH  30  31
ATOM     31  C   UNL     1       7.367  -4.190   5.719  0.00  0.00    -0.026 A 
ATOM     32  C   UNL     1       7.741  -5.108   4.755  0.00  0.00    +0.009 A 
ATOM     33  C   UNL     1       8.957  -4.980   4.109  0.00  0.00    +0.050 A 
ATOM     34  C   UNL     1       9.804  -3.931   4.429  0.00  0.00    +0.162 A 
ATOM     35  C   UNL     1       9.427  -3.007   5.399  0.00  0.00    +0.162 A 
ATOM     36  C   UNL     1       8.205  -3.138   6.038  0.00  0.00    +0.054 A 
BRANCH  35  37
ATOM     37  O   UNL     1      10.255  -1.976   5.716  0.00  0.00    -0.491 OA
ATOM     38  C   UNL     1       9.803  -1.067   6.721  0.00  0.00    +0.277 C 
ENDBRANCH  35  37
BRANCH  34  39
ATOM     39  O   UNL     1      11.001  -3.804   3.795  0.00  0.00    -0.491 OA
ATOM     40  C   UNL     1      11.321  -4.789   2.811  0.00  0.00    +0.277 C 
ENDBRANCH  34  39
ENDBRANCH  30  31
ENDBRANCH  17  30
TORSDOF 7
