REMARK  Name = ZINC63533204
REMARK  11 active torsions:
REMARK  status: ('A' for Active; 'I' for Inactive)
REMARK    1  A    between atoms: C_1  and  C_2
REMARK    2  A    between atoms: C_3  and  C_31
REMARK    3  A    between atoms: C_5  and  N_11
REMARK    4  A    between atoms: C_7  and  C_9
REMARK    5  A    between atoms: C_12  and  C_14
REMARK    6  A    between atoms: C_14  and  S_15
REMARK    7  A    between atoms: S_15  and  C_16
REMARK    8  A    between atoms: C_19  and  C_30
REMARK    9  A    between atoms: C_20  and  C_22
REMARK   10  A    between atoms: C_22  and  C_23
REMARK   11  A    between atoms: C_26  and  O_29
REMARK                            x       y       z     vdW  Elec       q    Type
REMARK                         _______ _______ _______ _____ _____    ______ ____
ROOT
ATOM      1  C   UNL     1      -6.576   3.825  -6.854  0.00  0.00    +0.145 A 
ATOM      2  H   UNL     1      -7.001   3.304  -8.832  0.00  0.00    +0.168 HD
ATOM      3  N   UNL     1      -6.732   4.966  -6.224  0.00  0.00    -0.338 N 
ATOM      4  C   UNL     1      -7.259   5.870  -7.066  0.00  0.00    +0.034 A 
ATOM      5  C   UNL     1      -7.439   5.281  -8.261  0.00  0.00    +0.041 A 
ATOM      6  N   UNL     1      -7.002   3.981  -8.137  0.00  0.00    -0.338 N 
ATOM      7  C   UNL     1      -7.592   7.301  -6.730  0.00  0.00    +0.065 C 
ATOM      8  H   UNL     1      -6.504   5.130  -5.295  0.00  0.00    +0.167 HD
ENDROOT
BRANCH   1   9
ATOM      9  S   UNL     1      -5.919   2.345  -6.159  0.00  0.00    -0.080 S 
BRANCH   9  10
ATOM     10  C   UNL     1      -4.657   2.930  -4.994  0.00  0.00    +0.173 C 
BRANCH  10  12
ATOM     11  N   UNL     1      -3.035   1.942  -3.409  0.00  0.00    -0.292 N 
ATOM     12  C   UNL     1      -4.008   1.748  -4.321  0.00  0.00    +0.225 C 
ATOM     13  O   UNL     1      -4.362   0.622  -4.600  0.00  0.00    -0.275 OA
ATOM     14  H   UNL     1      -2.752   2.843  -3.186  0.00  0.00    +0.151 HD
BRANCH  11  19
ATOM     15  C   UNL     1      -0.013   1.086   0.008  0.00  0.00    +0.015 C 
ATOM     16  C   UNL     1      -0.753   1.593  -1.232  0.00  0.00    +0.050 C 
ATOM     17  C   UNL     1      -0.148   1.007  -2.488  0.00  0.00    +0.017 C 
ATOM     18  N   UNL     1      -1.050   0.587  -3.282  0.00  0.00    -0.269 NA
ATOM     19  C   UNL     1      -2.404   0.793  -2.755  0.00  0.00    +0.208 C 
ATOM     20  C   UNL     1      -2.210   1.071  -1.246  0.00  0.00    +0.142 C 
ATOM     21  C   UNL     1       1.332   0.931  -2.764  0.00  0.00    +0.060 C 
BRANCH  20  22
ATOM     22  C   UNL     1      -2.340  -0.166  -0.458  0.00  0.00    +0.070 C 
ATOM     23  N   UNL     1      -2.440  -1.120   0.151  0.00  0.00    -0.196 NA
ENDBRANCH  20  22
ENDBRANCH  11  19
ENDBRANCH  10  12
ENDBRANCH   9  10
ENDBRANCH   1   9
BRANCH   5  24
ATOM     24  C   UNL     1      -8.006   5.922  -9.501  0.00  0.00    +0.090 C 
BRANCH  24  25
ATOM     25  C   UNL     1      -6.907   6.638 -10.244  0.00  0.00    -0.041 A 
ATOM     26  C   UNL     1      -6.630   7.962  -9.959  0.00  0.00    +0.007 A 
ATOM     27  C   UNL     1      -5.623   8.620 -10.638  0.00  0.00    +0.045 A 
ATOM     28  C   UNL     1      -4.890   7.951 -11.607  0.00  0.00    +0.117 A 
ATOM     29  C   UNL     1      -5.170   6.622 -11.891  0.00  0.00    +0.045 A 
ATOM     30  C   UNL     1      -6.174   5.967 -11.205  0.00  0.00    +0.007 A 
BRANCH  28  31
ATOM     31  O   UNL     1      -3.899   8.597 -12.278  0.00  0.00    -0.507 OA
ATOM     32  H   UNL     1      -3.031   8.530 -11.857  0.00  0.00    +0.292 HD
ENDBRANCH  28  31
ENDBRANCH  24  25
ENDBRANCH   5  24
TORSDOF 8
