REMARK  Name = ZINC08919228
REMARK  12 active torsions:
REMARK  status: ('A' for Active; 'I' for Inactive)
REMARK    1  A    between atoms: C_1  and  C_2
REMARK    2  A    between atoms: C_2  and  C_3
REMARK    3  A    between atoms: C_3  and  N_60
REMARK    4  A    between atoms: C_4  and  C_5
REMARK    5  A    between atoms: C_4  and  N_60
REMARK    6  A    between atoms: C_5  and  C_6
REMARK    7  A    between atoms: C_7  and  C_8
REMARK    8  A    between atoms: C_7  and  N_60
REMARK    9  A    between atoms: C_8  and  C_9
REMARK   10  A    between atoms: N_11  and  C_12
REMARK   11  A    between atoms: C_13  and  C_20
REMARK   12  A    between atoms: N_22  and  C_23
REMARK                            x       y       z     vdW  Elec       q    Type
REMARK                         _______ _______ _______ _____ _____    ______ ____
ROOT
ATOM      1  C   UNL     1      -0.769   0.870   3.024  0.00  0.00    +0.084 A 
ATOM      2  C   UNL     1      -1.892   1.446   3.592  0.00  0.00    +0.069 A 
ATOM      3  C   UNL     1      -1.783   2.830   4.054  0.00  0.00    -0.023 A 
ATOM      4  C   UNL     1      -0.581   3.402   3.863  0.00  0.00    -0.004 A 
ATOM      5  S   UNL     1       0.403   2.141   3.090  0.00  0.00    -0.077 S 
ATOM      6  C   UNL     1      -0.546   4.822   4.360  0.00  0.00    +0.043 C 
ATOM      7  C   UNL     1      -1.773   4.938   5.291  0.00  0.00    +0.010 C 
ATOM      8  C   UNL     1      -2.705   3.852   4.720  0.00  0.00    +0.037 C 
ENDROOT
BRANCH   1  11
ATOM      9  C   UNL     1       0.558  -0.799   1.993  0.00  0.00    +0.216 C 
ATOM     10  O   UNL     1       1.490  -0.024   1.962  0.00  0.00    -0.276 OA
ATOM     11  N   UNL     1      -0.622  -0.413   2.519  0.00  0.00    -0.279 N 
ATOM     12  H   UNL     1      -1.367  -1.033   2.544  0.00  0.00    +0.155 HD
BRANCH   9  13
ATOM     13  C   UNL     1       0.719  -2.193   1.445  0.00  0.00    +0.077 C 
BRANCH  13  14
ATOM     14  C   UNL     1       2.142  -2.371   0.913  0.00  0.00    -0.070 C 
BRANCH  14  15
ATOM     15  N   UNL     1       2.290  -3.749   0.398  0.00  0.00    +0.380 N 
ATOM     16  H   UNL     1       1.980  -4.410   1.120  0.00  0.00    -0.082 HD
BRANCH  15  17
ATOM     17  C   UNL     1       1.455  -3.930  -0.808  0.00  0.00    -0.079 C 
BRANCH  17  19
ATOM     18  C   UNL     1       0.994  -3.152  -3.137  0.00  0.00    +0.002 C 
ATOM     19  C   UNL     1       1.886  -2.959  -1.909  0.00  0.00    -0.022 C 
ENDBRANCH  17  19
ENDBRANCH  15  17
BRANCH  15  20
ATOM     20  C   UNL     1       3.707  -4.019   0.077  0.00  0.00    -0.079 C 
BRANCH  20  21
ATOM     21  C   UNL     1       3.885  -5.522  -0.143  0.00  0.00    -0.022 C 
ATOM     22  C   UNL     1       5.346  -5.819  -0.488  0.00  0.00    +0.002 C 
ENDBRANCH  20  21
ENDBRANCH  15  20
ENDBRANCH  14  15
ENDBRANCH  13  14
ENDBRANCH   9  13
ENDBRANCH   1  11
BRANCH   2  23
ATOM     23  C   UNL     1      -3.144   0.697   3.730  0.00  0.00    +0.251 C 
ATOM     24  O   UNL     1      -3.357   0.047   4.737  0.00  0.00    -0.270 OA
ATOM     25  N   UNL     1      -4.060   0.726   2.741  0.00  0.00    -0.281 N 
ATOM     26  H   UNL     1      -3.861   1.183   1.909  0.00  0.00    +0.155 HD
BRANCH  25  27
ATOM     27  C   UNL     1      -5.297   0.097   2.915  0.00  0.00    +0.034 A 
ATOM     28  C   UNL     1      -5.936  -0.494   1.832  0.00  0.00    +0.024 A 
ATOM     29  C   UNL     1      -7.154  -1.119   2.007  0.00  0.00    +0.017 A 
ATOM     30  C   UNL     1      -7.745  -1.148   3.258  0.00  0.00    +0.018 A 
ATOM     31  C   UNL     1      -7.114  -0.555   4.338  0.00  0.00    +0.017 A 
ATOM     32  C   UNL     1      -5.892   0.066   4.169  0.00  0.00    +0.024 A 
ATOM     33 BR   UNL     1      -9.417  -1.998   3.493  0.00  0.00    -0.050 Br
ENDBRANCH  25  27
ENDBRANCH   2  23
TORSDOF 10
