REMARK  Name = ZINC27256547
REMARK  12 active torsions:
REMARK  status: ('A' for Active; 'I' for Inactive)
REMARK    1  A    between atoms: C_1  and  C_2
REMARK    2  A    between atoms: C_2  and  C_3
REMARK    3  A    between atoms: C_3  and  C_5
REMARK    4  A    between atoms: C_3  and  C_6
REMARK    5  A    between atoms: C_6  and  C_8
REMARK    6  A    between atoms: C_6  and  N_26
REMARK    7  A    between atoms: N_10  and  N_11
REMARK    8  A    between atoms: N_11  and  C_12
REMARK    9  A    between atoms: C_12  and  N_14
REMARK   10  A    between atoms: N_14  and  C_15
REMARK   11  A    between atoms: C_20  and  C_25
REMARK   12  A    between atoms: C_22  and  C_24
REMARK                            x       y       z     vdW  Elec       q    Type
REMARK                         _______ _______ _______ _____ _____    ______ ____
ROOT
ATOM      1  C   UNL     1      -3.396   3.204  -1.024  0.00  0.00    +0.250 C 
ATOM      2  O   UNL     1      -3.100   2.167  -1.578  0.00  0.00    -0.272 OA
ATOM      3  N   UNL     1      -4.500   3.878  -1.401  0.00  0.00    -0.234 N 
ATOM      4  H   UNL     1      -4.769   4.819  -0.898  0.00  0.00    +0.173 HD
ENDROOT
BRANCH   3   5
ATOM      5  N   UNL     1      -5.306   3.381  -2.434  0.00  0.00    -0.246 N 
ATOM      6  H   UNL     1      -5.037   2.440  -2.937  0.00  0.00    +0.172 HD
BRANCH   5   7
ATOM      7  C   UNL     1      -6.410   4.055  -2.811  0.00  0.00    +0.147 C 
ATOM      8  S   UNL     1      -7.395   3.447  -4.073  0.00  0.00    -0.017 S 
BRANCH   7   9
ATOM      9  N   UNL     1      -6.739   5.208  -2.195  0.00  0.00    -0.322 N 
ATOM     10  H   UNL     1      -6.107   5.598  -1.384  0.00  0.00    +0.148 HD
BRANCH   9  11
ATOM     11  C   UNL     1      -7.940   5.941  -2.605  0.00  0.00    +0.075 C 
ATOM     12  C   UNL     1      -7.605   6.843  -3.795  0.00  0.00    +0.022 C 
ATOM     13  C   UNL     1      -6.514   7.836  -3.390  0.00  0.00    +0.002 C 
ATOM     14  C   UNL     1      -7.012   8.693  -2.224  0.00  0.00    +0.003 C 
ATOM     15  C   UNL     1      -7.347   7.791  -1.035  0.00  0.00    -0.009 C 
ATOM     16  C   UNL     1      -8.437   6.798  -1.439  0.00  0.00    +0.009 C 
ATOM     17  C   UNL     1      -8.772   5.895  -0.250  0.00  0.00    +0.009 C 
ATOM     18  C   UNL     1      -7.844   8.648   0.131  0.00  0.00    +0.008 C 
ENDBRANCH   9  11
ENDBRANCH   7   9
ENDBRANCH   5   7
ENDBRANCH   3   5
BRANCH   1  19
ATOM     19  C   UNL     1      -2.529   3.739   0.087  0.00  0.00    +0.165 C 
BRANCH  19  20
ATOM     20  N   UNL     1      -1.196   3.138  -0.002  0.00  0.00    -0.288 N 
ATOM     21  C   UNL     1      -0.265   3.680  -0.811  0.00  0.00    +0.298 C 
ATOM     22  O   UNL     1      -0.557   4.611  -1.537  0.00  0.00    -0.253 OA
ATOM     23  N   UNL     1       0.991   3.191  -0.817  0.00  0.00    -0.313 N 
ATOM     24  H   UNL     1      -0.955   2.244   0.593  0.00  0.00    +0.151 HD
ATOM     25  H   UNL     1       1.751   3.634  -1.477  0.00  0.00    +0.146 HD
ATOM     26  H   UNL     1       1.256   2.349  -0.160  0.00  0.00    +0.146 HD
ENDBRANCH  19  20
BRANCH  19  27
ATOM     27  C   UNL     1      -3.157   3.390   1.437  0.00  0.00    +0.015 C 
ATOM     28  C   UNL     1      -3.253   1.869   1.577  0.00  0.00    +0.010 C 
BRANCH  27  30
ATOM     29  C   UNL     1      -2.979   3.711   3.909  0.00  0.00    +0.004 C 
ATOM     30  C   UNL     1      -2.289   3.952   2.564  0.00  0.00    +0.002 C 
ENDBRANCH  27  30
ENDBRANCH  19  27
ENDBRANCH   1  19
TORSDOF 8
