REMARK  Name = ZINC39696367
REMARK  10 active torsions:
REMARK  status: ('A' for Active; 'I' for Inactive)
REMARK    1  A    between atoms: C_1  and  C_2
REMARK    2  A    between atoms: C_2  and  C_3
REMARK    3  A    between atoms: C_2  and  C_4
REMARK    4  A    between atoms: C_2  and  S_5
REMARK    5  A    between atoms: S_5  and  C_6
REMARK    6  A    between atoms: C_6  and  C_7
REMARK    7  A    between atoms: C_7  and  N_8
REMARK    8  A    between atoms: C_9  and  C_11
REMARK    9  A    between atoms: C_22  and  C_24
REMARK   10  A    between atoms: C_30  and  C_32
REMARK                            x       y       z     vdW  Elec       q    Type
REMARK                         _______ _______ _______ _____ _____    ______ ____
ROOT
ATOM      1  C   UNL     1       6.994   0.612  -3.300  0.00  0.00    +0.100 C 
ATOM      2  C   UNL     1       7.667   0.150  -1.988  0.00  0.00    +0.121 C 
ATOM      3  N   UNL     1       8.471  -1.033  -2.375  0.00  0.00    -0.299 N 
ATOM      4  C   UNL     1       9.038  -0.676  -3.698  0.00  0.00    +0.115 C 
ATOM      5  C   UNL     1       7.899   0.071  -4.419  0.00  0.00    -0.004 C 
ATOM      6  C   UNL     1       8.463   1.223  -5.246  0.00  0.00    -0.010 C 
ATOM      7  C   UNL     1       9.312   0.658  -6.388  0.00  0.00    -0.082 C 
ATOM      8  N   UNL     1       8.484  -0.216  -7.229  0.00  0.00    +0.379 N 
ATOM      9  C   UNL     1       8.023  -1.371  -6.450  0.00  0.00    -0.082 C 
ATOM     10  C   UNL     1       7.119  -0.891  -5.310  0.00  0.00    -0.010 C 
ATOM     11  C   UNL     1       8.646  -2.176  -1.682  0.00  0.00    +0.236 C 
ATOM     12  O   UNL     1       9.340  -3.060  -2.137  0.00  0.00    -0.274 OA
ATOM     13  H   UNL     1       7.686   0.301  -7.566  0.00  0.00    -0.086 HD
ATOM     14  H   UNL     1       9.029  -0.538  -8.015  0.00  0.00    -0.086 HD
ENDROOT
BRANCH  11  15
ATOM     15  C   UNL     1       7.980  -2.354  -0.342  0.00  0.00    +0.162 C 
ATOM     16  C   UNL     1       8.794  -1.627   0.749  0.00  0.00    +0.033 C 
ATOM     17  C   UNL     1       8.696  -2.595   1.958  0.00  0.00    +0.021 C 
ATOM     18  C   UNL     1       8.721  -3.975   1.255  0.00  0.00    +0.109 C 
ATOM     19  N   UNL     1       7.945  -3.780   0.013  0.00  0.00    -0.283 N 
ATOM     20  C   UNL     1       7.310  -4.747  -0.680  0.00  0.00    +0.320 C 
ATOM     21  O   UNL     1       6.701  -4.467  -1.691  0.00  0.00    -0.266 OA
BRANCH  20  22
ATOM     22  C   UNL     1       7.357  -6.174  -0.199  0.00  0.00    +0.470 C 
ATOM     23  F   UNL     1       6.631  -6.986  -1.076  0.00  0.00    -0.162 F 
ATOM     24  F   UNL     1       8.687  -6.607  -0.155  0.00  0.00    -0.162 F 
ATOM     25  F   UNL     1       6.798  -6.253   1.081  0.00  0.00    -0.162 F 
ENDBRANCH  20  22
ENDBRANCH  11  15
BRANCH   1  27
ATOM     26  N   UNL     1       4.657   0.680  -4.107  0.00  0.00    -0.314 N 
ATOM     27  C   UNL     1       5.610   0.026  -3.414  0.00  0.00    +0.218 C 
ATOM     28  O   UNL     1       5.355  -1.034  -2.883  0.00  0.00    -0.275 OA
ATOM     29  H   UNL     1       4.861   1.527  -4.532  0.00  0.00    +0.149 HD
BRANCH  26  30
ATOM     30  C   UNL     1       3.312   0.110  -4.218  0.00  0.00    +0.115 C 
BRANCH  30  31
ATOM     31  C   UNL     1       2.430   1.044  -5.049  0.00  0.00    +0.088 C 
BRANCH  31  32
ATOM     32  S   UNL     1       0.764   0.338  -5.187  0.00  0.00    -0.153 S 
BRANCH  32  34
ATOM     33  C   UNL     1       0.535   1.695  -7.551  0.00  0.00    +0.022 C 
ATOM     34  C   UNL     1      -0.144   1.549  -6.188  0.00  0.00    +0.008 C 
ATOM     35  C   UNL     1      -0.148   2.901  -5.473  0.00  0.00    +0.022 C 
ATOM     36  C   UNL     1      -1.584   1.071  -6.383  0.00  0.00    +0.022 C 
ENDBRANCH  32  34
ENDBRANCH  31  32
ENDBRANCH  30  31
ENDBRANCH  26  30
ENDBRANCH   1  27
TORSDOF 7
