REMARK  Name = ZINC61850304
REMARK  7 active torsions:
REMARK  status: ('A' for Active; 'I' for Inactive)
REMARK    1  A    between atoms: C_3  and  C_17
REMARK    2  A    between atoms: C_6  and  N_7
REMARK    3  A    between atoms: N_7  and  C_8
REMARK    4  A    between atoms: N_7  and  C_12
REMARK    5  A    between atoms: C_8  and  C_9
REMARK    6  A    between atoms: C_12  and  C_13
REMARK    7  A    between atoms: C_17  and  N_19
REMARK                            x       y       z     vdW  Elec       q    Type
REMARK                         _______ _______ _______ _____ _____    ______ ____
ROOT
ATOM      1  N   UNL     1      -1.194  -0.714   0.010  0.00  0.00    -0.312 N 
ENDROOT
BRANCH   1   7
ATOM      2  C   UNL     1      -0.016   1.387   0.043  0.00  0.00    +0.024 A 
ATOM      3  C   UNL     1       1.165   2.094   0.036  0.00  0.00    +0.013 A 
ATOM      4  C   UNL     1       2.385   1.413  -0.013  0.00  0.00    +0.021 A 
ATOM      5  C   UNL     1       2.400   0.013  -0.054  0.00  0.00    +0.052 A 
ATOM      6  C   UNL     1       1.214  -0.686  -0.047  0.00  0.00    +0.043 A 
ATOM      7  C   UNL     1       0.002  -0.004   0.002  0.00  0.00    +0.032 A 
ATOM      8 CL   UNL     1       3.912  -0.838  -0.116  0.00  0.00    -0.083 Cl
BRANCH   4   9
ATOM      9  C   UNL     1       3.651   2.166  -0.022  0.00  0.00    +0.078 C 
ATOM     10  S   UNL     1       5.143   1.333   0.089  0.00  0.00    -0.035 S 
BRANCH   9  11
ATOM     11  N   UNL     1       3.635   3.510  -0.117  0.00  0.00    -0.352 N 
ATOM     12  H   UNL     1       2.790   3.987  -0.106  0.00  0.00    +0.143 HD
ATOM     13  H   UNL     1       4.468   4.001  -0.195  0.00  0.00    +0.143 HD
ENDBRANCH   9  11
ENDBRANCH   4   9
ENDBRANCH   1   7
BRANCH   1  14
ATOM     14  C   UNL     1      -1.177  -2.179  -0.033  0.00  0.00    +0.201 C 
BRANCH  14  15
ATOM     15  C   UNL     1      -1.137  -2.722   1.372  0.00  0.00    +0.228 C 
ATOM     16  O   UNL     1      -1.124  -1.961   2.316  0.00  0.00    -0.274 OA
ATOM     17  N   UNL     1      -1.116  -4.054   1.579  0.00  0.00    -0.328 N 
ATOM     18  H   UNL     1      -1.126  -4.662   0.823  0.00  0.00    +0.145 HD
ATOM     19  H   UNL     1      -1.090  -4.404   2.483  0.00  0.00    +0.145 HD
ENDBRANCH  14  15
ENDBRANCH   1  14
BRANCH   1  20
ATOM     20  C   UNL     1      -2.471   0.002   0.061  0.00  0.00    +0.201 C 
BRANCH  20  21
ATOM     21  C   UNL     1      -2.943   0.289  -1.341  0.00  0.00    +0.228 C 
ATOM     22  O   UNL     1      -2.278  -0.069  -2.289  0.00  0.00    -0.274 OA
ATOM     23  N   UNL     1      -4.104   0.945  -1.540  0.00  0.00    -0.328 N 
ATOM     24  H   UNL     1      -4.635   1.232  -0.781  0.00  0.00    +0.145 HD
ATOM     25  H   UNL     1      -4.408   1.130  -2.442  0.00  0.00    +0.145 HD
ENDBRANCH  20  21
ENDBRANCH   1  20
TORSDOF 7
