REMARK  Name = ZINC66925566
REMARK  12 active torsions:
REMARK  status: ('A' for Active; 'I' for Inactive)
REMARK    1  A    between atoms: C_1  and  C_2
REMARK    2  A    between atoms: C_2  and  C_3
REMARK    3  A    between atoms: C_2  and  N_4
REMARK    4  A    between atoms: N_4  and  C_5
REMARK    5  A    between atoms: N_4  and  C_6
REMARK    6  A    between atoms: C_6  and  C_7
REMARK    7  A    between atoms: C_7  and  C_8
REMARK    8  A    between atoms: C_8  and  C_9
REMARK    9  A    between atoms: C_9  and  N_10
REMARK   10  A    between atoms: N_13  and  C_14
REMARK   11  A    between atoms: C_14  and  C_15
REMARK   12  A    between atoms: C_15  and  O_25
REMARK                            x       y       z     vdW  Elec       q    Type
REMARK                         _______ _______ _______ _____ _____    ______ ____
ROOT
ATOM      1  N   UNL     1      -4.130  -6.071   0.656  0.00  0.00    -0.299 N 
ATOM      2  C   UNL     1      -5.295  -6.745   0.589  0.00  0.00    +0.300 C 
ATOM      3  O   UNL     1      -6.348  -6.137   0.560  0.00  0.00    -0.253 OA
ATOM      4  N   UNL     1      -5.293  -8.092   0.554  0.00  0.00    -0.296 N 
ATOM      5  H   UNL     1      -3.290  -6.556   0.679  0.00  0.00    +0.150 HD
ATOM      6  H   UNL     1      -4.453  -8.577   0.577  0.00  0.00    +0.150 HD
ENDROOT
BRANCH   1   7
ATOM      7  C   UNL     1      -4.131  -4.606   0.694  0.00  0.00    +0.105 C 
BRANCH   7   8
ATOM      8  C   UNL     1      -2.691  -4.096   0.768  0.00  0.00    +0.017 C 
BRANCH   8   9
ATOM      9  C   UNL     1      -2.692  -2.567   0.808  0.00  0.00    -0.017 C 
BRANCH   9  10
ATOM     10  C   UNL     1      -1.252  -2.057   0.883  0.00  0.00    -0.079 C 
BRANCH  10  11
ATOM     11  N   UNL     1      -1.254  -0.589   0.921  0.00  0.00    +0.379 N 
ATOM     12  C   UNL     1      -1.786  -0.066  -0.345  0.00  0.00    -0.096 C 
ATOM     13  H   UNL     1      -1.832  -0.273   1.685  0.00  0.00    -0.082 HD
BRANCH  11  15
ATOM     14  C   UNL     1       0.117   1.427   1.152  0.00  0.00    -0.014 C 
ATOM     15  C   UNL     1       0.119  -0.102   1.113  0.00  0.00    -0.075 C 
ATOM     16  C   UNL     1       0.673  -0.646   2.431  0.00  0.00    -0.014 C 
ENDBRANCH  11  15
ENDBRANCH  10  11
ENDBRANCH   9  10
ENDBRANCH   8   9
ENDBRANCH   7   8
ENDBRANCH   1   7
BRANCH   4  17
ATOM     17  C   UNL     1      -6.560  -8.824   0.481  0.00  0.00    +0.145 C 
BRANCH  17  18
ATOM     18  C   UNL     1      -6.276 -10.319   0.321  0.00  0.00    +0.107 C 
ATOM     19  C   UNL     1      -5.414 -10.538  -0.920  0.00  0.00    +0.041 C 
ATOM     20  C   UNL     1      -5.323 -12.045  -1.187  0.00  0.00    +0.008 C 
ATOM     21  C   UNL     1      -6.691 -12.534  -1.657  0.00  0.00    +0.035 C 
ATOM     22  C   UNL     1      -7.770 -12.082  -0.709  0.00  0.00    -0.041 A 
ATOM     23  C   UNL     1      -7.581 -11.062   0.197  0.00  0.00    -0.011 A 
ATOM     24  C   UNL     1      -8.620 -10.689   1.040  0.00  0.00    +0.007 A 
ATOM     25  C   UNL     1      -9.838 -11.334   0.979  0.00  0.00    +0.000 A 
ATOM     26  C   UNL     1     -10.027 -12.360   0.072  0.00  0.00    +0.000 A 
ATOM     27  C   UNL     1      -8.997 -12.731  -0.767  0.00  0.00    +0.004 A 
BRANCH  18  28
ATOM     28  O   UNL     1      -5.573 -10.791   1.472  0.00  0.00    -0.382 OA
ATOM     29  H   UNL     1      -6.056 -10.678   2.302  0.00  0.00    +0.211 HD
ENDBRANCH  18  28
ENDBRANCH  17  18
ENDBRANCH   4  17
TORSDOF 9
