REMARK  Name = ZINC38550552
REMARK  13 active torsions:
REMARK  status: ('A' for Active; 'I' for Inactive)
REMARK    1  A    between atoms: C_1  and  C_2
REMARK    2  A    between atoms: C_2  and  N_3
REMARK    3  A    between atoms: N_6  and  C_9
REMARK    4  A    between atoms: C_9  and  C_11
REMARK    5  A    between atoms: C_9  and  C_21
REMARK    6  A    between atoms: C_15  and  O_19
REMARK    7  A    between atoms: C_16  and  O_17
REMARK    8  A    between atoms: O_17  and  C_18
REMARK    9  A    between atoms: O_19  and  C_20
REMARK   10  A    between atoms: C_22  and  C_35
REMARK   11  A    between atoms: C_23  and  C_34
REMARK   12  A    between atoms: C_25  and  N_26
REMARK   13  A    between atoms: C_27  and  C_29
REMARK                            x       y       z     vdW  Elec       q    Type
REMARK                         _______ _______ _______ _____ _____    ______ ____
ROOT
ATOM      1  C   UNL     1      -5.619  -1.888  -1.222  0.00  0.00    +0.123 C 
ENDROOT
BRANCH   1   5
ATOM      2  N   UNL     1      -3.417   0.905  -3.507  0.00  0.00    +0.381 N 
ATOM      3  C   UNL     1      -2.888  -0.460  -3.389  0.00  0.00    -0.063 C 
ATOM      4  C   UNL     1      -4.014  -1.409  -2.972  0.00  0.00    +0.067 C 
ATOM      5  N   UNL     1      -4.571  -0.968  -1.685  0.00  0.00    -0.295 NA
ATOM      6  C   UNL     1      -5.082   0.407  -1.782  0.00  0.00    +0.067 C 
ATOM      7  C   UNL     1      -3.948   1.341  -2.208  0.00  0.00    -0.063 C 
ATOM      8  H   UNL     1      -4.156   0.921  -4.194  0.00  0.00    -0.082 HD
BRANCH   2  10
ATOM      9  C   UNL     1      -1.872   1.435  -5.332  0.00  0.00    -0.017 C 
ATOM     10  C   UNL     1      -2.340   1.813  -3.925  0.00  0.00    -0.082 C 
ENDBRANCH   2  10
ENDBRANCH   1   5
BRANCH   1  11
ATOM     11  C   UNL     1      -5.099  -3.302  -1.264  0.00  0.00    +0.006 A 
ATOM     12  C   UNL     1      -3.885  -3.623  -0.686  0.00  0.00    -0.034 A 
ATOM     13  C   UNL     1      -3.448  -4.904  -0.741  0.00  0.00    -0.008 A 
ATOM     14  S   UNL     1      -4.769  -5.711  -1.629  0.00  0.00    -0.078 S 
ATOM     15  C   UNL     1      -5.821  -4.289  -1.866  0.00  0.00    +0.077 A 
ATOM     16  C   UNL     1      -2.175  -5.496  -0.192  0.00  0.00    +0.052 C 
ATOM     17  C   UNL     1      -3.058  -2.563  -0.005  0.00  0.00    +0.045 C 
BRANCH  15  18
ATOM     18  N   UNL     1      -7.061  -4.208  -2.504  0.00  0.00    -0.275 N 
ATOM     19  C   UNL     1      -7.661  -5.327  -2.955  0.00  0.00    +0.255 C 
ATOM     20  O   UNL     1      -7.170  -6.416  -2.722  0.00  0.00    -0.269 OA
ATOM     21  H   UNL     1      -7.490  -3.346  -2.622  0.00  0.00    +0.156 HD
BRANCH  19  22
ATOM     22  C   UNL     1      -8.903  -5.232  -3.727  0.00  0.00    +0.074 A 
ATOM     23  C   UNL     1      -9.721  -6.249  -4.195  0.00  0.00    +0.021 A 
ATOM     24  C   UNL     1     -10.832  -5.846  -4.896  0.00  0.00    +0.008 A 
ATOM     25  C   UNL     1     -11.051  -4.521  -5.080  0.00  0.00    +0.046 A 
ATOM     26  S   UNL     1      -9.761  -3.778  -4.302  0.00  0.00    -0.092 S 
ENDBRANCH  19  22
ENDBRANCH  15  18
ENDBRANCH   1  11
BRANCH   1  27
ATOM     27  C   UNL     1      -6.007  -1.537   0.191  0.00  0.00    +0.019 A 
ATOM     28  C   UNL     1      -5.126  -0.840   0.997  0.00  0.00    +0.009 A 
ATOM     29  C   UNL     1      -5.479  -0.516   2.294  0.00  0.00    +0.004 A 
ATOM     30  C   UNL     1      -6.715  -0.888   2.790  0.00  0.00    +0.049 A 
ATOM     31  C   UNL     1      -7.602  -1.586   1.988  0.00  0.00    +0.162 A 
ATOM     32  C   UNL     1      -7.249  -1.907   0.680  0.00  0.00    +0.166 A 
BRANCH  32  33
ATOM     33  O   UNL     1      -8.119  -2.587  -0.113  0.00  0.00    -0.491 OA
ATOM     34  C   UNL     1      -8.159  -4.008   0.036  0.00  0.00    +0.277 C 
ENDBRANCH  32  33
BRANCH  31  35
ATOM     35  O   UNL     1      -8.818  -1.952   2.475  0.00  0.00    -0.491 OA
ATOM     36  C   UNL     1      -9.115  -1.584   3.823  0.00  0.00    +0.277 C 
ENDBRANCH  31  35
ENDBRANCH   1  27
TORSDOF 8
