REMARK  Name = ZINC02104950
REMARK  5 active torsions:
REMARK  status: ('A' for Active; 'I' for Inactive)
REMARK    1  A    between atoms: C_1  and  N_42
REMARK    2  A    between atoms: C_8  and  O_23
REMARK    3  A    between atoms: C_10  and  C_12
REMARK    4  A    between atoms: C_13  and  O_22
REMARK    5  A    between atoms: O_23  and  C_24
REMARK                            x       y       z     vdW  Elec       q    Type
REMARK                         _______ _______ _______ _____ _____    ______ ____
ROOT
ATOM      1  C   UNL     1      -0.013   1.086   0.008  0.00  0.00    -0.095 C 
ATOM      2  C   UNL     1      -0.071   1.014   2.430  0.00  0.00    -0.073 C 
ATOM      3  C   UNL     1      -0.572   1.809   3.635  0.00  0.00    +0.017 C 
ATOM      4  C   UNL     1      -2.077   1.886   3.612  0.00  0.00    -0.040 A 
ATOM      5  C   UNL     1      -2.737   2.245   4.777  0.00  0.00    +0.053 A 
ATOM      6  C   UNL     1      -4.119   2.332   4.805  0.00  0.00    +0.170 A 
ATOM      7  C   UNL     1      -4.849   2.057   3.653  0.00  0.00    +0.208 A 
ATOM      8  C   UNL     1      -4.186   1.698   2.489  0.00  0.00    +0.167 A 
ATOM      9  C   UNL     1      -2.797   1.611   2.469  0.00  0.00    -0.008 A 
ATOM     10  C   UNL     1      -2.124   1.210   1.182  0.00  0.00    +0.007 C 
ATOM     11  O   UNL     1      -6.178   2.211   3.932  0.00  0.00    -0.449 OA
ATOM     12  C   UNL     1      -6.274   2.182   5.368  0.00  0.00    +0.467 C 
ATOM     13  O   UNL     1      -4.988   2.657   5.806  0.00  0.00    -0.452 OA
ATOM     14  N   UNL     1      -0.700   1.583   1.221  0.00  0.00    +0.386 N 
ATOM     15  H   UNL     1      -0.622   2.607   1.253  0.00  0.00    -0.081 HD
ENDROOT
BRANCH  10  16
ATOM     16  C   UNL     1      -2.784   1.926   0.032  0.00  0.00    +0.067 A 
ATOM     17  C   UNL     1      -3.480   1.227  -0.909  0.00  0.00    +0.199 A 
ATOM     18  N   UNL     1      -4.073   1.899  -1.947  0.00  0.00    -0.306 N 
ATOM     19  H   UNL     1      -4.570   1.406  -2.619  0.00  0.00    +0.171 HD
ATOM     20  C   UNL     1      -3.971   3.237  -2.040  0.00  0.00    +0.161 A 
ATOM     21  S   UNL     1      -4.721   4.052  -3.346  0.00  0.00    -0.013 S 
ATOM     22  N   UNL     1      -3.289   3.945  -1.121  0.00  0.00    -0.302 N 
ATOM     23  H   UNL     1      -3.223   4.939  -1.210  0.00  0.00    +0.171 HD
ATOM     24  C   UNL     1      -2.696   3.325  -0.083  0.00  0.00    +0.258 A 
ATOM     25  O   UNL     1      -2.083   3.971   0.749  0.00  0.00    -0.267 OA
BRANCH  17  26
ATOM     26  O   UNL     1      -3.584  -0.116  -0.820  0.00  0.00    -0.493 OA
ATOM     27  H   UNL     1      -4.097  -0.519  -1.534  0.00  0.00    +0.294 HD
ENDBRANCH  17  26
ENDBRANCH  10  16
BRANCH   8  28
ATOM     28  O   UNL     1      -4.897   1.430   1.361  0.00  0.00    -0.491 OA
ATOM     29  C   UNL     1      -5.308   0.076   1.160  0.00  0.00    +0.277 C 
ENDBRANCH   8  28
TORSDOF 3
