REMARK  Name = ZINC36498096
REMARK  19 active torsions:
REMARK  status: ('A' for Active; 'I' for Inactive)
REMARK    1  A    between atoms: C_1  and  C_2
REMARK    2  A    between atoms: C_2  and  C_3
REMARK    3  A    between atoms: C_2  and  C_4
REMARK    4  A    between atoms: C_2  and  C_5
REMARK    5  A    between atoms: C_5  and  C_6
REMARK    6  A    between atoms: C_6  and  C_7
REMARK    7  A    between atoms: C_6  and  C_8
REMARK    8  A    between atoms: C_6  and  N_9
REMARK    9  A    between atoms: C_10  and  C_12
REMARK   10  A    between atoms: C_12  and  C_14
REMARK   11  A    between atoms: C_12  and  N_23
REMARK   12  A    between atoms: C_15  and  O_22
REMARK   13  A    between atoms: C_17  and  O_21
REMARK   14  A    between atoms: C_19  and  O_20
REMARK   15  A    between atoms: N_23  and  C_24
REMARK   16  A    between atoms: C_24  and  C_25
REMARK   17  A    between atoms: C_30  and  C_32
REMARK   18  A    between atoms: C_35  and  O_38
REMARK   19  A    between atoms: O_38  and  C_39
REMARK                            x       y       z     vdW  Elec       q    Type
REMARK                         _______ _______ _______ _____ _____    ______ ____
ROOT
ATOM      1  C   UNL     1       5.229  -0.659  -3.885  0.00  0.00    +0.200 C 
ENDROOT
BRANCH   1   2
ATOM      2  C   UNL     1       5.248  -2.163  -3.789  0.00  0.00    +0.065 A 
ATOM      3  C   UNL     1       5.962  -2.784  -2.775  0.00  0.00    +0.129 A 
ATOM      4  C   UNL     1       5.979  -4.167  -2.686  0.00  0.00    +0.091 A 
ATOM      5  C   UNL     1       5.281  -4.930  -3.610  0.00  0.00    +0.124 A 
ATOM      6  C   UNL     1       4.566  -4.309  -4.623  0.00  0.00    +0.091 A 
ATOM      7  C   UNL     1       4.546  -2.925  -4.710  0.00  0.00    +0.129 A 
BRANCH   7   8
ATOM      8  O   UNL     1       3.841  -2.317  -5.700  0.00  0.00    -0.506 OA
ATOM      9  H   UNL     1       4.349  -2.166  -6.508  0.00  0.00    +0.292 HD
ENDBRANCH   7   8
BRANCH   5  10
ATOM     10  O   UNL     1       5.299  -6.286  -3.524  0.00  0.00    -0.507 OA
ATOM     11  H   UNL     1       4.590  -6.655  -2.979  0.00  0.00    +0.292 HD
ENDBRANCH   5  10
BRANCH   3  12
ATOM     12  O   UNL     1       6.646  -2.036  -1.869  0.00  0.00    -0.506 OA
ATOM     13  H   UNL     1       6.155  -1.859  -1.055  0.00  0.00    +0.292 HD
ENDBRANCH   3  12
ENDBRANCH   1   2
BRANCH   1  15
ATOM     14  N   UNL     1       3.278  -0.409  -2.386  0.00  0.00    -0.308 N 
ATOM     15  C   UNL     1       4.556  -0.085  -2.665  0.00  0.00    +0.239 C 
ATOM     16  O   UNL     1       5.165   0.668  -1.935  0.00  0.00    -0.273 OA
ATOM     17  H   UNL     1       2.792  -1.012  -2.970  0.00  0.00    +0.149 HD
BRANCH  14  18
ATOM     18  C   UNL     1       2.624   0.148  -1.199  0.00  0.00    +0.030 C 
ATOM     19  C   UNL     1       2.809   1.667  -1.181  0.00  0.00    +0.031 C 
ATOM     20  C   UNL     1       3.248  -0.457   0.059  0.00  0.00    +0.031 C 
BRANCH  18  21
ATOM     21  C   UNL     1       1.131  -0.183  -1.238  0.00  0.00    +0.031 C 
BRANCH  21  23
ATOM     22  C   UNL     1       0.940  -1.097  -3.555  0.00  0.00    +0.010 C 
ATOM     23  C   UNL     1       0.586   0.080  -2.643  0.00  0.00    -0.036 C 
ATOM     24  C   UNL     1       1.208   1.362  -3.200  0.00  0.00    +0.010 C 
ATOM     25  C   UNL     1      -0.935   0.236  -2.579  0.00  0.00    +0.010 C 
ENDBRANCH  21  23
ENDBRANCH  18  21
ENDBRANCH  14  18
ENDBRANCH   1  15
BRANCH   1  26
ATOM     26  N   UNL     1       6.604  -0.158  -3.966  0.00  0.00    -0.274 N 
ATOM     27  C   UNL     1       6.845   1.165  -3.878  0.00  0.00    +0.248 C 
ATOM     28  O   UNL     1       7.987   1.570  -3.780  0.00  0.00    -0.270 OA
BRANCH  27  29
ATOM     29  C   UNL     1       5.722   2.123  -3.900  0.00  0.00    +0.037 A 
ATOM     30  C   UNL     1       4.419   1.670  -4.122  0.00  0.00    +0.016 A 
ATOM     31  C   UNL     1       3.374   2.567  -4.141  0.00  0.00    +0.046 A 
ATOM     32  C   UNL     1       3.614   3.921  -3.942  0.00  0.00    +0.120 A 
ATOM     33  C   UNL     1       4.909   4.376  -3.722  0.00  0.00    +0.046 A 
ATOM     34  C   UNL     1       5.958   3.485  -3.695  0.00  0.00    +0.016 A 
BRANCH  32  35
ATOM     35  O   UNL     1       2.582   4.802  -3.963  0.00  0.00    -0.495 OA
ATOM     36  C   UNL     1       2.900   6.179  -3.751  0.00  0.00    +0.277 C 
ENDBRANCH  32  35
ENDBRANCH  27  29
BRANCH  26  37
ATOM     37  C   UNL     1       7.716  -1.095  -4.142  0.00  0.00    +0.183 C 
BRANCH  37  38
ATOM     38  C   UNL     1       8.500  -0.718  -5.372  0.00  0.00    +0.122 A 
ATOM     39  C   UNL     1       9.612   0.038  -5.395  0.00  0.00    +0.046 A 
ATOM     40  C   UNL     1      10.013   0.137  -6.747  0.00  0.00    +0.041 A 
ATOM     41  C   UNL     1       9.122  -0.565  -7.470  0.00  0.00    +0.195 A 
ATOM     42  O   UNL     1       8.211  -1.085  -6.631  0.00  0.00    -0.466 OA
ENDBRANCH  37  38
ENDBRANCH  26  37
ENDBRANCH   1  26
TORSDOF 13
