REMARK  Name = ZINC15642948
REMARK  9 active torsions:
REMARK  status: ('A' for Active; 'I' for Inactive)
REMARK    1  A    between atoms: C_1  and  C_2
REMARK    2  A    between atoms: C_2  and  C_4
REMARK    3  A    between atoms: C_2  and  O_13
REMARK    4  A    between atoms: N_9  and  C_10
REMARK    5  A    between atoms: C_10  and  C_11
REMARK    6  A    between atoms: C_10  and  C_12
REMARK    7  A    between atoms: O_13  and  C_14
REMARK    8  A    between atoms: C_14  and  C_16
REMARK    9  A    between atoms: C_21  and  N_22
REMARK                            x       y       z     vdW  Elec       q    Type
REMARK                         _______ _______ _______ _____ _____    ______ ____
ROOT
ATOM      1  O   UNL     1      -1.358  -0.450   0.015  0.00  0.00    -0.449 OA
ENDROOT
BRANCH   1   3
ATOM      2  C   UNL     1      -0.052   1.583  -0.015  0.00  0.00    +0.062 C 
ATOM      3  C   UNL     1      -0.021   0.054   0.006  0.00  0.00    +0.259 C 
BRANCH   3   4
ATOM      4  C   UNL     1       0.702  -0.417   1.242  0.00  0.00    +0.261 C 
ATOM      5  O   UNL     1       0.104  -1.038   2.094  0.00  0.00    -0.271 OA
ATOM      6  N   UNL     1       2.013  -0.147   1.400  0.00  0.00    -0.237 N 
ATOM      7  C   UNL     1       2.659  -0.568   2.505  0.00  0.00    +0.306 C 
ATOM      8  O   UNL     1       2.059  -1.191   3.360  0.00  0.00    -0.252 OA
ATOM      9  N   UNL     1       3.970  -0.298   2.663  0.00  0.00    -0.297 N 
ATOM     10  H   UNL     1       2.491   0.350   0.718  0.00  0.00    +0.159 HD
ATOM     11  H   UNL     1       4.449   0.198   1.981  0.00  0.00    +0.151 HD
BRANCH   9  12
ATOM     12  C   UNL     1       4.673  -0.756   3.865  0.00  0.00    +0.068 C 
ATOM     13  C   UNL     1       5.144  -2.197   3.662  0.00  0.00    +0.027 C 
ATOM     14  C   UNL     1       5.882   0.144   4.122  0.00  0.00    +0.027 C 
ENDBRANCH   9  12
ENDBRANCH   3   4
ENDBRANCH   1   3
BRANCH   1  15
ATOM     15  C   UNL     1      -1.932  -0.683  -1.182  0.00  0.00    +0.342 C 
ATOM     16  O   UNL     1      -1.314  -0.463  -2.205  0.00  0.00    -0.245 OA
BRANCH  15  17
ATOM     17  C   UNL     1      -3.309  -1.202  -1.250  0.00  0.00    +0.082 A 
ATOM     18  C   UNL     1      -3.979  -1.573  -0.080  0.00  0.00    +0.037 A 
ATOM     19  C   UNL     1      -5.267  -2.058  -0.150  0.00  0.00    +0.043 A 
ATOM     20  C   UNL     1      -5.903  -2.183  -1.376  0.00  0.00    +0.042 A 
ATOM     21  C   UNL     1      -5.255  -1.821  -2.540  0.00  0.00    +0.064 A 
ATOM     22  C   UNL     1      -3.957  -1.324  -2.488  0.00  0.00    +0.057 A 
ATOM     23 CL   UNL     1      -6.062  -1.982  -4.068  0.00  0.00    -0.082 Cl
ATOM     24 CL   UNL     1      -6.097  -2.517   1.304  0.00  0.00    -0.083 Cl
BRANCH  22  25
ATOM     25  N   UNL     1      -3.304  -0.954  -3.658  0.00  0.00    -0.356 N 
ATOM     26  H   UNL     1      -2.372  -0.686  -3.629  0.00  0.00    +0.142 HD
ATOM     27  H   UNL     1      -3.781  -0.962  -4.503  0.00  0.00    +0.142 HD
ENDBRANCH  22  25
ENDBRANCH  15  17
ENDBRANCH   1  15
TORSDOF 6
