REMARK  Name = ZINC63750913
REMARK  5 active torsions:
REMARK  status: ('A' for Active; 'I' for Inactive)
REMARK    1  A    between atoms: C_4  and  C_7
REMARK    2  A    between atoms: C_7  and  C_8
REMARK    3  A    between atoms: C_12  and  N_15
REMARK    4  A    between atoms: C_16  and  C_18
REMARK    5  A    between atoms: C_18  and  C_19
REMARK                            x       y       z     vdW  Elec       q    Type
REMARK                         _______ _______ _______ _____ _____    ______ ____
ROOT
ATOM      1  N   UNL     1       4.438  -4.404   3.271  0.00  0.00    -0.290 N 
ATOM      2  C   UNL     1       3.576  -5.093   4.044  0.00  0.00    +0.219 C 
ATOM      3  O   UNL     1       2.808  -4.501   4.773  0.00  0.00    -0.275 OA
ATOM      4  H   UNL     1       5.051  -4.878   2.688  0.00  0.00    +0.151 HD
ENDROOT
BRANCH   1   8
ATOM      5  C   UNL     1       4.171  -0.963   1.399  0.00  0.00    +0.134 C 
ATOM      6  N   UNL     1       5.480  -1.686   1.436  0.00  0.00    -0.241 NA
ATOM      7  N   UNL     1       5.677  -2.401   2.680  0.00  0.00    -0.227 NA
ATOM      8  C   UNL     1       4.447  -2.940   3.310  0.00  0.00    +0.216 C 
ATOM      9  S   UNL     1       3.124  -2.241   2.230  0.00  0.00    -0.101 S 
ATOM     10  H   UNL     1       6.247  -1.055   1.257  0.00  0.00    +0.142 HD
ATOM     11  H   UNL     1       6.375  -3.122   2.576  0.00  0.00    +0.143 HD
BRANCH   5  12
ATOM     12  C   UNL     1       3.711  -0.707  -0.038  0.00  0.00    +0.066 C 
BRANCH  12  16
ATOM     13  C   UNL     1      -0.017   1.378   0.010  0.00  0.00    +0.000 A 
ATOM     14  C   UNL     1       1.171   2.086   0.002  0.00  0.00    +0.000 A 
ATOM     15  C   UNL     1       2.377   1.411  -0.013  0.00  0.00    +0.004 A 
ATOM     16  C   UNL     1       2.396   0.029  -0.020  0.00  0.00    -0.045 A 
ATOM     17  C   UNL     1       1.208  -0.679  -0.012  0.00  0.00    +0.004 A 
ATOM     18  C   UNL     1       0.002  -0.004   0.002  0.00  0.00    +0.000 A 
ENDBRANCH  12  16
ENDBRANCH   5  12
ENDBRANCH   1   8
BRANCH   2  19
ATOM     19  C   UNL     1       3.566  -6.600   4.004  0.00  0.00    +0.129 C 
BRANCH  19  20
ATOM     20  C   UNL     1       2.519  -7.121   4.955  0.00  0.00    -0.033 C 
ATOM     21  C   UNL     1       1.247  -7.469   4.652  0.00  0.00    -0.001 A 
ATOM     22  C   UNL     1       0.487  -7.467   3.397  0.00  0.00    +0.010 A 
ATOM     23  C   UNL     1      -0.800  -7.881   3.408  0.00  0.00    +0.001 A 
ATOM     24  C   UNL     1      -1.425  -8.311   4.586  0.00  0.00    +0.002 A 
ATOM     25  C   UNL     1      -0.792  -8.342   5.778  0.00  0.00    +0.026 A 
ATOM     26  C   UNL     1       0.564  -7.929   5.883  0.00  0.00    +0.043 A 
ATOM     27  N   UNL     1       1.382  -7.867   6.906  0.00  0.00    -0.380 N 
ATOM     28  C   UNL     1       2.679  -7.366   6.438  0.00  0.00    +0.145 C 
ATOM     29  H   UNL     1       1.166  -8.115   7.818  0.00  0.00    +0.160 HD
ENDBRANCH  19  20
ENDBRANCH   2  19
TORSDOF 5
