REMARK  Name = ZINC40800872
REMARK  9 active torsions:
REMARK  status: ('A' for Active; 'I' for Inactive)
REMARK    1  A    between atoms: C_1  and  C_2
REMARK    2  A    between atoms: C_11  and  N_12
REMARK    3  A    between atoms: C_14  and  N_31
REMARK    4  A    between atoms: C_15  and  N_19
REMARK    5  A    between atoms: N_19  and  C_20
REMARK    6  A    between atoms: N_19  and  C_21
REMARK    7  A    between atoms: C_26  and  C_27
REMARK    8  A    between atoms: C_27  and  O_29
REMARK    9  A    between atoms: O_29  and  C_30
REMARK                            x       y       z     vdW  Elec       q    Type
REMARK                         _______ _______ _______ _____ _____    ______ ____
ROOT
ATOM      1  N   UNL     1       0.101  -4.882  -1.147  0.00  0.00    -0.299 N 
ATOM      2  C   UNL     1       0.207  -6.267  -1.089  0.00  0.00    +0.126 A 
ATOM      3  C   UNL     1       0.322  -7.019  -2.260  0.00  0.00    +0.104 A 
ATOM      4  C   UNL     1       0.425  -8.406  -2.145  0.00  0.00    +0.151 A 
ATOM      5  N   UNL     1       0.409  -8.956  -0.933  0.00  0.00    -0.220 NA
ATOM      6  C   UNL     1       0.299  -8.209   0.147  0.00  0.00    +0.200 A 
ATOM      7  N   UNL     1       0.205  -6.896   0.083  0.00  0.00    -0.333 N 
ATOM      8  H   UNL     1       0.013  -4.438  -2.005  0.00  0.00    +0.154 HD
ATOM      9  H   UNL     1       0.130  -6.382   0.902  0.00  0.00    +0.168 HD
ENDROOT
BRANCH   1  20
ATOM     10  C   UNL     1       4.738  -3.716   3.244  0.00  0.00    +0.065 C 
ATOM     11  C   UNL     1       3.512  -3.835   2.376  0.00  0.00    +0.039 A 
ATOM     12  C   UNL     1       3.575  -4.605   1.217  0.00  0.00    +0.024 A 
ATOM     13  C   UNL     1       2.473  -4.724   0.417  0.00  0.00    +0.013 A 
ATOM     14  C   UNL     1       1.299  -4.055   0.801  0.00  0.00    +0.022 A 
ATOM     15  C   UNL     1       1.302  -3.288   1.992  0.00  0.00    +0.073 A 
ATOM     16  N   UNL     1       2.413  -3.216   2.734  0.00  0.00    -0.252 NA
ATOM     17  C   UNL     1       0.130  -2.617   2.380  0.00  0.00    +0.028 A 
ATOM     18  C   UNL     1      -0.993  -2.707   1.613  0.00  0.00    +0.004 A 
ATOM     19  C   UNL     1      -1.007  -3.458   0.443  0.00  0.00    +0.024 A 
ATOM     20  C   UNL     1       0.122  -4.132   0.026  0.00  0.00    +0.042 A 
ENDBRANCH   1  20
BRANCH   3  21
ATOM     21  N   UNL     1       0.334  -6.397  -3.518  0.00  0.00    -0.353 N 
ATOM     22  H   UNL     1       0.333  -5.429  -3.581  0.00  0.00    +0.143 HD
ATOM     23  H   UNL     1       0.343  -6.935  -4.325  0.00  0.00    +0.143 HD
ENDBRANCH   3  21
BRANCH   4  24
ATOM     24  N   UNL     1       0.541  -9.203  -3.280  0.00  0.00    -0.286 N 
ATOM     25  C   UNL     1       1.855  -9.419  -3.891  0.00  0.00    +0.137 C 
BRANCH  24  26
ATOM     26  C   UNL     1      -0.588  -9.793  -3.833  0.00  0.00    +0.049 A 
ATOM     27  C   UNL     1      -1.317  -9.126  -4.810  0.00  0.00    +0.024 A 
ATOM     28  C   UNL     1      -2.438  -9.715  -5.358  0.00  0.00    +0.002 A 
ATOM     29  C   UNL     1      -2.846 -10.972  -4.941  0.00  0.00    +0.001 A 
ATOM     30  C   UNL     1      -2.137 -11.649  -3.973  0.00  0.00    +0.017 A 
ATOM     31  C   UNL     1      -0.996 -11.069  -3.412  0.00  0.00    +0.080 A 
BRANCH  31  32
ATOM     32  C   UNL     1      -0.229 -11.790  -2.381  0.00  0.00    +0.341 C 
ATOM     33  O   UNL     1       0.760 -11.280  -1.893  0.00  0.00    -0.245 OA
BRANCH  32  34
ATOM     34  O   UNL     1      -0.624 -13.014  -1.980  0.00  0.00    -0.464 OA
ATOM     35  C   UNL     1       0.167 -13.655  -0.977  0.00  0.00    +0.280 C 
ENDBRANCH  32  34
ENDBRANCH  31  32
ENDBRANCH  24  26
ENDBRANCH   4  24
TORSDOF 6
