REMARK  Name = ZINC47835328
REMARK  10 active torsions:
REMARK  status: ('A' for Active; 'I' for Inactive)
REMARK    1  A    between atoms: C_1  and  C_2
REMARK    2  A    between atoms: C_2  and  C_4
REMARK    3  A    between atoms: C_2  and  N_14
REMARK    4  A    between atoms: C_8  and  S_10
REMARK    5  A    between atoms: S_10  and  N_13
REMARK    6  A    between atoms: N_17  and  C_18
REMARK    7  A    between atoms: C_18  and  C_19
REMARK    8  A    between atoms: C_19  and  N_24
REMARK    9  A    between atoms: N_24  and  C_25
REMARK   10  A    between atoms: N_24  and  C_26
REMARK                            x       y       z     vdW  Elec       q    Type
REMARK                         _______ _______ _______ _____ _____    ______ ____
ROOT
ATOM      1  N   UNL     1       0.611  -0.006   1.374  0.00  0.00    -0.293 N 
ATOM      2  C   UNL     1      -0.037  -0.332   2.510  0.00  0.00    +0.300 C 
ATOM      3  O   UNL     1      -1.238  -0.159   2.596  0.00  0.00    -0.253 OA
ATOM      4  N   UNL     1       0.645  -0.851   3.550  0.00  0.00    -0.301 N 
ATOM      5  H   UNL     1       1.569  -0.145   1.306  0.00  0.00    +0.151 HD
ATOM      6  H   UNL     1       1.603  -0.990   3.481  0.00  0.00    +0.150 HD
ENDROOT
BRANCH   1   8
ATOM      7  C   UNL     1      -0.267   2.071   0.427  0.00  0.00    +0.033 C 
ATOM      8  C   UNL     1      -0.130   0.558   0.244  0.00  0.00    +0.102 C 
BRANCH   8   9
ATOM      9  C   UNL     1       0.612   0.272  -1.036  0.00  0.00    -0.026 A 
ATOM     10  C   UNL     1       1.991   0.360  -1.071  0.00  0.00    +0.005 A 
ATOM     11  C   UNL     1       2.671   0.098  -2.245  0.00  0.00    +0.002 A 
ATOM     12  C   UNL     1       1.973  -0.253  -3.385  0.00  0.00    +0.028 A 
ATOM     13  C   UNL     1       0.594  -0.342  -3.350  0.00  0.00    +0.105 A 
ATOM     14  C   UNL     1      -0.087  -0.084  -2.175  0.00  0.00    +0.034 A 
BRANCH  13  15
ATOM     15  S   UNL     1      -0.297  -0.789  -4.804  0.00  0.00    +0.056 S 
ATOM     16  O   UNL     1      -1.611  -0.271  -4.650  0.00  0.00    -0.153 OA
ATOM     17  O   UNL     1       0.531  -0.451  -5.908  0.00  0.00    -0.153 OA
BRANCH  15  18
ATOM     18  N   UNL     1      -0.435  -2.439  -4.805  0.00  0.00    -0.204 NA
ATOM     19  H   UNL     1      -0.053  -2.959  -4.080  0.00  0.00    +0.144 HD
ATOM     20  H   UNL     1      -0.899  -2.887  -5.530  0.00  0.00    +0.144 HD
ENDBRANCH  15  18
ENDBRANCH  13  15
ENDBRANCH   8   9
ENDBRANCH   1   8
BRANCH   4  21
ATOM     21  C   UNL     1      -0.060  -1.206   4.785  0.00  0.00    +0.094 C 
BRANCH  21  22
ATOM     22  C   UNL     1       0.917  -1.872   5.756  0.00  0.00    -0.050 C 
ATOM     23  C   UNL     1       1.427  -3.202   5.163  0.00  0.00    -0.010 C 
ATOM     24  C   UNL     1       1.533  -4.147   6.386  0.00  0.00    -0.001 C 
ATOM     25  C   UNL     1       0.294  -3.756   7.228  0.00  0.00    -0.001 C 
ATOM     26  C   UNL     1       0.196  -2.224   7.069  0.00  0.00    -0.010 C 
BRANCH  22  27
ATOM     27  N   UNL     1       2.047  -0.974   6.027  0.00  0.00    +0.381 N 
ATOM     28  C   UNL     1       1.554   0.257   6.658  0.00  0.00    -0.096 C 
ATOM     29  C   UNL     1       2.996  -1.641   6.929  0.00  0.00    -0.096 C 
ATOM     30  H   UNL     1       2.511  -0.746   5.161  0.00  0.00    -0.082 HD
ENDBRANCH  22  27
ENDBRANCH  21  22
ENDBRANCH   4  21
TORSDOF 7
