REMARK  Name = ZINC35454840
REMARK  17 active torsions:
REMARK  status: ('A' for Active; 'I' for Inactive)
REMARK    1  A    between atoms: C_1  and  C_2
REMARK    2  A    between atoms: C_2  and  C_3
REMARK    3  A    between atoms: C_3  and  C_4
REMARK    4  A    between atoms: C_4  and  C_5
REMARK    5  A    between atoms: C_5  and  C_6
REMARK    6  A    between atoms: C_6  and  C_8
REMARK    7  A    between atoms: C_6  and  O_10
REMARK    8  A    between atoms: O_10  and  C_11
REMARK    9  A    between atoms: C_13  and  O_39
REMARK   10  A    between atoms: C_15  and  O_38
REMARK   11  A    between atoms: C_17  and  O_37
REMARK   12  A    between atoms: C_19  and  C_22
REMARK   13  A    between atoms: C_22  and  O_23
REMARK   14  A    between atoms: O_23  and  C_24
REMARK   15  A    between atoms: C_26  and  O_36
REMARK   16  A    between atoms: C_28  and  O_35
REMARK   17  A    between atoms: C_30  and  O_34
REMARK                            x       y       z     vdW  Elec       q    Type
REMARK                         _______ _______ _______ _____ _____    ______ ____
ROOT
ATOM      1  C   UNL     1       1.851  -5.790  -0.927  0.00  0.00    +0.282 C 
ATOM      2  C   UNL     1       2.593  -6.081   0.380  0.00  0.00    +0.201 C 
ATOM      3  C   UNL     1       2.188  -7.467   0.891  0.00  0.00    +0.179 C 
ATOM      4  C   UNL     1       2.492  -8.507  -0.193  0.00  0.00    +0.177 C 
ATOM      5  C   UNL     1       1.754  -8.123  -1.478  0.00  0.00    +0.178 C 
ATOM      6  O   UNL     1       2.152  -6.811  -1.881  0.00  0.00    -0.341 OA
ENDROOT
BRANCH   2   7
ATOM      7  O   UNL     1       4.002  -6.049   0.147  0.00  0.00    -0.384 OA
ATOM      8  H   UNL     1       4.327  -5.200  -0.183  0.00  0.00    +0.210 HD
ENDBRANCH   2   7
BRANCH   3   9
ATOM      9  O   UNL     1       2.929  -7.776   2.073  0.00  0.00    -0.386 OA
ATOM     10  H   UNL     1       2.789  -7.153   2.799  0.00  0.00    +0.210 HD
ENDBRANCH   3   9
BRANCH   4  11
ATOM     11  O   UNL     1       3.899  -8.541  -0.440  0.00  0.00    -0.386 OA
ATOM     12  H   UNL     1       4.429  -8.774   0.334  0.00  0.00    +0.210 HD
ENDBRANCH   4  11
BRANCH   5  13
ATOM     13  C   UNL     1       2.099  -9.123  -2.583  0.00  0.00    +0.197 C 
BRANCH  13  14
ATOM     14  O   UNL     1       1.322  -8.834  -3.747  0.00  0.00    -0.346 OA
BRANCH  14  15
ATOM     15  C   UNL     1       1.570  -9.716  -4.844  0.00  0.00    +0.281 C 
ATOM     16  C   UNL     1       0.883  -9.173  -6.100  0.00  0.00    +0.201 C 
ATOM     17  C   UNL     1       1.102 -10.153  -7.256  0.00  0.00    +0.178 C 
ATOM     18  C   UNL     1       0.569 -11.530  -6.852  0.00  0.00    +0.171 C 
ATOM     19  C   UNL     1       1.268 -11.982  -5.567  0.00  0.00    +0.197 C 
ATOM     20  O   UNL     1       1.050 -11.012  -4.541  0.00  0.00    -0.346 OA
BRANCH  16  21
ATOM     21  O   UNL     1      -0.517  -9.028  -5.854  0.00  0.00    -0.384 OA
ATOM     22  H   UNL     1      -0.729  -8.424  -5.129  0.00  0.00    +0.210 HD
ENDBRANCH  16  21
BRANCH  17  23
ATOM     23  O   UNL     1       0.405  -9.690  -8.414  0.00  0.00    -0.386 OA
ATOM     24  H   UNL     1       0.500 -10.264  -9.187  0.00  0.00    +0.210 HD
ENDBRANCH  17  23
BRANCH  18  25
ATOM     25  O   UNL     1      -0.840 -11.450  -6.627  0.00  0.00    -0.387 OA
ATOM     26  H   UNL     1      -1.246 -12.289  -6.367  0.00  0.00    +0.210 HD
ENDBRANCH  18  25
ENDBRANCH  14  15
ENDBRANCH  13  14
ENDBRANCH   5  13
BRANCH   1  27
ATOM     27  O   UNL     1       2.265  -4.522  -1.439  0.00  0.00    -0.341 OA
BRANCH  27  28
ATOM     28  C   UNL     1       1.476  -4.051  -2.532  0.00  0.00    +0.144 C 
BRANCH  28  29
ATOM     29  C   UNL     1       2.071  -4.538  -3.829  0.00  0.00    -0.003 C 
ATOM     30  C   UNL     1       3.094  -5.356  -3.813  0.00  0.00    +0.006 C 
ENDBRANCH  28  29
BRANCH  28  31
ATOM     31  C   UNL     1       1.455  -2.521  -2.524  0.00  0.00    +0.036 C 
BRANCH  31  32
ATOM     32  C   UNL     1       0.739  -2.027  -1.265  0.00  0.00    +0.003 C 
BRANCH  32  33
ATOM     33  C   UNL     1       0.718  -0.497  -1.257  0.00  0.00    -0.000 C 
BRANCH  33  35
ATOM     34  C   UNL     1      -0.019   1.526   0.010  0.00  0.00    +0.004 C 
ATOM     35  C   UNL     1       0.002  -0.004   0.002  0.00  0.00    -0.003 C 
ENDBRANCH  33  35
ENDBRANCH  32  33
ENDBRANCH  31  32
ENDBRANCH  28  31
ENDBRANCH  27  28
ENDBRANCH   1  27
TORSDOF 16
