REMARK  Name = ZINC43096150
REMARK  6 active torsions:
REMARK  status: ('A' for Active; 'I' for Inactive)
REMARK    1  A    between atoms: C_1  and  C_2
REMARK    2  A    between atoms: C_2  and  C_4
REMARK    3  A    between atoms: C_2  and  N_21
REMARK    4  A    between atoms: C_4  and  C_6
REMARK    5  A    between atoms: C_4  and  S_13
REMARK    6  A    between atoms: S_13  and  C_14
REMARK                            x       y       z     vdW  Elec       q    Type
REMARK                         _______ _______ _______ _____ _____    ______ ____
ROOT
ATOM      1  C   UNL     1       0.850  -0.513   1.170  0.00  0.00    +0.070 C 
ENDROOT
BRANCH   1   2
ATOM      2  C   UNL     1       1.063  -1.964   0.825  0.00  0.00    -0.022 A 
ATOM      3  C   UNL     1       2.175  -2.346   0.098  0.00  0.00    +0.006 A 
ATOM      4  C   UNL     1       2.371  -3.677  -0.219  0.00  0.00    +0.000 A 
ATOM      5  C   UNL     1       1.455  -4.628   0.192  0.00  0.00    +0.001 A 
ATOM      6  C   UNL     1       0.343  -4.247   0.919  0.00  0.00    +0.015 A 
ATOM      7  C   UNL     1       0.149  -2.916   1.240  0.00  0.00    +0.022 A 
ATOM      8 BR   UNL     1      -1.369  -2.395   2.241  0.00  0.00    -0.050 Br
ENDBRANCH   1   2
BRANCH   1  10
ATOM      9  C   UNL     1      -0.309   1.595   0.495  0.00  0.00    -0.013 C 
ATOM     10  C   UNL     1      -0.070   0.129   0.129  0.00  0.00    -0.060 C 
BRANCH  10  11
ATOM     11  N   UNL     1       0.560   0.051  -1.196  0.00  0.00    +0.381 N 
ATOM     12  H   UNL     1       0.717  -0.916  -1.437  0.00  0.00    -0.090 HD
ATOM     13  H   UNL     1      -0.047   0.474  -1.882  0.00  0.00    -0.090 HD
ATOM     14  H   UNL     1       1.442   0.541  -1.178  0.00  0.00    -0.090 HD
ENDBRANCH  10  11
ENDBRANCH   1  10
BRANCH   1  15
ATOM     15  S   UNL     1       2.446   0.348   1.178  0.00  0.00    -0.081 S 
BRANCH  15  16
ATOM     16  C   UNL     1       3.292  -0.335   2.565  0.00  0.00    +0.169 A 
ATOM     17  N   UNL     1       2.661  -1.183   3.356  0.00  0.00    -0.232 NA
ATOM     18  C   UNL     1       3.263  -1.721   4.413  0.00  0.00    +0.119 A 
ATOM     19  C   UNL     1       4.558  -1.401   4.701  0.00  0.00    +0.090 A 
ATOM     20  C   UNL     1       5.238  -0.499   3.864  0.00  0.00    +0.252 A 
ATOM     21  N   UNL     1       4.586   0.017   2.800  0.00  0.00    -0.302 N 
ATOM     22  O   UNL     1       6.396  -0.191   4.092  0.00  0.00    -0.268 OA
ATOM     23  H   UNL     1       5.037   0.638   2.207  0.00  0.00    +0.171 HD
ENDBRANCH  15  16
ENDBRANCH   1  15
TORSDOF 5
