REMARK  Name = ZINC14156533
REMARK  10 active torsions:
REMARK  status: ('A' for Active; 'I' for Inactive)
REMARK    1  A    between atoms: C_1  and  C_2
REMARK    2  A    between atoms: C_4  and  C_36
REMARK    3  A    between atoms: N_10  and  C_11
REMARK    4  A    between atoms: C_11  and  N_13
REMARK    5  A    between atoms: N_13  and  C_14
REMARK    6  A    between atoms: C_17  and  N_20
REMARK    7  A    between atoms: N_20  and  C_21
REMARK    8  A    between atoms: N_27  and  C_28
REMARK    9  A    between atoms: C_28  and  C_29
REMARK   10  A    between atoms: C_29  and  C_30
REMARK                            x       y       z     vdW  Elec       q    Type
REMARK                         _______ _______ _______ _____ _____    ______ ____
ROOT
ATOM      1  C   UNL     1       0.278  -7.717   5.899  0.00  0.00    +0.066 C 
ATOM      2  C   UNL     1      -0.544  -7.242   4.728  0.00  0.00    +0.044 A 
ATOM      3  C   UNL     1      -0.798  -8.088   3.660  0.00  0.00    +0.046 A 
ATOM      4  C   UNL     1      -1.558  -7.611   2.603  0.00  0.00    +0.044 A 
ATOM      5  N   UNL     1      -2.017  -6.371   2.647  0.00  0.00    -0.217 NA
ATOM      6  C   UNL     1      -1.756  -5.589   3.683  0.00  0.00    +0.231 A 
ATOM      7  N   UNL     1      -1.038  -6.015   4.710  0.00  0.00    -0.217 NA
ATOM      8  N   UNL     1      -2.254  -4.293   3.695  0.00  0.00    -0.297 N 
ATOM      9  C   UNL     1      -1.899  -3.433   4.699  0.00  0.00    +0.195 C 
ATOM     10  N   UNL     1      -1.003  -3.801   5.599  0.00  0.00    -0.159 NA
ATOM     11  N   UNL     1      -2.469  -2.195   4.772  0.00  0.00    -0.357 N 
ATOM     12  C   UNL     1      -1.859  -8.495   1.420  0.00  0.00    +0.066 C 
ATOM     13  H   UNL     1      -2.853  -3.996   2.992  0.00  0.00    +0.171 HD
ATOM     14  H   UNL     1      -2.160  -1.556   5.433  0.00  0.00    +0.162 HD
ENDROOT
BRANCH  10  15
ATOM     15  C   UNL     1      -0.646  -2.954   6.575  0.00  0.00    +0.161 C 
ATOM     16  S   UNL     1      -1.793  -2.473   7.752  0.00  0.00    -0.016 S 
BRANCH  15  17
ATOM     17  N   UNL     1       0.615  -2.482   6.631  0.00  0.00    -0.295 N 
ATOM     18  H   UNL     1       1.242  -2.688   5.920  0.00  0.00    +0.154 HD
BRANCH  17  19
ATOM     19  C   UNL     1       1.021  -1.693   7.715  0.00  0.00    +0.033 A 
ATOM     20  C   UNL     1       0.604  -2.014   9.001  0.00  0.00    +0.025 A 
ATOM     21  C   UNL     1       1.004  -1.236  10.069  0.00  0.00    +0.025 A 
ATOM     22  C   UNL     1       1.823  -0.134   9.859  0.00  0.00    +0.031 A 
ATOM     23  C   UNL     1       2.239   0.186   8.573  0.00  0.00    +0.025 A 
ATOM     24  C   UNL     1       1.844  -0.595   7.505  0.00  0.00    +0.025 A 
BRANCH  22  25
ATOM     25  N   UNL     1       2.228   0.654  10.942  0.00  0.00    -0.314 N 
ATOM     26  H   UNL     1       2.310   0.260  11.825  0.00  0.00    +0.152 HD
BRANCH  25  27
ATOM     27  C   UNL     1       2.513   2.008  10.752  0.00  0.00    +0.031 A 
ATOM     28  C   UNL     1       1.878   2.719   9.741  0.00  0.00    +0.023 A 
ATOM     29  C   UNL     1       2.163   4.057   9.556  0.00  0.00    +0.002 A 
ATOM     30  C   UNL     1       3.079   4.690  10.376  0.00  0.00    +0.000 A 
ATOM     31  C   UNL     1       3.713   3.986  11.383  0.00  0.00    +0.002 A 
ATOM     32  C   UNL     1       3.429   2.649  11.578  0.00  0.00    +0.023 A 
ENDBRANCH  25  27
ENDBRANCH  22  25
ENDBRANCH  17  19
ENDBRANCH  15  17
ENDBRANCH  10  15
BRANCH  11  33
ATOM     33  C   UNL     1      -3.549  -1.831   3.851  0.00  0.00    +0.121 C 
BRANCH  33  34
ATOM     34  C   UNL     1      -3.932  -0.365   4.067  0.00  0.00    +0.075 C 
BRANCH  34  35
ATOM     35  C   UNL     1      -4.958   0.042   3.041  0.00  0.00    +0.035 A 
ATOM     36  C   UNL     1      -4.700   0.583   1.835  0.00  0.00    +0.105 A 
ATOM     37  N   UNL     1      -5.910   0.797   1.230  0.00  0.00    -0.352 N 
ATOM     38  H   UNL     1      -6.053   1.177   0.350  0.00  0.00    +0.166 HD
ATOM     39  C   UNL     1      -6.865   0.380   2.089  0.00  0.00    +0.171 A 
ATOM     40  N   UNL     1      -6.288  -0.075   3.168  0.00  0.00    -0.350 N 
ATOM     41  H   UNL     1      -6.749  -0.439   3.940  0.00  0.00    +0.166 HD
ENDBRANCH  34  35
ENDBRANCH  33  34
ENDBRANCH  11  33
TORSDOF 8
