REMARK  Name = ZINC06759413
REMARK  10 active torsions:
REMARK  status: ('A' for Active; 'I' for Inactive)
REMARK    1  A    between atoms: C_1  and  C_2
REMARK    2  A    between atoms: C_2  and  C_3
REMARK    3  A    between atoms: C_2  and  N_4
REMARK    4  A    between atoms: C_12  and  C_14
REMARK    5  A    between atoms: C_12  and  C_15
REMARK    6  A    between atoms: N_18  and  C_21
REMARK    7  A    between atoms: C_21  and  C_22
REMARK    8  A    between atoms: N_24  and  C_25
REMARK    9  A    between atoms: C_25  and  C_26
REMARK   10  A    between atoms: C_26  and  N_53
REMARK                            x       y       z     vdW  Elec       q    Type
REMARK                         _______ _______ _______ _____ _____    ______ ____
ROOT
ATOM      1  N   UNL     1      -0.749   3.044   1.275  0.00  0.00    -0.285 N 
ATOM      2  C   UNL     1      -1.946   3.706   1.290  0.00  0.00    +0.097 A 
ATOM      3  C   UNL     1      -2.005   5.101   1.298  0.00  0.00    +0.074 A 
ATOM      4  C   UNL     1      -3.347   5.677   1.314  0.00  0.00    -0.018 A 
ATOM      5  C   UNL     1      -4.370   4.796   1.319  0.00  0.00    +0.021 A 
ATOM      6  S   UNL     1      -3.596   3.206   1.303  0.00  0.00    -0.073 S 
ATOM      7  C   UNL     1      -5.828   5.136   1.335  0.00  0.00    +0.203 C 
ATOM      8  O   UNL     1      -5.951   6.529   1.666  0.00  0.00    -0.368 OA
ATOM      9  C   UNL     1      -5.093   7.378   0.899  0.00  0.00    +0.068 C 
ATOM     10  C   UNL     1      -3.634   7.174   1.323  0.00  0.00    +0.071 C 
ATOM     11  C   UNL     1      -5.489   8.838   1.128  0.00  0.00    +0.041 C 
ATOM     12  C   UNL     1      -5.243   7.038  -0.585  0.00  0.00    +0.041 C 
ATOM     13  C   UNL     1      -0.700   5.797   1.289  0.00  0.00    +0.266 A 
ATOM     14  O   UNL     1      -0.650   7.013   1.295  0.00  0.00    -0.267 OA
ATOM     15  N   UNL     1       0.432   5.070   1.274  0.00  0.00    -0.251 N 
ATOM     16  C   UNL     1       0.412   3.728   1.273  0.00  0.00    +0.333 A 
ATOM     17  O   UNL     1       1.463   3.116   1.265  0.00  0.00    -0.246 OA
ENDROOT
BRANCH   1  19
ATOM     18  C   UNL     1      -0.013   1.086   0.008  0.00  0.00    +0.031 C 
ATOM     19  C   UNL     1      -0.729   1.579   1.267  0.00  0.00    +0.087 C 
ATOM     20  C   UNL     1       0.011   1.072   2.506  0.00  0.00    +0.031 C 
ENDBRANCH   1  19
BRANCH  15  21
ATOM     21  C   UNL     1       1.723   5.763   1.265  0.00  0.00    +0.225 C 
BRANCH  21  22
ATOM     22  C   UNL     1       2.179   5.994   2.683  0.00  0.00    +0.233 C 
ATOM     23  O   UNL     1       1.494   5.616   3.610  0.00  0.00    -0.274 OA
ATOM     24  N   UNL     1       3.349   6.619   2.921  0.00  0.00    -0.316 N 
ATOM     25  H   UNL     1       3.897   6.921   2.179  0.00  0.00    +0.149 HD
BRANCH  24  26
ATOM     26  C   UNL     1       3.793   6.843   4.299  0.00  0.00    +0.085 C 
BRANCH  26  27
ATOM     27  C   UNL     1       5.141   7.567   4.289  0.00  0.00    -0.067 C 
BRANCH  27  30
ATOM     28  H   UNL     1       5.630   6.923   6.182  0.00  0.00    -0.090 HD
ATOM     29  H   UNL     1       6.475   8.269   5.691  0.00  0.00    -0.090 HD
ATOM     30  N   UNL     1       5.567   7.806   5.679  0.00  0.00    +0.379 N 
ATOM     31  H   UNL     1       4.878   8.409   6.144  0.00  0.00    -0.090 HD
ENDBRANCH  27  30
ENDBRANCH  26  27
ENDBRANCH  24  26
ENDBRANCH  21  22
ENDBRANCH  15  21
TORSDOF 6
