REMARK  Name = ZINC43406841
REMARK  1 active torsions:
REMARK  status: ('A' for Active; 'I' for Inactive)
REMARK    1  A    between atoms: C_6  and  C_7
REMARK                            x       y       z     vdW  Elec       q    Type
REMARK                         _______ _______ _______ _____ _____    ______ ____
ROOT
ATOM      1  C   UNL     1      -0.017   1.393  -0.059  0.00  0.00    +0.020 A 
ATOM      2  C   UNL     1       1.191   2.066  -0.137  0.00  0.00    -0.025 A 
ATOM      3  C   UNL     1       2.376   1.353  -0.078  0.00  0.00    +0.047 A 
ATOM      4  N   UNL     1       2.364   0.036   0.052  0.00  0.00    -0.232 NA
ATOM      5  C   UNL     1       1.241  -0.652   0.131  0.00  0.00    +0.166 A 
ATOM      6  C   UNL     1       0.001   0.002   0.077  0.00  0.00    +0.057 A 
ATOM      7  N   UNL     1       1.287  -2.039   0.268  0.00  0.00    -0.202 N 
ATOM      8  C   UNL     1       2.276  -2.860  -0.142  0.00  0.00    +0.226 A 
ATOM      9  N   UNL     1       1.940  -4.085   0.171  0.00  0.00    -0.222 NA
ATOM     10  C   UNL     1       0.752  -4.088   0.776  0.00  0.00    +0.245 A 
ATOM     11  N   UNL     1       0.315  -2.860   0.864  0.00  0.00    -0.152 NA
ATOM     12  C   UNL     1       3.548   2.309  -0.183  0.00  0.00    +0.056 C 
ATOM     13  C   UNL     1       2.955   3.616  -0.750  0.00  0.00    +0.011 C 
ATOM     14  C   UNL     1       1.485   3.542  -0.286  0.00  0.00    +0.037 C 
ENDROOT
BRANCH   6  15
ATOM     15  C   UNL     1      -1.259  -0.764   0.166  0.00  0.00    +0.098 C 
ATOM     16  N   UNL     1      -2.146  -0.480   1.119  0.00  0.00    -0.387 N 
ATOM     17  N   UNL     1      -1.510  -1.738  -0.708  0.00  0.00    -0.344 N 
ATOM     18  H   UNL     1      -2.939  -1.028   1.222  0.00  0.00    +0.157 HD
ATOM     19  H   UNL     1      -0.864  -1.945  -1.402  0.00  0.00    +0.144 HD
ATOM     20  H   UNL     1      -2.337  -2.241  -0.650  0.00  0.00    +0.144 HD
ATOM     21  H   UNL     1      -1.998   0.275   1.709  0.00  0.00    +0.157 HD
ENDBRANCH   6  15
TORSDOF 1
