REMARK  Name = ZINC38726440
REMARK  11 active torsions:
REMARK  status: ('A' for Active; 'I' for Inactive)
REMARK    1  A    between atoms: C_1  and  C_2
REMARK    2  A    between atoms: C_2  and  N_3
REMARK    3  A    between atoms: N_3  and  C_4
REMARK    4  A    between atoms: N_3  and  C_6
REMARK    5  A    between atoms: C_4  and  C_5
REMARK    6  A    between atoms: C_6  and  C_7
REMARK    7  A    between atoms: C_7  and  N_8
REMARK    8  A    between atoms: C_9  and  C_27
REMARK    9  A    between atoms: C_17  and  O_24
REMARK   10  A    between atoms: O_24  and  C_25
REMARK   11  A    between atoms: C_25  and  C_26
REMARK                            x       y       z     vdW  Elec       q    Type
REMARK                         _______ _______ _______ _____ _____    ______ ____
ROOT
ATOM      1  N   UNL     1       1.715  -4.041   2.433  0.00  0.00    -0.285 N 
ATOM      2  C   UNL     1       0.730  -5.064   2.820  0.00  0.00    +0.144 C 
ATOM      3  C   UNL     1       1.380  -6.380   2.548  0.00  0.00    +0.072 A 
ATOM      4  C   UNL     1       0.900  -7.753   2.739  0.00  0.00    +0.199 A 
ATOM      5  O   UNL     1      -0.255  -8.023   3.021  0.00  0.00    -0.287 OA
ATOM      6  C   UNL     1       1.952  -8.782   2.557  0.00  0.00    +0.065 A 
ATOM      7  C   UNL     1       1.705 -10.113   2.899  0.00  0.00    +0.019 A 
ATOM      8  C   UNL     1       2.683 -11.049   2.731  0.00  0.00    +0.046 A 
ATOM      9  C   UNL     1       3.927 -10.679   2.221  0.00  0.00    +0.124 A 
ATOM     10  C   UNL     1       4.186  -9.365   1.877  0.00  0.00    +0.092 A 
ATOM     11  C   UNL     1       3.200  -8.395   2.038  0.00  0.00    +0.143 A 
ATOM     12  O   UNL     1       3.473  -7.118   1.686  0.00  0.00    -0.449 OA
ATOM     13  C   UNL     1       2.625  -6.133   2.043  0.00  0.00    +0.199 A 
ATOM     14  C   UNL     1       2.815  -4.674   1.976  0.00  0.00    +0.283 C 
ATOM     15  O   UNL     1       3.819  -4.121   1.572  0.00  0.00    -0.267 OA
ENDROOT
BRANCH   2  16
ATOM     16  C   UNL     1       0.400  -4.938   4.285  0.00  0.00    -0.021 A 
ATOM     17  C   UNL     1       1.399  -4.655   5.197  0.00  0.00    +0.006 A 
ATOM     18  C   UNL     1       1.097  -4.540   6.541  0.00  0.00    +0.001 A 
ATOM     19  C   UNL     1      -0.205  -4.708   6.974  0.00  0.00    +0.015 A 
ATOM     20  C   UNL     1      -1.205  -4.991   6.062  0.00  0.00    +0.018 A 
ATOM     21  C   UNL     1      -0.903  -5.101   4.716  0.00  0.00    +0.021 A 
ATOM     22 BR   UNL     1      -2.987  -5.222   6.653  0.00  0.00    -0.050 Br
ENDBRANCH   2  16
BRANCH   1  23
ATOM     23  C   UNL     1       1.531  -2.591   2.521  0.00  0.00    +0.090 C 
BRANCH  23  24
ATOM     24  C   UNL     1       0.921  -2.074   1.216  0.00  0.00    -0.060 C 
BRANCH  24  25
ATOM     25  N   UNL     1       0.623  -0.641   1.349  0.00  0.00    +0.380 N 
ATOM     26  H   UNL     1       0.036  -0.493   2.156  0.00  0.00    -0.082 HD
BRANCH  25  28
ATOM     27  C   UNL     1       1.561   1.581   1.774  0.00  0.00    -0.017 C 
ATOM     28  C   UNL     1       1.877   0.107   1.512  0.00  0.00    -0.082 C 
ENDBRANCH  25  28
BRANCH  25  29
ATOM     29  C   UNL     1      -0.074  -0.172   0.144  0.00  0.00    -0.082 C 
ATOM     30  C   UNL     1      -1.450  -0.837   0.059  0.00  0.00    -0.017 C 
ENDBRANCH  25  29
ENDBRANCH  24  25
ENDBRANCH  23  24
ENDBRANCH   1  23
BRANCH   9  31
ATOM     31  O   UNL     1       4.894 -11.619   2.061  0.00  0.00    -0.492 OA
BRANCH  31  32
ATOM     32  C   UNL     1       4.565 -12.958   2.435  0.00  0.00    +0.225 C 
ATOM     33  C   UNL     1       5.770 -13.867   2.185  0.00  0.00    +0.048 C 
ENDBRANCH  31  32
ENDBRANCH   9  31
TORSDOF 8
