REMARK  Name = ZINC13408082
REMARK  14 active torsions:
REMARK  status: ('A' for Active; 'I' for Inactive)
REMARK    1  A    between atoms: C_1  and  C_2
REMARK    2  A    between atoms: C_2  and  O_3
REMARK    3  A    between atoms: O_3  and  C_4
REMARK    4  A    between atoms: C_4  and  C_6
REMARK    5  A    between atoms: C_8  and  C_29
REMARK    6  A    between atoms: C_9  and  C_24
REMARK    7  A    between atoms: C_11  and  C_19
REMARK    8  A    between atoms: C_11  and  O_23
REMARK    9  A    between atoms: C_13  and  C_14
REMARK   10  A    between atoms: C_13  and  O_18
REMARK   11  A    between atoms: C_24  and  O_26
REMARK   12  A    between atoms: O_26  and  C_27
REMARK   13  A    between atoms: C_27  and  C_28
REMARK   14  A    between atoms: C_34  and  O_35
REMARK                            x       y       z     vdW  Elec       q    Type
REMARK                         _______ _______ _______ _____ _____    ______ ____
ROOT
ATOM      1  C   UNL     1      -2.950  -2.756   0.175  0.00  0.00    +0.162 C 
ATOM      2  C   UNL     1      -2.658  -4.259   0.140  0.00  0.00    +0.059 C 
ATOM      3  C   UNL     1      -1.627  -4.596   1.222  0.00  0.00    +0.162 C 
ATOM      4  C   UNL     1      -2.165  -4.157   2.586  0.00  0.00    +0.230 C 
ATOM      5  N   UNL     1      -2.429  -2.713   2.568  0.00  0.00    -0.245 NA
ATOM      6  C   UNL     1      -3.450  -2.370   1.569  0.00  0.00    +0.230 C 
ATOM      7  H   UNL     1      -2.694  -2.382   3.484  0.00  0.00    +0.128 HD
ENDROOT
BRANCH   2   8
ATOM      8  C   UNL     1      -3.929  -5.026   0.399  0.00  0.00    -0.001 A 
ATOM      9  C   UNL     1      -3.897  -6.183   1.153  0.00  0.00    +0.007 A 
ATOM     10  C   UNL     1      -5.062  -6.887   1.391  0.00  0.00    +0.001 A 
ATOM     11  C   UNL     1      -6.263  -6.435   0.875  0.00  0.00    +0.004 A 
ATOM     12  C   UNL     1      -6.301  -5.278   0.122  0.00  0.00    +0.046 A 
ATOM     13  C   UNL     1      -5.133  -4.567  -0.114  0.00  0.00    +0.120 A 
BRANCH  13  14
ATOM     14  O   UNL     1      -5.168  -3.425  -0.851  0.00  0.00    -0.506 OA
ATOM     15  H   UNL     1      -5.044  -3.566  -1.799  0.00  0.00    +0.292 HD
ENDBRANCH  13  14
ENDBRANCH   2   8
BRANCH   6  16
ATOM     16  C   UNL     1      -3.725  -0.866   1.614  0.00  0.00    +0.433 C 
ATOM     17  F   UNL     1      -4.678  -0.537   0.644  0.00  0.00    -0.166 F 
ATOM     18  F   UNL     1      -4.210  -0.518   2.880  0.00  0.00    -0.166 F 
ATOM     19  F   UNL     1      -2.540  -0.168   1.360  0.00  0.00    -0.166 F 
ENDBRANCH   6  16
BRANCH   4  20
ATOM     20  C   UNL     1      -1.130  -4.474   3.667  0.00  0.00    +0.433 C 
ATOM     21  F   UNL     1      -0.030  -3.622   3.524  0.00  0.00    -0.166 F 
ATOM     22  F   UNL     1      -1.703  -4.287   4.930  0.00  0.00    -0.166 F 
ATOM     23  F   UNL     1      -0.711  -5.802   3.537  0.00  0.00    -0.166 F 
ENDBRANCH   4  20
BRANCH   1  24
ATOM     24  C   UNL     1      -1.690  -1.991  -0.137  0.00  0.00    +0.315 C 
ATOM     25  O   UNL     1      -1.080  -1.444   0.751  0.00  0.00    -0.250 OA
BRANCH  24  26
ATOM     26  O   UNL     1      -1.246  -1.916  -1.401  0.00  0.00    -0.465 OA
BRANCH  26  28
ATOM     27  C   UNL     1       0.249  -1.125  -3.127  0.00  0.00    +0.048 C 
ATOM     28  C   UNL     1      -0.154  -1.031  -1.654  0.00  0.00    +0.229 C 
ENDBRANCH  26  28
ENDBRANCH  24  26
ENDBRANCH   1  24
BRANCH   6  29
ATOM     29  O   UNL     1      -4.655  -3.083   1.857  0.00  0.00    -0.366 OA
ATOM     30  H   UNL     1      -5.071  -2.832   2.693  0.00  0.00    +0.212 HD
ENDBRANCH   6  29
BRANCH   4  31
ATOM     31  O   UNL     1      -3.378  -4.859   2.867  0.00  0.00    -0.366 OA
ATOM     32  H   UNL     1      -3.814  -4.578   3.683  0.00  0.00    +0.212 HD
ENDBRANCH   4  31
BRANCH   3  33
ATOM     33  C   UNL     1      -0.338  -3.871   0.932  0.00  0.00    +0.315 C 
ATOM     34  O   UNL     1       0.043  -2.997   1.673  0.00  0.00    -0.250 OA
BRANCH  33  35
ATOM     35  O   UNL     1       0.386  -4.197  -0.151  0.00  0.00    -0.465 OA
BRANCH  35  36
ATOM     36  C   UNL     1       1.672  -3.587  -0.278  0.00  0.00    +0.229 C 
ATOM     37  C   UNL     1       2.313  -4.020  -1.598  0.00  0.00    +0.048 C 
ENDBRANCH  35  36
ENDBRANCH  33  35
ENDBRANCH   3  33
TORSDOF 12
