REMARK  Name = ZINC08443044
REMARK  8 active torsions:
REMARK  status: ('A' for Active; 'I' for Inactive)
REMARK    1  A    between atoms: C_1  and  C_2
REMARK    2  A    between atoms: C_2  and  C_4
REMARK    3  A    between atoms: C_2  and  N_17
REMARK    4  A    between atoms: N_17  and  C_18
REMARK    5  A    between atoms: C_20  and  N_27
REMARK    6  A    between atoms: C_23  and  N_24
REMARK    7  A    between atoms: N_30  and  S_33
REMARK    8  A    between atoms: S_33  and  C_36
REMARK                            x       y       z     vdW  Elec       q    Type
REMARK                         _______ _______ _______ _____ _____    ______ ____
ROOT
ATOM      1  C   UNL     1      -1.201   3.205   0.057  0.00  0.00    +0.060 A 
ATOM      2  C   UNL     1       0.029   3.849   0.040  0.00  0.00    +0.048 A 
ATOM      3  C   UNL     1       1.198   3.103  -0.001  0.00  0.00    +0.032 A 
ATOM      4  C   UNL     1       1.134   1.715  -0.025  0.00  0.00    +0.025 A 
ATOM      5  C   UNL     1      -0.091   1.077  -0.009  0.00  0.00    +0.036 A 
ATOM      6  C   UNL     1      -1.258   1.817   0.026  0.00  0.00    +0.147 A 
ENDROOT
BRANCH   3   7
ATOM      7  N   UNL     1       2.437   3.747  -0.018  0.00  0.00    -0.327 N 
ATOM      8  C   UNL     1       2.522   4.696  -1.136  0.00  0.00    +0.122 C 
ATOM      9  C   UNL     1       3.816   5.508  -1.015  0.00  0.00    +0.128 C 
ATOM     10  N   UNL     1       4.946   4.573  -0.906  0.00  0.00    -0.174 NA
ATOM     11  C   UNL     1       4.871   3.505   0.103  0.00  0.00    +0.128 C 
ATOM     12  C   UNL     1       3.536   2.772  -0.062  0.00  0.00    +0.122 C 
BRANCH  10  13
ATOM     13  S   UNL     1       6.268   4.718  -1.893  0.00  0.00    +0.061 S 
ATOM     14  O   UNL     1       6.310   6.074  -2.318  0.00  0.00    -0.153 OA
ATOM     15  O   UNL     1       7.351   4.098  -1.215  0.00  0.00    -0.153 OA
BRANCH  13  16
ATOM     16  C   UNL     1       5.953   3.749  -3.331  0.00  0.00    +0.105 A 
ATOM     17  C   UNL     1       6.335   2.421  -3.367  0.00  0.00    +0.028 A 
ATOM     18  C   UNL     1       6.084   1.660  -4.493  0.00  0.00    +0.002 A 
ATOM     19  C   UNL     1       5.460   2.229  -5.587  0.00  0.00    +0.000 A 
ATOM     20  C   UNL     1       5.083   3.559  -5.553  0.00  0.00    +0.002 A 
ATOM     21  C   UNL     1       5.329   4.319  -4.425  0.00  0.00    +0.028 A 
ENDBRANCH  13  16
ENDBRANCH  10  13
ENDBRANCH   3   7
BRANCH   6  22
ATOM     22  N   UNL     1      -2.569   1.130   0.037  0.00  0.00    +0.058 N 
ATOM     23  O   UNL     1      -2.619  -0.083   0.128  0.00  0.00    -0.126 OA
ATOM     24  O   UNL     1      -3.596   1.778  -0.046  0.00  0.00    -0.126 OA
ENDBRANCH   6  22
BRANCH   1  25
ATOM     25  N   UNL     1      -2.381   3.952   0.098  0.00  0.00    -0.339 N 
ATOM     26  H   UNL     1      -3.240   3.506   0.030  0.00  0.00    +0.146 HD
BRANCH  25  28
ATOM     27  C   UNL     1      -2.213   5.769   1.726  0.00  0.00    +0.028 C 
ATOM     28  C   UNL     1      -2.321   5.409   0.243  0.00  0.00    +0.074 C 
BRANCH  28  29
ATOM     29  C   UNL     1      -3.589   6.032  -0.344  0.00  0.00    -0.010 C 
ATOM     30  C   UNL     1      -3.696   5.672  -1.827  0.00  0.00    +0.012 C 
ATOM     31  C   UNL     1      -4.964   6.295  -2.413  0.00  0.00    -0.010 C 
ATOM     32  C   UNL     1      -4.901   7.816  -2.261  0.00  0.00    +0.007 C 
ATOM     33  C   UNL     1      -4.794   8.177  -0.778  0.00  0.00    -0.010 C 
ATOM     34  C   UNL     1      -3.526   7.554  -0.192  0.00  0.00    +0.012 C 
ATOM     35  C   UNL     1      -6.018   7.641  -0.033  0.00  0.00    +0.007 C 
ATOM     36  C   UNL     1      -6.081   6.119  -0.185  0.00  0.00    -0.010 C 
ATOM     37  C   UNL     1      -6.188   5.759  -1.668  0.00  0.00    +0.007 C 
ATOM     38  C   UNL     1      -4.812   5.496   0.402  0.00  0.00    +0.012 C 
ENDBRANCH  28  29
ENDBRANCH  25  28
ENDBRANCH   1  25
TORSDOF 7
