REMARK  Name = ZINC27362337
REMARK  12 active torsions:
REMARK  status: ('A' for Active; 'I' for Inactive)
REMARK    1  A    between atoms: C_1  and  C_2
REMARK    2  A    between atoms: C_2  and  C_4
REMARK    3  A    between atoms: C_2  and  N_14
REMARK    4  A    between atoms: C_7  and  S_10
REMARK    5  A    between atoms: S_10  and  N_13
REMARK    6  A    between atoms: N_14  and  C_15
REMARK    7  A    between atoms: N_14  and  C_16
REMARK    8  A    between atoms: C_16  and  C_17
REMARK    9  A    between atoms: C_17  and  O_18
REMARK   10  A    between atoms: O_18  and  C_19
REMARK   11  A    between atoms: C_22  and  S_25
REMARK   12  A    between atoms: S_25  and  N_28
REMARK                            x       y       z     vdW  Elec       q    Type
REMARK                         _______ _______ _______ _____ _____    ______ ____
ROOT
ATOM      1  N   UNL     1      -2.066   0.975   1.338  0.00  0.00    +0.384 N 
ATOM      2  C   UNL     1      -1.977  -0.478   1.534  0.00  0.00    -0.095 C 
ATOM      3  H   UNL     1      -2.571   1.157   0.378  0.00  0.00    -0.081 HD
ENDROOT
BRANCH   1   5
ATOM      4  C   UNL     1      -3.022   3.095   2.106  0.00  0.00    -0.008 C 
ATOM      5  C   UNL     1      -2.870   1.600   2.396  0.00  0.00    -0.041 C 
BRANCH   5   6
ATOM      6  C   UNL     1      -4.232   0.956   2.439  0.00  0.00    -0.061 A 
ATOM      7  C   UNL     1      -4.880   0.631   1.262  0.00  0.00    +0.004 A 
ATOM      8  C   UNL     1      -6.127   0.036   1.302  0.00  0.00    +0.029 A 
ATOM      9  C   UNL     1      -6.730  -0.226   2.518  0.00  0.00    +0.105 A 
ATOM     10  C   UNL     1      -6.084   0.104   3.695  0.00  0.00    +0.029 A 
ATOM     11  C   UNL     1      -4.835   0.694   3.655  0.00  0.00    +0.004 A 
BRANCH   9  12
ATOM     12  S   UNL     1      -8.323  -0.978   2.568  0.00  0.00    +0.056 S 
ATOM     13  O   UNL     1      -8.477  -1.685   1.345  0.00  0.00    -0.153 OA
ATOM     14  O   UNL     1      -8.432  -1.614   3.834  0.00  0.00    -0.153 OA
BRANCH  12  15
ATOM     15  N   UNL     1      -9.442   0.242   2.554  0.00  0.00    -0.204 NA
ATOM     16  H   UNL     1     -10.454  -0.188   2.584  0.00  0.00    +0.144 HD
ATOM     17  H   UNL     1      -9.323   0.837   1.636  0.00  0.00    +0.144 HD
ENDBRANCH  12  15
ENDBRANCH   9  12
ENDBRANCH   5   6
ENDBRANCH   1   5
BRANCH   1  18
ATOM     18  C   UNL     1      -0.729   1.579   1.267  0.00  0.00    -0.037 C 
BRANCH  18  19
ATOM     19  C   UNL     1      -0.013   1.086   0.008  0.00  0.00    +0.210 C 
BRANCH  19  20
ATOM     20  O   UNL     1      -0.704   1.559  -1.150  0.00  0.00    -0.494 OA
BRANCH  20  21
ATOM     21  C   UNL     1      -0.194   1.208  -2.359  0.00  0.00    +0.121 A 
ATOM     22  C   UNL     1       0.951   0.428  -2.431  0.00  0.00    +0.047 A 
ATOM     23  C   UNL     1       1.464   0.067  -3.662  0.00  0.00    +0.032 A 
ATOM     24  C   UNL     1       0.844   0.492  -4.822  0.00  0.00    +0.105 A 
ATOM     25  C   UNL     1      -0.294   1.274  -4.753  0.00  0.00    +0.032 A 
ATOM     26  C   UNL     1      -0.815   1.633  -3.525  0.00  0.00    +0.047 A 
BRANCH  24  27
ATOM     27  S   UNL     1       1.505   0.036  -6.390  0.00  0.00    +0.056 S 
ATOM     28  O   UNL     1       2.259  -1.151  -6.184  0.00  0.00    -0.153 OA
ATOM     29  O   UNL     1       0.431   0.104  -7.319  0.00  0.00    -0.153 OA
BRANCH  27  30
ATOM     30  N   UNL     1       2.584   1.213  -6.828  0.00  0.00    -0.204 NA
ATOM     31  H   UNL     1       3.021   0.965  -7.806  0.00  0.00    +0.144 HD
ATOM     32  H   UNL     1       3.383   1.276  -6.074  0.00  0.00    +0.144 HD
ENDBRANCH  27  30
ENDBRANCH  24  27
ENDBRANCH  20  21
ENDBRANCH  19  20
ENDBRANCH  18  19
ENDBRANCH   1  18
TORSDOF 10
