REMARK  Name = ZINC49721982
REMARK  9 active torsions:
REMARK  status: ('A' for Active; 'I' for Inactive)
REMARK    1  A    between atoms: C_1  and  C_2
REMARK    2  A    between atoms: C_6  and  N_9
REMARK    3  A    between atoms: C_7  and  C_8
REMARK    4  A    between atoms: C_10  and  C_30
REMARK    5  A    between atoms: C_12  and  C_15
REMARK    6  A    between atoms: C_13  and  C_14
REMARK    7  A    between atoms: C_25  and  C_27
REMARK    8  A    between atoms: C_27  and  C_28
REMARK    9  A    between atoms: C_27  and  C_29
REMARK                            x       y       z     vdW  Elec       q    Type
REMARK                         _______ _______ _______ _____ _____    ______ ____
ROOT
ATOM      1  C   UNL     1       1.605  -4.385   5.195  0.00  0.00    +0.026 C 
ATOM      2  C   UNL     1       1.174  -5.444   5.966  0.00  0.00    +0.079 C 
ATOM      3  C   UNL     1      -0.138  -6.106   5.726  0.00  0.00    +0.132 C 
ATOM      4  N   UNL     1      -0.673  -6.230   4.540  0.00  0.00    -0.385 N 
ATOM      5  N   UNL     1      -0.748  -6.585   6.905  0.00  0.00    -0.154 N 
ATOM      6  C   UNL     1       0.070  -6.848   7.983  0.00  0.00    +0.181 C 
ATOM      7  N   UNL     1       1.354  -6.617   8.085  0.00  0.00    -0.152 NA
ATOM      8  C   UNL     1       1.994  -5.987   7.075  0.00  0.00    +0.273 C 
ATOM      9  O   UNL     1       3.208  -5.865   7.077  0.00  0.00    -0.268 OA
ATOM     10  S   UNL     1      -1.069  -7.539   9.154  0.00  0.00    -0.038 S 
ATOM     11  C   UNL     1      -2.555  -7.340   8.180  0.00  0.00    +0.102 C 
ATOM     12  N   UNL     1      -2.095  -6.828   7.075  0.00  0.00    -0.169 NA
ATOM     13  H   UNL     1      -0.175  -5.959   3.753  0.00  0.00    +0.157 HD
ATOM     14  H   UNL     1      -1.567  -6.594   4.446  0.00  0.00    +0.157 HD
ENDROOT
BRANCH   1  18
ATOM     15  N   UNL     1      -0.072  -2.676   2.519  0.00  0.00    -0.317 N 
ATOM     16  C   UNL     1      -1.161  -3.061   3.252  0.00  0.00    +0.022 A 
ATOM     17  C   UNL     1      -0.746  -3.739   4.335  0.00  0.00    +0.031 A 
ATOM     18  C   UNL     1       0.722  -3.776   4.267  0.00  0.00    -0.003 A 
ATOM     19  C   UNL     1       1.064  -3.100   3.108  0.00  0.00    +0.028 A 
ATOM     20  C   UNL     1       2.463  -2.874   2.596  0.00  0.00    +0.064 C 
ATOM     21  C   UNL     1      -2.597  -2.771   2.901  0.00  0.00    +0.064 C 
BRANCH  15  27
ATOM     22  C   UNL     1      -0.123   1.660   0.199  0.00  0.00    +0.044 C 
ATOM     23  C   UNL     1      -0.157   0.154   0.170  0.00  0.00    -0.046 A 
ATOM     24  C   UNL     1      -0.247  -0.512  -1.039  0.00  0.00    +0.004 A 
ATOM     25  C   UNL     1      -0.278  -1.894  -1.070  0.00  0.00    +0.002 A 
ATOM     26  C   UNL     1      -0.221  -2.614   0.108  0.00  0.00    +0.026 A 
ATOM     27  C   UNL     1      -0.130  -1.948   1.323  0.00  0.00    +0.050 A 
ATOM     28  C   UNL     1      -0.093  -0.560   1.350  0.00  0.00    -0.024 A 
ATOM     29  C   UNL     1       0.011   0.166   2.667  0.00  0.00    +0.046 C 
ENDBRANCH  15  27
ENDBRANCH   1  18
BRANCH  11  30
ATOM     30  C   UNL     1      -3.977  -7.679   8.545  0.00  0.00    +0.040 C 
ATOM     31  C   UNL     1      -4.596  -6.514   9.320  0.00  0.00    +0.014 C 
ATOM     32  C   UNL     1      -4.785  -7.931   7.271  0.00  0.00    +0.014 C 
ENDBRANCH  11  30
TORSDOF 3
