REMARK  Name = ZINC14931143
REMARK  11 active torsions:
REMARK  status: ('A' for Active; 'I' for Inactive)
REMARK    1  A    between atoms: C_1  and  C_2
REMARK    2  A    between atoms: C_6  and  N_9
REMARK    3  A    between atoms: C_7  and  C_8
REMARK    4  A    between atoms: C_10  and  C_12
REMARK    5  A    between atoms: C_12  and  N_13
REMARK    6  A    between atoms: N_13  and  C_14
REMARK    7  A    between atoms: N_13  and  C_15
REMARK    8  A    between atoms: C_15  and  C_17
REMARK    9  A    between atoms: C_15  and  C_18
REMARK   10  A    between atoms: N_20  and  C_21
REMARK   11  A    between atoms: C_22  and  C_29
REMARK                            x       y       z     vdW  Elec       q    Type
REMARK                         _______ _______ _______ _____ _____    ______ ____
ROOT
ATOM      1  C   UNL     1      -0.302  -7.076   4.677  0.00  0.00    +0.017 C 
ATOM      2  C   UNL     1      -0.142  -8.258   3.718  0.00  0.00    -0.004 C 
ENDROOT
BRANCH   1   3
ATOM      3  C   UNL     1       0.970  -6.890   5.463  0.00  0.00    +0.204 C 
ATOM      4  O   UNL     1       1.830  -6.138   5.054  0.00  0.00    -0.277 OA
ATOM      5  N   UNL     1       1.152  -7.558   6.619  0.00  0.00    -0.281 N 
ATOM      6  H   UNL     1       0.464  -8.159   6.945  0.00  0.00    +0.155 HD
BRANCH   5   7
ATOM      7  C   UNL     1       2.323  -7.387   7.342  0.00  0.00    +0.084 A 
ATOM      8  C   UNL     1       2.682  -7.988   8.534  0.00  0.00    +0.068 A 
ATOM      9  C   UNL     1       3.984  -7.636   9.096  0.00  0.00    -0.023 A 
ATOM     10  C   UNL     1       4.678  -6.749   8.360  0.00  0.00    -0.004 A 
ATOM     11  S   UNL     1       3.632  -6.408   6.967  0.00  0.00    -0.077 S 
ATOM     12  C   UNL     1       6.006  -6.418   8.985  0.00  0.00    +0.043 C 
ATOM     13  C   UNL     1       5.879  -6.898  10.448  0.00  0.00    +0.010 C 
ATOM     14  C   UNL     1       4.812  -8.004  10.326  0.00  0.00    +0.037 C 
BRANCH   8  15
ATOM     15  C   UNL     1       1.792  -8.940   9.206  0.00  0.00    +0.244 C 
ATOM     16  O   UNL     1       1.868 -10.127   8.952  0.00  0.00    -0.270 OA
ATOM     17  N   UNL     1       0.890  -8.499  10.106  0.00  0.00    -0.325 N 
ATOM     18  H   UNL     1       0.830  -7.552  10.309  0.00  0.00    +0.145 HD
ATOM     19  H   UNL     1       0.302  -9.129  10.551  0.00  0.00    +0.145 HD
ENDBRANCH   8  15
ENDBRANCH   5   7
ENDBRANCH   1   3
BRANCH   1  20
ATOM     20  N   UNL     1      -0.586  -5.857   3.908  0.00  0.00    +0.391 N 
ATOM     21  C   UNL     1      -1.798  -6.056   3.103  0.00  0.00    -0.094 C 
ATOM     22  H   UNL     1       0.193  -5.654   3.299  0.00  0.00    -0.080 HD
BRANCH  20  23
ATOM     23  C   UNL     1      -0.791  -4.732   4.831  0.00  0.00    +0.020 C 
BRANCH  23  25
ATOM     24  N   UNL     1      -1.103  -2.283   4.686  0.00  0.00    -0.287 N 
ATOM     25  C   UNL     1      -0.909  -3.452   4.044  0.00  0.00    +0.201 C 
ATOM     26  O   UNL     1      -0.831  -3.474   2.834  0.00  0.00    -0.278 OA
ATOM     27  H   UNL     1      -1.078  -2.251   5.655  0.00  0.00    +0.155 HD
BRANCH  24  33
ATOM     28  C   UNL     1      -1.143   2.628   4.450  0.00  0.00    +0.044 C 
ATOM     29  C   UNL     1      -1.367   1.280   3.815  0.00  0.00    -0.046 A 
ATOM     30  C   UNL     1      -1.808   1.197   2.506  0.00  0.00    +0.004 A 
ATOM     31  C   UNL     1      -2.014  -0.038   1.920  0.00  0.00    +0.002 A 
ATOM     32  C   UNL     1      -1.781  -1.194   2.640  0.00  0.00    +0.023 A 
ATOM     33  C   UNL     1      -1.339  -1.114   3.954  0.00  0.00    +0.036 A 
ATOM     34  C   UNL     1      -1.128   0.128   4.538  0.00  0.00    -0.026 A 
ATOM     35  C   UNL     1      -0.642   0.219   5.962  0.00  0.00    +0.046 C 
ENDBRANCH  24  33
ENDBRANCH  23  25
ENDBRANCH  20  23
ENDBRANCH   1  20
TORSDOF 7
