REMARK  Name = ZINC47966436
REMARK  5 active torsions:
REMARK  status: ('A' for Active; 'I' for Inactive)
REMARK    1  A    between atoms: C_8  and  C_12
REMARK    2  A    between atoms: C_12  and  N_13
REMARK    3  A    between atoms: C_14  and  C_16
REMARK    4  A    between atoms: N_18  and  C_19
REMARK    5  A    between atoms: C_20  and  C_24
REMARK                            x       y       z     vdW  Elec       q    Type
REMARK                         _______ _______ _______ _____ _____    ______ ____
ROOT
ATOM      1  N   UNL     1       3.886  -4.760  -0.720  0.00  0.00    -0.307 N 
ATOM      2  C   UNL     1       4.179  -6.069  -0.586  0.00  0.00    +0.299 C 
ATOM      3  O   UNL     1       3.404  -6.808  -0.015  0.00  0.00    -0.265 OA
ATOM      4  H   UNL     1       4.506  -4.168  -1.175  0.00  0.00    +0.149 HD
ENDROOT
BRANCH   2   5
ATOM      5  C   UNL     1       5.457  -6.608  -1.138  0.00  0.00    +0.304 C 
ATOM      6  O   UNL     1       6.232  -5.869  -1.708  0.00  0.00    -0.265 OA
ATOM      7  N   UNL     1       5.749  -7.917  -1.004  0.00  0.00    -0.272 N 
ATOM      8  H   UNL     1       5.129  -8.508  -0.548  0.00  0.00    +0.156 HD
BRANCH   7   9
ATOM      9  C   UNL     1       6.933  -8.418  -1.516  0.00  0.00    +0.084 A 
ATOM     10  C   UNL     1       7.394  -9.726  -1.477  0.00  0.00    +0.065 A 
ATOM     11  C   UNL     1       8.676  -9.978  -2.094  0.00  0.00    +0.022 A 
ATOM     12  C   UNL     1       9.284  -8.909  -2.641  0.00  0.00    +0.048 A 
ATOM     13  S   UNL     1       8.138  -7.583  -2.334  0.00  0.00    -0.081 S 
BRANCH  10  14
ATOM     14  C   UNL     1       6.620 -10.798  -0.842  0.00  0.00    +0.244 C 
ATOM     15  O   UNL     1       5.543 -10.550  -0.332  0.00  0.00    -0.270 OA
ATOM     16  N   UNL     1       7.101 -12.057  -0.824  0.00  0.00    -0.325 N 
ATOM     17  H   UNL     1       7.959 -12.254  -1.231  0.00  0.00    +0.145 HD
ATOM     18  H   UNL     1       6.589 -12.766  -0.404  0.00  0.00    +0.145 HD
ENDBRANCH  10  14
ENDBRANCH   7   9
ENDBRANCH   2   5
BRANCH   1  19
ATOM     19  C   UNL     1       2.633  -4.230  -0.177  0.00  0.00    +0.111 C 
BRANCH  19  27
ATOM     20  C   UNL     1      -0.017   1.377   0.010  0.00  0.00    +0.000 A 
ATOM     21  C   UNL     1       1.172   2.084   0.002  0.00  0.00    +0.004 A 
ATOM     22  C   UNL     1       2.375   1.409  -0.015  0.00  0.00    +0.046 A 
ATOM     23  C   UNL     1       2.398   0.018  -0.024  0.00  0.00    +0.124 A 
ATOM     24  C   UNL     1       1.207  -0.687  -0.012  0.00  0.00    -0.005 A 
ATOM     25  C   UNL     1       0.002  -0.004   0.002  0.00  0.00    +0.007 A 
ATOM     26  C   UNL     1       1.187  -2.194  -0.010  0.00  0.00    +0.047 C 
ATOM     27  C   UNL     1       2.548  -2.729  -0.463  0.00  0.00    +0.048 C 
ATOM     28  C   UNL     1       3.641  -1.990   0.320  0.00  0.00    +0.234 C 
ATOM     29  O   UNL     1       3.602  -0.610  -0.046  0.00  0.00    -0.491 OA
ENDBRANCH  19  27
ENDBRANCH   1  19
TORSDOF 5
