REMARK  Name = ZINC45371320
REMARK  14 active torsions:
REMARK  status: ('A' for Active; 'I' for Inactive)
REMARK    1  A    between atoms: C_1  and  C_2
REMARK    2  A    between atoms: C_9  and  C_20
REMARK    3  A    between atoms: C_10  and  N_11
REMARK    4  A    between atoms: N_11  and  C_12
REMARK    5  A    between atoms: C_12  and  C_13
REMARK    6  A    between atoms: C_12  and  C_14
REMARK    7  A    between atoms: C_12  and  C_15
REMARK    8  A    between atoms: C_15  and  C_16
REMARK    9  A    between atoms: C_16  and  C_17
REMARK   10  A    between atoms: C_16  and  C_18
REMARK   11  A    between atoms: C_16  and  C_19
REMARK   12  A    between atoms: C_25  and  O_26
REMARK   13  A    between atoms: O_26  and  C_27
REMARK   14  A    between atoms: C_27  and  C_29
REMARK                            x       y       z     vdW  Elec       q    Type
REMARK                         _______ _______ _______ _____ _____    ______ ____
ROOT
ATOM      1  C   UNL     1      -1.174   1.520  -3.873  0.00  0.00    +0.044 C 
ATOM      2  C   UNL     1      -1.274   0.134  -3.290  0.00  0.00    -0.046 A 
ATOM      3  C   UNL     1      -0.748  -0.966  -3.991  0.00  0.00    +0.021 A 
ATOM      4  C   UNL     1      -0.835  -2.208  -3.474  0.00  0.00    +0.094 A 
ATOM      5  N   UNL     1      -1.437  -2.418  -2.262  0.00  0.00    -0.289 N 
ATOM      6  C   UNL     1      -1.961  -1.361  -1.553  0.00  0.00    +0.117 A 
ATOM      7  C   UNL     1      -1.869  -0.056  -2.083  0.00  0.00    +0.048 A 
ATOM      8  N   UNL     1      -2.480  -1.824  -0.428  0.00  0.00    -0.338 N 
ATOM      9  C   UNL     1      -2.311  -3.159  -0.378  0.00  0.00    +0.090 A 
ATOM     10  C   UNL     1      -1.655  -3.550  -1.527  0.00  0.00    +0.129 A 
ATOM     11  H   UNL     1      -2.913  -1.287   0.253  0.00  0.00    +0.167 HD
ENDROOT
BRANCH   9  12
ATOM     12  C   UNL     1      -2.752  -4.051   0.719  0.00  0.00    +0.044 A 
ATOM     13  C   UNL     1      -4.111  -4.217   0.984  0.00  0.00    +0.014 A 
ATOM     14  C   UNL     1      -4.516  -5.049   2.007  0.00  0.00    +0.001 A 
ATOM     15  C   UNL     1      -3.579  -5.720   2.772  0.00  0.00    +0.004 A 
ATOM     16  C   UNL     1      -2.229  -5.563   2.519  0.00  0.00    +0.047 A 
ATOM     17  C   UNL     1      -1.808  -4.736   1.491  0.00  0.00    +0.141 A 
BRANCH  17  18
ATOM     18  O   UNL     1      -0.481  -4.586   1.237  0.00  0.00    -0.422 OA
BRANCH  18  19
ATOM     19  C   UNL     1       0.171  -3.579   1.851  0.00  0.00    +0.345 C 
ATOM     20  O   UNL     1      -0.410  -2.884   2.661  0.00  0.00    -0.245 OA
BRANCH  19  21
ATOM     21  C   UNL     1       1.589  -3.321   1.541  0.00  0.00    +0.063 A 
ATOM     22  C   UNL     1       2.257  -4.116   0.606  0.00  0.00    +0.019 A 
ATOM     23  C   UNL     1       3.582  -3.873   0.317  0.00  0.00    +0.050 A 
ATOM     24  C   UNL     1       4.258  -2.839   0.952  0.00  0.00    +0.166 A 
ATOM     25  C   UNL     1       3.596  -2.042   1.887  0.00  0.00    +0.167 A 
ATOM     26  C   UNL     1       2.267  -2.277   2.177  0.00  0.00    +0.064 A 
ATOM     27  O   UNL     1       4.473  -1.109   2.361  0.00  0.00    -0.453 OA
ATOM     28  C   UNL     1       5.781  -1.600   2.013  0.00  0.00    +0.466 C 
ATOM     29  O   UNL     1       5.545  -2.404   0.843  0.00  0.00    -0.453 OA
ENDBRANCH  19  21
ENDBRANCH  18  19
ENDBRANCH  17  18
ENDBRANCH   9  12
BRANCH  10  30
ATOM     30  N   UNL     1      -1.286  -4.850  -1.872  0.00  0.00    -0.323 N 
ATOM     31  H   UNL     1      -1.568  -5.597  -1.321  0.00  0.00    +0.148 HD
BRANCH  30  32
ATOM     32  C   UNL     1      -0.473  -5.088  -3.067  0.00  0.00    +0.028 C 
ATOM     33  C   UNL     1      -1.291  -4.753  -4.316  0.00  0.00    +0.031 C 
ATOM     34  C   UNL     1       0.773  -4.201  -3.021  0.00  0.00    +0.031 C 
BRANCH  32  35
ATOM     35  C   UNL     1      -0.051  -6.558  -3.113  0.00  0.00    +0.031 C 
BRANCH  35  36
ATOM     36  C   UNL     1       0.692  -6.916  -1.824  0.00  0.00    -0.036 C 
ATOM     37  C   UNL     1       0.028  -6.210  -0.640  0.00  0.00    +0.010 C 
ATOM     38  C   UNL     1       0.642  -8.430  -1.610  0.00  0.00    +0.010 C 
ATOM     39  C   UNL     1       2.150  -6.465  -1.935  0.00  0.00    +0.010 C 
ENDBRANCH  35  36
ENDBRANCH  32  35
ENDBRANCH  30  32
ENDBRANCH  10  30
TORSDOF 8
