REMARK  Name = ZINC20918430
REMARK  13 active torsions:
REMARK  status: ('A' for Active; 'I' for Inactive)
REMARK    1  A    between atoms: C_1  and  C_2
REMARK    2  A    between atoms: C_5  and  C_8
REMARK    3  A    between atoms: C_8  and  N_9
REMARK    4  A    between atoms: C_17  and  O_40
REMARK    5  A    between atoms: C_22  and  C_23
REMARK    6  A    between atoms: C_22  and  C_24
REMARK    7  A    between atoms: N_26  and  C_27
REMARK    8  A    between atoms: C_27  and  C_28
REMARK    9  A    between atoms: C_28  and  C_29
REMARK   10  A    between atoms: C_29  and  N_30
REMARK   11  A    between atoms: C_32  and  C_39
REMARK   12  A    between atoms: C_35  and  C_38
REMARK   13  A    between atoms: O_40  and  C_41
REMARK                            x       y       z     vdW  Elec       q    Type
REMARK                         _______ _______ _______ _____ _____    ______ ____
ROOT
ATOM      1  N   UNL     1       1.463  -5.152  -0.209  0.00  0.00    -0.276 N 
ATOM      2  C   UNL     1       2.094  -5.356  -1.389  0.00  0.00    +0.264 C 
ATOM      3  O   UNL     1       1.524  -5.210  -2.454  0.00  0.00    -0.268 OA
ATOM      4  C   UNL     1       3.508  -5.763  -1.316  0.00  0.00    +0.106 A 
ATOM      5  C   UNL     1       4.432  -5.860  -2.296  0.00  0.00    +0.041 A 
ATOM      6  C   UNL     1       5.635  -6.276  -1.700  0.00  0.00    +0.001 A 
ATOM      7  C   UNL     1       6.904  -6.529  -2.244  0.00  0.00    +0.013 A 
ATOM      8  C   UNL     1       7.886  -6.925  -1.375  0.00  0.00    +0.046 A 
ATOM      9  C   UNL     1       7.651  -7.074  -0.012  0.00  0.00    +0.122 A 
ATOM     10  C   UNL     1       6.406  -6.832   0.553  0.00  0.00    +0.072 A 
ATOM     11  C   UNL     1       5.386  -6.428  -0.308  0.00  0.00    +0.053 A 
ATOM     12  N   UNL     1       4.085  -6.121  -0.093  0.00  0.00    -0.334 N 
ATOM     13  C   UNL     1       3.298  -6.137   1.145  0.00  0.00    +0.157 C 
ATOM     14  C   UNL     1       2.191  -5.083   1.052  0.00  0.00    +0.129 C 
ATOM     15  C   UNL     1       2.814  -3.692   1.189  0.00  0.00    +0.043 C 
ENDROOT
BRANCH  14  16
ATOM     16  C   UNL     1       1.222  -5.293   2.187  0.00  0.00    +0.238 C 
ATOM     17  O   UNL     1       1.230  -4.542   3.138  0.00  0.00    -0.273 OA
ATOM     18  N   UNL     1       0.346  -6.317   2.143  0.00  0.00    -0.314 N 
ATOM     19  H   UNL     1       0.289  -6.874   1.351  0.00  0.00    +0.149 HD
BRANCH  18  20
ATOM     20  C   UNL     1      -0.521  -6.588   3.293  0.00  0.00    +0.102 C 
BRANCH  20  21
ATOM     21  C   UNL     1      -1.412  -7.793   2.986  0.00  0.00    +0.000 C 
BRANCH  21  22
ATOM     22  C   UNL     1      -2.318  -8.076   4.187  0.00  0.00    -0.077 C 
BRANCH  22  23
ATOM     23  N   UNL     1      -3.174  -9.233   3.893  0.00  0.00    +0.380 N 
ATOM     24  C   UNL     1      -4.077  -8.903   2.784  0.00  0.00    -0.076 C 
ATOM     25  C   UNL     1      -4.915 -10.130   2.420  0.00  0.00    -0.031 C 
ATOM     26  C   UNL     1      -5.736 -10.561   3.638  0.00  0.00    +0.003 C 
ATOM     27  C   UNL     1      -4.788 -10.832   4.811  0.00  0.00    -0.031 C 
ATOM     28  C   UNL     1      -3.955  -9.578   5.086  0.00  0.00    -0.076 C 
ATOM     29  C   UNL     1      -5.604 -11.188   6.055  0.00  0.00    +0.005 C 
ATOM     30  C   UNL     1      -5.856  -9.782   1.265  0.00  0.00    +0.005 C 
ATOM     31  H   UNL     1      -2.597 -10.019   3.631  0.00  0.00    -0.082 HD
ENDBRANCH  22  23
ENDBRANCH  21  22
ENDBRANCH  20  21
ENDBRANCH  18  20
ENDBRANCH  14  16
BRANCH   9  32
ATOM     32  O   UNL     1       8.672  -7.469   0.792  0.00  0.00    -0.495 OA
ATOM     33  C   UNL     1       9.934  -7.707   0.167  0.00  0.00    +0.277 C 
ENDBRANCH   9  32
BRANCH   1  34
ATOM     34  C   UNL     1       0.007  -4.990  -0.200  0.00  0.00    +0.144 C 
BRANCH  34  39
ATOM     35  C   UNL     1      -1.318   0.592  -0.888  0.00  0.00    +0.044 C 
ATOM     36  C   UNL     1      -0.972  -0.864  -0.709  0.00  0.00    -0.050 A 
ATOM     37  C   UNL     1      -0.776  -1.669  -1.815  0.00  0.00    +0.003 A 
ATOM     38  C   UNL     1      -0.459  -3.004  -1.650  0.00  0.00    +0.005 A 
ATOM     39  C   UNL     1      -0.338  -3.534  -0.379  0.00  0.00    -0.030 A 
ATOM     40  C   UNL     1      -0.532  -2.729   0.727  0.00  0.00    +0.005 A 
ATOM     41  C   UNL     1      -0.845  -1.392   0.562  0.00  0.00    +0.003 A 
ENDBRANCH  34  39
ENDBRANCH   1  34
TORSDOF 8
