REMARK  Name = ZINC16266980
REMARK  15 active torsions:
REMARK  status: ('A' for Active; 'I' for Inactive)
REMARK    1  A    between atoms: C_1  and  C_2
REMARK    2  A    between atoms: C_4  and  O_33
REMARK    3  A    between atoms: C_5  and  C_12
REMARK    4  A    between atoms: N_8  and  C_9
REMARK    5  A    between atoms: C_9  and  C_10
REMARK    6  A    between atoms: C_10  and  O_11
REMARK    7  A    between atoms: C_12  and  C_13
REMARK    8  A    between atoms: C_12  and  C_21
REMARK    9  A    between atoms: C_16  and  O_20
REMARK   10  A    between atoms: C_17  and  O_19
REMARK   11  A    between atoms: C_22  and  O_32
REMARK   12  A    between atoms: C_24  and  C_31
REMARK   13  A    between atoms: N_25  and  C_28
REMARK   14  A    between atoms: C_28  and  C_29
REMARK   15  A    between atoms: C_29  and  O_30
REMARK                            x       y       z     vdW  Elec       q    Type
REMARK                         _______ _______ _______ _____ _____    ______ ____
ROOT
ATOM      1  C   UNL     1      -2.569  -1.296  -3.878  0.00  0.00    +0.097 C 
ENDROOT
BRANCH   1   6
ATOM      2  C   UNL     1      -3.809   1.512   1.001  0.00  0.00    +0.064 C 
ATOM      3  C   UNL     1      -3.472   0.773  -0.268  0.00  0.00    +0.022 A 
ATOM      4  C   UNL     1      -2.233   0.261  -0.432  0.00  0.00    +0.067 A 
ATOM      5  C   UNL     1      -1.910  -0.426  -1.619  0.00  0.00    +0.128 A 
ATOM      6  C   UNL     1      -2.879  -0.567  -2.595  0.00  0.00    +0.070 A 
ATOM      7  C   UNL     1      -4.150  -0.024  -2.378  0.00  0.00    +0.259 A 
ATOM      8  O   UNL     1      -5.016  -0.139  -3.231  0.00  0.00    -0.267 OA
ATOM      9  N   UNL     1      -4.420   0.626  -1.230  0.00  0.00    -0.310 N 
BRANCH   5  10
ATOM     10  O   UNL     1      -0.670  -0.940  -1.800  0.00  0.00    -0.506 OA
ATOM     11  H   UNL     1      -0.069  -0.787  -1.059  0.00  0.00    +0.292 HD
ENDBRANCH   5  10
BRANCH   9  12
ATOM     12  C   UNL     1      -5.756   1.189  -1.018  0.00  0.00    +0.153 C 
BRANCH  12  13
ATOM     13  C   UNL     1      -6.678   0.112  -0.443  0.00  0.00    +0.177 C 
BRANCH  13  14
ATOM     14  O   UNL     1      -6.217  -0.267   0.855  0.00  0.00    -0.393 OA
ATOM     15  H   UNL     1      -6.755  -0.948   1.280  0.00  0.00    +0.209 HD
ENDBRANCH  13  14
ENDBRANCH  12  13
ENDBRANCH   9  12
ENDBRANCH   1   6
BRANCH   1  16
ATOM     16  C   UNL     1      -3.144  -2.687  -3.817  0.00  0.00    +0.070 A 
ATOM     17  C   UNL     1      -3.928  -3.167  -4.849  0.00  0.00    +0.128 A 
ATOM     18  C   UNL     1      -4.446  -4.475  -4.763  0.00  0.00    +0.067 A 
ATOM     19  C   UNL     1      -4.180  -5.231  -3.676  0.00  0.00    +0.022 A 
ATOM     20  N   UNL     1      -3.413  -4.751  -2.662  0.00  0.00    -0.310 N 
ATOM     21  C   UNL     1      -2.897  -3.509  -2.711  0.00  0.00    +0.259 A 
ATOM     22  O   UNL     1      -2.210  -3.098  -1.788  0.00  0.00    -0.267 OA
ATOM     23  C   UNL     1      -4.742  -6.627  -3.586  0.00  0.00    +0.064 C 
BRANCH  17  24
ATOM     24  O   UNL     1      -4.190  -2.394  -5.931  0.00  0.00    -0.506 OA
ATOM     25  H   UNL     1      -4.746  -2.823  -6.595  0.00  0.00    +0.292 HD
ENDBRANCH  17  24
BRANCH  20  26
ATOM     26  C   UNL     1      -3.145  -5.598  -1.498  0.00  0.00    +0.153 C 
BRANCH  26  27
ATOM     27  C   UNL     1      -1.949  -6.506  -1.792  0.00  0.00    +0.177 C 
BRANCH  27  28
ATOM     28  O   UNL     1      -0.775  -5.709  -1.959  0.00  0.00    -0.393 OA
ATOM     29  H   UNL     1       0.024  -6.220  -2.149  0.00  0.00    +0.209 HD
ENDBRANCH  27  28
ENDBRANCH  26  27
ENDBRANCH  20  26
ENDBRANCH   1  16
BRANCH   1  30
ATOM     30  C   UNL     1      -1.075  -1.377  -4.061  0.00  0.00    -0.031 A 
ATOM     31  C   UNL     1      -0.343  -0.224  -4.273  0.00  0.00    +0.008 A 
ATOM     32  C   UNL     1       1.028  -0.292  -4.436  0.00  0.00    +0.049 A 
ATOM     33  C   UNL     1       1.670  -1.520  -4.399  0.00  0.00    +0.158 A 
ATOM     34  C   UNL     1       0.932  -2.681  -4.192  0.00  0.00    +0.159 A 
ATOM     35  C   UNL     1      -0.442  -2.605  -4.023  0.00  0.00    +0.053 A 
BRANCH  34  36
ATOM     36  O   UNL     1       1.557  -3.889  -4.154  0.00  0.00    -0.503 OA
ATOM     37  H   UNL     1       1.626  -4.323  -5.015  0.00  0.00    +0.292 HD
ENDBRANCH  34  36
BRANCH  33  38
ATOM     38  O   UNL     1       3.018  -1.590  -4.566  0.00  0.00    -0.503 OA
ATOM     39  H   UNL     1       3.296  -1.695  -5.486  0.00  0.00    +0.292 HD
ENDBRANCH  33  38
ENDBRANCH   1  30
TORSDOF 13
