REMARK  Name = ZINC15548284
REMARK  11 active torsions:
REMARK  status: ('A' for Active; 'I' for Inactive)
REMARK    1  A    between atoms: C_1  and  C_2
REMARK    2  A    between atoms: C_2  and  O_3
REMARK    3  A    between atoms: O_3  and  C_4
REMARK    4  A    between atoms: C_7  and  C_10
REMARK    5  A    between atoms: C_15  and  C_16
REMARK    6  A    between atoms: C_15  and  N_59
REMARK    7  A    between atoms: N_18  and  C_19
REMARK    8  A    between atoms: C_19  and  C_20
REMARK    9  A    between atoms: C_20  and  C_21
REMARK   10  A    between atoms: C_24  and  S_27
REMARK   11  A    between atoms: S_27  and  N_30
REMARK                            x       y       z     vdW  Elec       q    Type
REMARK                         _______ _______ _______ _____ _____    ______ ____
ROOT
ATOM      1  C   UNL     1       8.531  -2.363  -1.882  0.00  0.00    +0.196 C 
ATOM      2  O   UNL     1       9.623  -2.332  -2.409  0.00  0.00    -0.278 OA
ATOM      3  N   UNL     1       8.408  -2.076  -0.571  0.00  0.00    -0.317 N 
ATOM      4  H   UNL     1       7.535  -2.101  -0.149  0.00  0.00    +0.149 HD
ENDROOT
BRANCH   1   5
ATOM      5  C   UNL     1       7.313  -2.722  -2.693  0.00  0.00    +0.019 C 
BRANCH   5  10
ATOM      6  C   UNL     1       6.523  -3.269  -4.930  0.00  0.00    -0.037 C 
ATOM      7  C   UNL     1       6.926  -2.840  -6.363  0.00  0.00    -0.013 C 
ATOM      8  C   UNL     1       7.656  -1.497  -6.130  0.00  0.00    -0.020 C 
ATOM      9  C   UNL     1       8.110  -1.537  -4.659  0.00  0.00    -0.077 C 
ATOM     10  N   UNL     1       7.680  -2.840  -4.136  0.00  0.00    +0.390 N 
ATOM     11  H   UNL     1       8.441  -3.522  -4.235  0.00  0.00    -0.080 HD
BRANCH   6  15
ATOM     12  C   UNL     1       5.999  -7.505  -4.717  0.00  0.00    +0.121 A 
ATOM     13  C   UNL     1       4.894  -6.667  -4.702  0.00  0.00    +0.046 A 
ATOM     14  C   UNL     1       5.066  -5.298  -4.771  0.00  0.00    +0.005 A 
ATOM     15  C   UNL     1       6.339  -4.763  -4.855  0.00  0.00    -0.061 A 
ATOM     16  C   UNL     1       7.441  -5.597  -4.876  0.00  0.00    +0.005 A 
ATOM     17  C   UNL     1       7.275  -6.966  -4.801  0.00  0.00    +0.046 A 
BRANCH  12  18
ATOM     18  O   UNL     1       5.833  -8.852  -4.649  0.00  0.00    -0.492 OA
BRANCH  18  20
ATOM     19  C   UNL     1       6.630 -11.133  -4.585  0.00  0.00    +0.048 C 
ATOM     20  C   UNL     1       7.015  -9.654  -4.669  0.00  0.00    +0.225 C 
ENDBRANCH  18  20
ENDBRANCH  12  18
ENDBRANCH   6  15
ENDBRANCH   5  10
ENDBRANCH   1   5
BRANCH   3  21
ATOM     21  C   UNL     1       9.592  -1.727   0.217  0.00  0.00    +0.109 C 
BRANCH  21  22
ATOM     22  C   UNL     1       9.179  -1.450   1.664  0.00  0.00    +0.054 C 
BRANCH  22  23
ATOM     23  C   UNL     1      10.397  -1.091   2.475  0.00  0.00    -0.046 A 
ATOM     24  C   UNL     1      10.794   0.229   2.579  0.00  0.00    +0.005 A 
ATOM     25  C   UNL     1      11.912   0.558   3.323  0.00  0.00    +0.029 A 
ATOM     26  C   UNL     1      12.632  -0.433   3.963  0.00  0.00    +0.105 A 
ATOM     27  C   UNL     1      12.235  -1.753   3.859  0.00  0.00    +0.029 A 
ATOM     28  C   UNL     1      11.118  -2.082   3.114  0.00  0.00    +0.005 A 
BRANCH  26  29
ATOM     29  S   UNL     1      14.061  -0.014   4.905  0.00  0.00    +0.056 S 
ATOM     30  O   UNL     1      14.871  -1.181   4.955  0.00  0.00    -0.153 OA
ATOM     31  O   UNL     1      14.538   1.223   4.392  0.00  0.00    -0.153 OA
BRANCH  29  32
ATOM     32  N   UNL     1      13.557   0.279   6.455  0.00  0.00    -0.204 NA
ATOM     33  H   UNL     1      12.617   0.202   6.682  0.00  0.00    +0.144 HD
ATOM     34  H   UNL     1      14.202   0.528   7.136  0.00  0.00    +0.144 HD
ENDBRANCH  29  32
ENDBRANCH  26  29
ENDBRANCH  22  23
ENDBRANCH  21  22
ENDBRANCH   3  21
TORSDOF 10
