REMARK  Name = ZINC14979738
REMARK  7 active torsions:
REMARK  status: ('A' for Active; 'I' for Inactive)
REMARK    1  A    between atoms: C_1  and  C_2
REMARK    2  A    between atoms: C_6  and  C_8
REMARK    3  A    between atoms: C_8  and  N_9
REMARK    4  A    between atoms: C_13  and  C_16
REMARK    5  A    between atoms: C_13  and  O_26
REMARK    6  A    between atoms: C_16  and  N_54
REMARK    7  A    between atoms: C_17  and  N_54
REMARK                            x       y       z     vdW  Elec       q    Type
REMARK                         _______ _______ _______ _____ _____    ______ ____
ROOT
ATOM      1  N   UNL     1      -1.992   2.376  -1.191  0.00  0.00    -0.295 N 
ATOM      2  C   UNL     1      -2.800   2.493   0.016  0.00  0.00    +0.108 C 
ATOM      3  C   UNL     1      -2.227   1.617   1.131  0.00  0.00    +0.022 C 
ATOM      4  C   UNL     1      -0.730   1.917   1.272  0.00  0.00    +0.044 C 
ATOM      5  C   UNL     1      -0.017   1.425   0.010  0.00  0.00    +0.127 C 
ATOM      6  C   UNL     1      -0.740   1.921  -1.210  0.00  0.00    +0.246 C 
ATOM      7  O   UNL     1      -0.153   1.906  -2.271  0.00  0.00    -0.273 OA
ENDROOT
BRANCH   5   8
ATOM      8  O   UNL     1       0.002  -0.004   0.002  0.00  0.00    -0.381 OA
ATOM      9  H   UNL     1       0.442  -0.387  -0.769  0.00  0.00    +0.211 HD
ENDBRANCH   5   8
BRANCH   1  10
ATOM     10  C   UNL     1      -2.594   2.784  -2.463  0.00  0.00    +0.143 C 
BRANCH  10  16
ATOM     11  C   UNL     1       0.319   6.389  -4.350  0.00  0.00    +0.044 C 
ATOM     12  C   UNL     1      -0.924   5.970  -3.607  0.00  0.00    -0.050 A 
ATOM     13  C   UNL     1      -1.810   6.927  -3.147  0.00  0.00    +0.003 A 
ATOM     14  C   UNL     1      -2.950   6.542  -2.466  0.00  0.00    +0.001 A 
ATOM     15  C   UNL     1      -3.205   5.201  -2.248  0.00  0.00    +0.005 A 
ATOM     16  C   UNL     1      -2.317   4.245  -2.704  0.00  0.00    -0.030 A 
ATOM     17  C   UNL     1      -1.178   4.630  -3.386  0.00  0.00    +0.008 A 
ENDBRANCH  10  16
ENDBRANCH   1  10
BRANCH   5  18
ATOM     18  C   UNL     1       1.419   1.953  -0.001  0.00  0.00    -0.037 C 
BRANCH  18  19
ATOM     19  N   UNL     1       2.063   1.573  -1.272  0.00  0.00    +0.384 N 
ATOM     20  H   UNL     1       1.536   1.980  -2.054  0.00  0.00    -0.085 HD
ATOM     21  H   UNL     1       2.067   0.550  -1.358  0.00  0.00    -0.085 HD
BRANCH  19  22
ATOM     22  C   UNL     1       3.452   2.070  -1.311  0.00  0.00    -0.063 C 
ATOM     23  C   UNL     1       3.509   3.493  -1.906  0.00  0.00    +0.020 C 
ATOM     24  C   UNL     1       4.799   3.534  -2.703  0.00  0.00    -0.046 A 
ATOM     25  C   UNL     1       5.522   4.613  -3.183  0.00  0.00    +0.004 A 
ATOM     26  C   UNL     1       6.689   4.408  -3.892  0.00  0.00    +0.000 A 
ATOM     27  C   UNL     1       7.138   3.121  -4.124  0.00  0.00    +0.000 A 
ATOM     28  C   UNL     1       6.419   2.043  -3.646  0.00  0.00    +0.004 A 
ATOM     29  C   UNL     1       5.248   2.247  -2.935  0.00  0.00    -0.046 A 
ATOM     30  C   UNL     1       4.292   1.252  -2.314  0.00  0.00    +0.020 C 
ENDBRANCH  19  22
ENDBRANCH  18  19
ENDBRANCH   5  18
TORSDOF 6
