REMARK  Name = ZINC43088706
REMARK  8 active torsions:
REMARK  status: ('A' for Active; 'I' for Inactive)
REMARK    1  A    between atoms: C_1  and  C_2
REMARK    2  A    between atoms: C_2  and  C_4
REMARK    3  A    between atoms: C_2  and  N_22
REMARK    4  A    between atoms: C_4  and  C_6
REMARK    5  A    between atoms: C_4  and  O_13
REMARK    6  A    between atoms: O_13  and  C_14
REMARK    7  A    between atoms: C_17  and  C_20
REMARK    8  A    between atoms: C_20  and  O_21
REMARK                            x       y       z     vdW  Elec       q    Type
REMARK                         _______ _______ _______ _____ _____    ______ ____
ROOT
ATOM      1  C   UNL     1       0.751  -0.518   1.249  0.00  0.00    +0.190 C 
ENDROOT
BRANCH   1   2
ATOM      2  C   UNL     1       0.859  -2.020   1.300  0.00  0.00    +0.009 A 
ATOM      3  C   UNL     1      -0.055  -2.756   2.031  0.00  0.00    +0.008 A 
ATOM      4  C   UNL     1       0.045  -4.133   2.078  0.00  0.00    +0.000 A 
ATOM      5  C   UNL     1       1.059  -4.777   1.393  0.00  0.00    +0.001 A 
ATOM      6  C   UNL     1       1.974  -4.043   0.662  0.00  0.00    +0.020 A 
ATOM      7  C   UNL     1       1.871  -2.664   0.610  0.00  0.00    +0.048 A 
ATOM      8 CL   UNL     1       3.015  -1.742  -0.314  0.00  0.00    -0.083 Cl
ENDBRANCH   1   2
BRANCH   1  10
ATOM      9  C   UNL     1      -0.147   1.420  -0.048  0.00  0.00    -0.010 C 
ATOM     10  C   UNL     1      -0.036  -0.106   0.004  0.00  0.00    -0.032 C 
BRANCH  10  11
ATOM     11  N   UNL     1       0.660  -0.587  -1.197  0.00  0.00    +0.382 N 
ATOM     12  H   UNL     1       1.584  -0.184  -1.234  0.00  0.00    -0.089 HD
ATOM     13  H   UNL     1       0.733  -1.593  -1.163  0.00  0.00    -0.089 HD
ATOM     14  H   UNL     1       0.141  -0.315  -2.018  0.00  0.00    -0.089 HD
ENDBRANCH  10  11
ENDBRANCH   1  10
BRANCH   1  15
ATOM     15  O   UNL     1       0.073  -0.050   2.417  0.00  0.00    -0.486 OA
BRANCH  15  16
ATOM     16  C   UNL     1       0.539   1.094   2.984  0.00  0.00    +0.121 A 
ATOM     17  C   UNL     1       0.009   1.540   4.186  0.00  0.00    +0.046 A 
ATOM     18  C   UNL     1       0.485   2.703   4.760  0.00  0.00    +0.009 A 
ATOM     19  C   UNL     1       1.488   3.423   4.137  0.00  0.00    -0.022 A 
ATOM     20  C   UNL     1       2.017   2.981   2.938  0.00  0.00    +0.009 A 
ATOM     21  C   UNL     1       1.549   1.815   2.364  0.00  0.00    +0.046 A 
BRANCH  19  22
ATOM     22  C   UNL     1       2.004   4.692   4.765  0.00  0.00    +0.191 C 
BRANCH  22  23
ATOM     23  O   UNL     1       3.095   4.383   5.635  0.00  0.00    -0.390 OA
ATOM     24  H   UNL     1       3.478   5.154   6.075  0.00  0.00    +0.210 HD
ENDBRANCH  22  23
ENDBRANCH  19  22
ENDBRANCH  15  16
ENDBRANCH   1  15
TORSDOF 7
