REMARK  Name = ZINC39500166
REMARK  6 active torsions:
REMARK  status: ('A' for Active; 'I' for Inactive)
REMARK    1  A    between atoms: C_1  and  C_2
REMARK    2  A    between atoms: C_5  and  N_9
REMARK    3  A    between atoms: C_7  and  C_8
REMARK    4  A    between atoms: C_15  and  N_21
REMARK    5  A    between atoms: N_21  and  C_22
REMARK    6  A    between atoms: C_22  and  C_23
REMARK                            x       y       z     vdW  Elec       q    Type
REMARK                         _______ _______ _______ _____ _____    ______ ____
ROOT
ATOM      1  N   UNL     1       0.059  -4.167  -0.021  0.00  0.00    -0.221 N 
ATOM      2  C   UNL     1       0.071  -5.030  -1.229  0.00  0.00    +0.105 C 
ATOM      3  C   UNL     1      -1.239  -4.818  -1.960  0.00  0.00    +0.025 C 
ATOM      4  C   UNL     1      -1.711  -6.061  -2.701  0.00  0.00    +0.000 C 
ATOM      5  C   UNL     1      -1.869  -7.193  -1.677  0.00  0.00    -0.015 C 
ATOM      6  C   UNL     1      -0.475  -7.569  -1.186  0.00  0.00    -0.061 C 
ATOM      7  C   UNL     1       0.305  -6.405  -0.645  0.00  0.00    +0.040 C 
ATOM      8  C   UNL     1       0.191  -6.233   0.846  0.00  0.00    +0.107 C 
ATOM      9  N   UNL     1       0.077  -4.990   1.105  0.00  0.00    -0.192 NA
ENDROOT
BRANCH   1  14
ATOM     10  C   UNL     1      -0.018   1.503   0.010  0.00  0.00    +0.044 C 
ATOM     11  C   UNL     1       0.002  -0.004   0.002  0.00  0.00    -0.047 A 
ATOM     12  C   UNL     1       0.006  -0.687  -1.201  0.00  0.00    +0.005 A 
ATOM     13  C   UNL     1       0.025  -2.068  -1.212  0.00  0.00    +0.025 A 
ATOM     14  C   UNL     1       0.041  -2.771  -0.013  0.00  0.00    +0.052 A 
ATOM     15  C   UNL     1       0.037  -2.081   1.193  0.00  0.00    +0.028 A 
ATOM     16  C   UNL     1       0.023  -0.700   1.197  0.00  0.00    -0.046 A 
ATOM     17  C   UNL     1       0.025   0.049   2.504  0.00  0.00    +0.044 C 
ENDBRANCH   1  14
BRANCH   6  18
ATOM     18  N   UNL     1       0.280  -8.149  -2.304  0.00  0.00    +0.385 N 
ATOM     19  H   UNL     1       0.280  -7.504  -3.080  0.00  0.00    -0.085 HD
ATOM     20  H   UNL     1       1.230  -8.326  -2.014  0.00  0.00    -0.085 HD
BRANCH  18  21
ATOM     21  C   UNL     1      -0.349  -9.411  -2.717  0.00  0.00    -0.028 C 
BRANCH  21  22
ATOM     22  C   UNL     1       0.425 -10.007  -3.865  0.00  0.00    -0.000 A 
ATOM     23  H   UNL     1      -0.404  -9.048  -5.518  0.00  0.00    +0.166 HD
ATOM     24  C   UNL     1       1.391 -10.931  -3.745  0.00  0.00    +0.029 A 
ATOM     25  C   UNL     1       1.871 -11.226  -5.098  0.00  0.00    -0.000 A 
ATOM     26  C   UNL     1       2.843 -12.082  -5.617  0.00  0.00    +0.010 A 
ATOM     27  C   UNL     1       3.057 -12.127  -6.966  0.00  0.00    +0.001 A 
ATOM     28  C   UNL     1       2.315 -11.327  -7.825  0.00  0.00    +0.002 A 
ATOM     29  C   UNL     1       1.350 -10.475  -7.333  0.00  0.00    +0.026 A 
ATOM     30  C   UNL     1       1.116 -10.413  -5.964  0.00  0.00    +0.047 A 
ATOM     31  N   UNL     1       0.242  -9.689  -5.183  0.00  0.00    -0.360 N 
ENDBRANCH  21  22
ENDBRANCH  18  21
ENDBRANCH   6  18
TORSDOF 4
