REMARK  Name = ZINC05649078
REMARK  12 active torsions:
REMARK  status: ('A' for Active; 'I' for Inactive)
REMARK    1  A    between atoms: C_1  and  C_2
REMARK    2  A    between atoms: C_2  and  C_3
REMARK    3  A    between atoms: C_2  and  C_4
REMARK    4  A    between atoms: C_8  and  O_12
REMARK    5  A    between atoms: C_9  and  O_10
REMARK    6  A    between atoms: O_10  and  C_11
REMARK    7  A    between atoms: O_12  and  C_13
REMARK    8  A    between atoms: C_18  and  C_37
REMARK    9  A    between atoms: C_18  and  C_38
REMARK   10  A    between atoms: C_23  and  N_25
REMARK   11  A    between atoms: C_26  and  C_28
REMARK   12  A    between atoms: C_28  and  N_78
REMARK                            x       y       z     vdW  Elec       q    Type
REMARK                         _______ _______ _______ _____ _____    ______ ____
ROOT
ATOM      1  C   UNL     1      -4.096  -0.188  -3.051  0.00  0.00    +0.001 A 
ATOM      2  C   UNL     1      -3.006   0.651  -2.932  0.00  0.00    +0.013 A 
ATOM      3  C   UNL     1      -2.130   0.821  -3.991  0.00  0.00    -0.015 A 
ATOM      4  C   UNL     1      -2.341   0.160  -5.193  0.00  0.00    +0.020 A 
ATOM      5  C   UNL     1      -3.416  -0.704  -5.302  0.00  0.00    +0.166 A 
ATOM      6  C   UNL     1      -4.302  -0.870  -4.236  0.00  0.00    +0.165 A 
ATOM      7  C   UNL     1      -1.369   0.377  -6.319  0.00  0.00    +0.103 C 
ATOM      8  C   UNL     1      -1.900   0.067  -7.692  0.00  0.00    +0.023 C 
ATOM      9  C   UNL     1      -3.062   1.031  -7.976  0.00  0.00    +0.002 C 
ATOM     10  C   UNL     1      -2.566   2.473  -7.988  0.00  0.00    +0.007 C 
ATOM     11  C   UNL     1      -1.889   2.856  -6.653  0.00  0.00    -0.027 C 
ATOM     12  C   UNL     1      -0.849   1.835  -6.338  0.00  0.00    +0.059 C 
ATOM     13  C   UNL     1      -0.066   1.802  -5.030  0.00  0.00    +0.206 C 
ATOM     14  C   UNL     1      -0.956   1.744  -3.801  0.00  0.00    +0.144 C 
ATOM     15  O   UNL     1       0.640   0.509  -5.166  0.00  0.00    -0.458 OA
ATOM     16  C   UNL     1      -0.100  -0.349  -5.914  0.00  0.00    +0.319 C 
ATOM     17  O   UNL     1       0.184  -1.483  -6.214  0.00  0.00    -0.250 OA
ATOM     18  C   UNL     1      -2.970   3.068  -5.600  0.00  0.00    +0.011 C 
ATOM     19  C   UNL     1      -1.188   4.219  -6.880  0.00  0.00    +0.011 C 
ENDROOT
BRANCH  14  20
ATOM     20  N   UNL     1      -0.158   1.254  -2.665  0.00  0.00    -0.306 N 
ATOM     21  C   UNL     1      -0.515   1.570  -1.405  0.00  0.00    +0.197 C 
ATOM     22  O   UNL     1      -1.494   2.258  -1.206  0.00  0.00    -0.278 OA
ATOM     23  H   UNL     1       0.625   0.704  -2.824  0.00  0.00    +0.149 HD
BRANCH  21  24
ATOM     24  C   UNL     1       0.302   1.068  -0.242  0.00  0.00    +0.019 C 
BRANCH  24  30
ATOM     25  C   UNL     1      -0.194   3.008   1.119  0.00  0.00    -0.078 C 
ATOM     26  C   UNL     1      -0.946   3.482   2.365  0.00  0.00    -0.019 C 
ATOM     27  C   UNL     1      -0.336   2.822   3.605  0.00  0.00    -0.004 C 
ATOM     28  C   UNL     1      -0.404   1.301   3.449  0.00  0.00    -0.019 C 
ATOM     29  C   UNL     1       0.332   0.890   2.172  0.00  0.00    -0.078 C 
ATOM     30  N   UNL     1      -0.318   1.538   1.014  0.00  0.00    +0.385 N 
ATOM     31  H   UNL     1      -1.314   1.288   1.007  0.00  0.00    -0.081 HD
ENDBRANCH  24  30
ENDBRANCH  21  24
ENDBRANCH  14  20
BRANCH   1  33
ATOM     32  C   UNL     1      -4.298  -0.907  -0.688  0.00  0.00    +0.012 C 
ATOM     33  C   UNL     1      -5.052  -0.357  -1.900  0.00  0.00    +0.017 C 
ATOM     34  C   UNL     1      -5.669   0.997  -1.546  0.00  0.00    +0.012 C 
ENDBRANCH   1  33
BRANCH   6  35
ATOM     35  O   UNL     1      -5.363  -1.712  -4.366  0.00  0.00    -0.491 OA
ATOM     36  C   UNL     1      -5.205  -3.038  -3.855  0.00  0.00    +0.277 C 
ENDBRANCH   6  35
BRANCH   5  37
ATOM     37  O   UNL     1      -3.654  -1.429  -6.427  0.00  0.00    -0.491 OA
ATOM     38  C   UNL     1      -2.989  -2.689  -6.540  0.00  0.00    +0.277 C 
ENDBRANCH   5  37
TORSDOF 6
