REMARK  Name = ZINC19863437
REMARK  4 active torsions:
REMARK  status: ('A' for Active; 'I' for Inactive)
REMARK    1  A    between atoms: C_1  and  N_2
REMARK    2  A    between atoms: C_6  and  S_7
REMARK    3  A    between atoms: S_7  and  C_8
REMARK    4  A    between atoms: C_9  and  C_14
REMARK                            x       y       z     vdW  Elec       q    Type
REMARK                         _______ _______ _______ _____ _____    ______ ____
ROOT
ATOM      1  C   UNL     1      -0.151   3.805   0.024  0.00  0.00    +0.115 A 
ATOM      2  C   UNL     1       1.109   3.186   0.009  0.00  0.00    +0.044 A 
ATOM      3  C   UNL     1       1.174   1.790   0.001  0.00  0.00    +0.015 A 
ATOM      4  C   UNL     1      -0.013   1.076   0.008  0.00  0.00    +0.020 A 
ATOM      5  C   UNL     1      -1.216   1.756   0.017  0.00  0.00    +0.112 A 
ATOM      6  N   UNL     1      -1.256   3.074   0.031  0.00  0.00    -0.248 NA
ENDROOT
BRANCH   2   7
ATOM      7  C   UNL     1       2.345   3.996   0.001  0.00  0.00    +0.097 C 
ATOM      8  N   UNL     1       2.272   5.298   0.008  0.00  0.00    -0.387 N 
ATOM      9  N   UNL     1       3.576   3.375  -0.015  0.00  0.00    -0.344 N 
ATOM     10  H   UNL     1       3.191   5.901   0.003  0.00  0.00    +0.157 HD
ATOM     11  H   UNL     1       4.496   3.978  -0.021  0.00  0.00    +0.144 HD
ATOM     12  H   UNL     1       3.638   2.277  -0.021  0.00  0.00    +0.144 HD
ATOM     13  H   UNL     1       1.289   5.793   0.021  0.00  0.00    +0.157 HD
ENDBRANCH   2   7
BRANCH   1  14
ATOM     14  S   UNL     1      -0.263   5.563   0.035  0.00  0.00    -0.030 S 
BRANCH  14  20
ATOM     15  C   UNL     1      -2.134   8.290   0.067  0.00  0.00    +0.152 C 
ATOM     16  N   UNL     1      -2.700   6.939   0.065  0.00  0.00    -0.311 N 
ATOM     17  C   UNL     1      -4.023   6.599   0.076  0.00  0.00    +0.225 A 
ATOM     18  N   UNL     1      -4.090   5.297   0.070  0.00  0.00    -0.137 NA
ATOM     19  N   UNL     1      -2.906   4.795   0.050  0.00  0.00    -0.122 NA
ATOM     20  C   UNL     1      -2.014   5.758   0.052  0.00  0.00    +0.197 A 
ENDBRANCH  14  20
ENDBRANCH   1  14
TORSDOF 3
