REMARK  Name = ZINC06296246
REMARK  13 active torsions:
REMARK  status: ('A' for Active; 'I' for Inactive)
REMARK    1  A    between atoms: C_1  and  C_2
REMARK    2  A    between atoms: C_2  and  C_3
REMARK    3  A    between atoms: C_3  and  C_5
REMARK    4  A    between atoms: C_3  and  N_6
REMARK    5  A    between atoms: C_7  and  C_9
REMARK    6  A    between atoms: C_14  and  N_15
REMARK    7  A    between atoms: C_16  and  C_18
REMARK    8  A    between atoms: C_21  and  C_36
REMARK    9  A    between atoms: C_22  and  S_24
REMARK   10  A    between atoms: S_24  and  N_27
REMARK   11  A    between atoms: N_27  and  C_28
REMARK   12  A    between atoms: C_30  and  C_35
REMARK   13  A    between atoms: C_33  and  C_34
REMARK                            x       y       z     vdW  Elec       q    Type
REMARK                         _______ _______ _______ _____ _____    ______ ____
ROOT
ATOM      1  C   UNL     1      -0.266   0.665   1.303  0.00  0.00    +0.039 A 
ATOM      2  C   UNL     1       0.978   1.287   1.172  0.00  0.00    +0.013 A 
ATOM      3  C   UNL     1       2.102   0.528   0.919  0.00  0.00    +0.006 A 
ATOM      4  C   UNL     1       1.998  -0.847   0.795  0.00  0.00    -0.024 A 
ATOM      5  C   UNL     1       0.769  -1.469   0.923  0.00  0.00    +0.112 A 
ATOM      6  C   UNL     1      -0.362  -0.722   1.176  0.00  0.00    +0.042 A 
ATOM      7  C   UNL     1       3.230  -1.669   0.519  0.00  0.00    +0.046 C 
ENDROOT
BRANCH   1   9
ATOM      8  N   UNL     1      -1.378   2.811   1.689  0.00  0.00    -0.281 N 
ATOM      9  C   UNL     1      -1.475   1.473   1.568  0.00  0.00    +0.248 C 
ATOM     10  O   UNL     1      -2.557   0.929   1.676  0.00  0.00    -0.270 OA
ATOM     11  H   UNL     1      -0.528   3.252   1.535  0.00  0.00    +0.155 HD
BRANCH   8  17
ATOM     12  C   UNL     1      -2.351   4.758   2.753  0.00  0.00    +0.058 A 
ATOM     13  C   UNL     1      -3.483   5.504   3.091  0.00  0.00    +0.015 A 
ATOM     14  C   UNL     1      -4.734   5.057   2.727  0.00  0.00    +0.001 A 
ATOM     15  C   UNL     1      -4.877   3.872   2.022  0.00  0.00    +0.002 A 
ATOM     16  C   UNL     1      -3.767   3.127   1.677  0.00  0.00    +0.024 A 
ATOM     17  C   UNL     1      -2.498   3.562   2.035  0.00  0.00    +0.046 A 
BRANCH  12  19
ATOM     18  N   UNL     1      -0.877   6.325   3.916  0.00  0.00    -0.309 N 
ATOM     19  C   UNL     1      -1.009   5.228   3.145  0.00  0.00    +0.246 C 
ATOM     20  O   UNL     1      -0.021   4.625   2.772  0.00  0.00    -0.270 OA
ATOM     21  H   UNL     1      -1.665   6.806   4.213  0.00  0.00    +0.149 HD
BRANCH  18  22
ATOM     22  C   UNL     1       0.456   6.792   4.306  0.00  0.00    +0.070 C 
ATOM     23  C   UNL     1       1.028   7.680   3.199  0.00  0.00    +0.028 C 
BRANCH  22  25
ATOM     24  C   UNL     1      -0.098   6.675   6.739  0.00  0.00    +0.005 C 
ATOM     25  C   UNL     1       0.356   7.595   5.604  0.00  0.00    +0.018 C 
ENDBRANCH  22  25
ENDBRANCH  18  22
ENDBRANCH  12  19
ENDBRANCH   8  17
ENDBRANCH   1   9
BRANCH   5  26
ATOM     26  S   UNL     1       0.649  -3.220   0.763  0.00  0.00    +0.073 S 
ATOM     27  O   UNL     1      -0.720  -3.551   0.951  0.00  0.00    -0.150 OA
ATOM     28  O   UNL     1       1.364  -3.570  -0.414  0.00  0.00    -0.150 OA
BRANCH  26  29
ATOM     29  N   UNL     1       1.476  -3.885   2.035  0.00  0.00    -0.216 N 
ATOM     30  H   UNL     1       2.229  -4.473   1.869  0.00  0.00    +0.174 HD
BRANCH  29  31
ATOM     31  C   UNL     1       1.088  -3.599   3.346  0.00  0.00    +0.051 A 
ATOM     32  C   UNL     1      -0.257  -3.446   3.656  0.00  0.00    +0.028 A 
ATOM     33  C   UNL     1      -0.637  -3.168   4.954  0.00  0.00    -0.049 A 
ATOM     34  C   UNL     1       0.320  -3.033   5.943  0.00  0.00    +0.004 A 
ATOM     35  C   UNL     1       1.661  -3.180   5.637  0.00  0.00    +0.005 A 
ATOM     36  C   UNL     1       2.047  -3.463   4.341  0.00  0.00    -0.028 A 
ATOM     37  C   UNL     1       3.508  -3.623   4.008  0.00  0.00    +0.046 C 
ATOM     38  C   UNL     1      -2.097  -3.006   5.293  0.00  0.00    +0.044 C 
ENDBRANCH  29  31
ENDBRANCH  26  29
ENDBRANCH   5  26
TORSDOF 8
