REMARK  Name = ZINC66246687
REMARK  6 active torsions:
REMARK  status: ('A' for Active; 'I' for Inactive)
REMARK    1  A    between atoms: C_1  and  C_2
REMARK    2  A    between atoms: C_2  and  C_4
REMARK    3  A    between atoms: C_2  and  C_16
REMARK    4  A    between atoms: C_4  and  N_5
REMARK    5  A    between atoms: N_7  and  C_8
REMARK    6  A    between atoms: C_8  and  C_9
REMARK                            x       y       z     vdW  Elec       q    Type
REMARK                         _______ _______ _______ _____ _____    ______ ____
ROOT
ATOM      1  N   UNL     1      -0.055  -0.114  -2.441  0.00  0.00    -0.357 N 
ATOM      2  C   UNL     1       0.396  -0.451  -3.695  0.00  0.00    +0.169 C 
ATOM      3  N   UNL     1      -0.292  -0.110  -4.748  0.00  0.00    -0.355 N 
ATOM      4  N   UNL     1       1.572  -1.149  -3.838  0.00  0.00    -0.371 N 
ATOM      5  H   UNL     1      -0.885   0.378  -2.339  0.00  0.00    +0.162 HD
ATOM      6  H   UNL     1       2.083  -1.403  -3.054  0.00  0.00    +0.159 HD
ATOM      7  H   UNL     1       1.889  -1.387  -4.723  0.00  0.00    +0.159 HD
ATOM      8  H   UNL     1      -1.122   0.382  -4.647  0.00  0.00    +0.162 HD
ENDROOT
BRANCH   1   9
ATOM      9  C   UNL     1       0.718  -0.497  -1.257  0.00  0.00    +0.123 C 
BRANCH   9  11
ATOM     10  C   UNL     1      -0.019   1.526   0.010  0.00  0.00    +0.014 C 
ATOM     11  C   UNL     1       0.002  -0.004   0.002  0.00  0.00    +0.038 C 
BRANCH  11  12
ATOM     12  C   UNL     1       0.731  -0.503   1.223  0.00  0.00    -0.006 A 
ATOM     13  C   UNL     1       2.051  -0.148   1.434  0.00  0.00    +0.046 A 
ATOM     14  C   UNL     1       2.720  -0.607   2.555  0.00  0.00    +0.020 A 
ATOM     15  C   UNL     1       2.069  -1.420   3.464  0.00  0.00    +0.003 A 
ATOM     16  C   UNL     1       0.750  -1.776   3.253  0.00  0.00    +0.020 A 
ATOM     17  C   UNL     1       0.079  -1.312   2.136  0.00  0.00    +0.046 A 
ATOM     18 CL   UNL     1      -1.580  -1.753   1.875  0.00  0.00    -0.083 Cl
ATOM     19 CL   UNL     1       2.869   0.873   0.293  0.00  0.00    -0.083 Cl
ENDBRANCH  11  12
ENDBRANCH   9  11
ENDBRANCH   1   9
BRANCH   3  20
ATOM     20  C   UNL     1       0.188  -0.470  -6.085  0.00  0.00    +0.147 C 
BRANCH  20  21
ATOM     21  C   UNL     1      -0.797   0.046  -7.136  0.00  0.00    +0.137 C 
ATOM     22  C   UNL     1      -0.363  -0.432  -8.539  0.00  0.00    +0.035 C 
ATOM     23  C   UNL     1      -0.668   0.811  -9.419  0.00  0.00    +0.031 C 
ATOM     24  C   UNL     1      -0.352   1.958  -8.426  0.00  0.00    +0.160 C 
ATOM     25  O   UNL     1      -0.793   1.478  -7.144  0.00  0.00    -0.375 OA
ENDBRANCH  20  21
ENDBRANCH   3  20
TORSDOF 5
