REMARK  Name = ZINC39933395
REMARK  10 active torsions:
REMARK  status: ('A' for Active; 'I' for Inactive)
REMARK    1  A    between atoms: C_1  and  C_2
REMARK    2  A    between atoms: C_2  and  C_4
REMARK    3  A    between atoms: C_2  and  N_14
REMARK    4  A    between atoms: C_7  and  S_10
REMARK    5  A    between atoms: S_10  and  N_13
REMARK    6  A    between atoms: C_15  and  C_17
REMARK    7  A    between atoms: C_17  and  S_18
REMARK    8  A    between atoms: S_18  and  C_19
REMARK    9  A    between atoms: C_23  and  C_28
REMARK   10  A    between atoms: N_24  and  C_25
REMARK                            x       y       z     vdW  Elec       q    Type
REMARK                         _______ _______ _______ _____ _____    ______ ____
ROOT
ATOM      1  S   UNL     1       4.766  -0.920   2.151  0.00  0.00    -0.109 S 
ENDROOT
BRANCH   1   2
ATOM      2  C   UNL     1       5.344  -1.790   3.635  0.00  0.00    +0.237 C 
ATOM      3  N   UNL     1       5.107  -0.972   4.836  0.00  0.00    -0.237 N 
ATOM      4  N   UNL     1       4.239  -1.707   5.652  0.00  0.00    -0.169 NA
ATOM      5  C   UNL     1       3.925  -2.850   5.103  0.00  0.00    +0.147 C 
ATOM      6  N   UNL     1       4.549  -3.008   3.860  0.00  0.00    -0.282 N 
ATOM      7  H   UNL     1       5.480  -0.097   5.025  0.00  0.00    +0.171 HD
BRANCH   5   8
ATOM      8  C   UNL     1       3.072  -3.800   5.686  0.00  0.00    +0.022 C 
ATOM      9  C   UNL     1       2.344  -3.667   6.868  0.00  0.00    +0.006 A 
ATOM     10  C   UNL     1       2.227  -2.615   7.802  0.00  0.00    +0.010 A 
ATOM     11  C   UNL     1       1.425  -2.765   8.888  0.00  0.00    +0.001 A 
ATOM     12  C   UNL     1       0.706  -3.941   9.109  0.00  0.00    +0.002 A 
ATOM     13  C   UNL     1       0.771  -4.991   8.253  0.00  0.00    +0.026 A 
ATOM     14  C   UNL     1       1.588  -4.909   7.096  0.00  0.00    +0.043 A 
ATOM     15  N   UNL     1       1.818  -5.773   6.128  0.00  0.00    -0.380 N 
ATOM     16  C   UNL     1       2.746  -5.181   5.160  0.00  0.00    +0.152 C 
ATOM     17  H   UNL     1       1.430  -6.660   6.063  0.00  0.00    +0.160 HD
ENDBRANCH   5   8
BRANCH   6  18
ATOM     18  C   UNL     1       4.435  -4.158   2.959  0.00  0.00    +0.078 C 
ATOM     19  C   UNL     1       5.288  -4.147   1.688  0.00  0.00    +0.024 C 
ATOM     20  C   UNL     1       3.777  -3.926   1.597  0.00  0.00    +0.024 C 
ENDBRANCH   6  18
ENDBRANCH   1   2
BRANCH   1  21
ATOM     21  C   UNL     1       3.017  -0.581   2.495  0.00  0.00    +0.168 C 
BRANCH  21  23
ATOM     22  N   UNL     1       1.109   0.506   1.357  0.00  0.00    -0.308 N 
ATOM     23  C   UNL     1       2.408   0.148   1.325  0.00  0.00    +0.223 C 
ATOM     24  O   UNL     1       3.086   0.414   0.356  0.00  0.00    -0.275 OA
ATOM     25  H   UNL     1       0.566   0.294   2.132  0.00  0.00    +0.149 HD
BRANCH  22  27
ATOM     26  C   UNL     1       0.781   2.716   0.361  0.00  0.00    +0.033 C 
ATOM     27  C   UNL     1       0.516   1.215   0.220  0.00  0.00    +0.100 C 
BRANCH  27  28
ATOM     28  C   UNL     1      -0.970   0.968   0.193  0.00  0.00    -0.027 A 
ATOM     29  C   UNL     1      -1.690   0.955   1.373  0.00  0.00    +0.007 A 
ATOM     30  C   UNL     1      -3.053   0.728   1.348  0.00  0.00    +0.029 A 
ATOM     31  C   UNL     1      -3.697   0.515   0.143  0.00  0.00    +0.105 A 
ATOM     32  C   UNL     1      -2.977   0.529  -1.037  0.00  0.00    +0.029 A 
ATOM     33  C   UNL     1      -1.614   0.760  -1.012  0.00  0.00    +0.007 A 
BRANCH  31  34
ATOM     34  S   UNL     1      -5.434   0.225   0.112  0.00  0.00    +0.056 S 
ATOM     35  O   UNL     1      -5.706  -0.487  -1.088  0.00  0.00    -0.153 OA
ATOM     36  O   UNL     1      -5.785  -0.280   1.393  0.00  0.00    -0.153 OA
BRANCH  34  37
ATOM     37  N   UNL     1      -6.175   1.699  -0.035  0.00  0.00    -0.204 NA
ATOM     38  H   UNL     1      -5.640   2.507  -0.085  0.00  0.00    +0.144 HD
ATOM     39  H   UNL     1      -7.142   1.755  -0.070  0.00  0.00    +0.144 HD
ENDBRANCH  34  37
ENDBRANCH  31  34
ENDBRANCH  27  28
ENDBRANCH  22  27
ENDBRANCH  21  23
ENDBRANCH   1  21
TORSDOF 9
