REMARK  Name = ZINC36267743
REMARK  6 active torsions:
REMARK  status: ('A' for Active; 'I' for Inactive)
REMARK    1  A    between atoms: C_1  and  C_2
REMARK    2  A    between atoms: C_3  and  N_15
REMARK    3  A    between atoms: C_4  and  N_8
REMARK    4  A    between atoms: N_5  and  C_7
REMARK    5  A    between atoms: N_8  and  C_9
REMARK    6  A    between atoms: C_12  and  N_14
REMARK                            x       y       z     vdW  Elec       q    Type
REMARK                         _______ _______ _______ _____ _____    ______ ____
ROOT
ATOM      1  C   UNL     1       0.116   1.301   0.451  0.00  0.00    +0.070 C 
ATOM      2  C   UNL     1      -0.093  -0.174   0.223  0.00  0.00    +0.092 A 
ATOM      3  C   UNL     1       0.534  -0.947  -0.759  0.00  0.00    +0.188 A 
ATOM      4  C   UNL     1       0.080  -2.225  -0.636  0.00  0.00    +0.148 A 
ATOM      5  N   UNL     1      -0.801  -2.248   0.390  0.00  0.00    -0.251 N 
ATOM      6  N   UNL     1      -0.887  -0.951   0.913  0.00  0.00    -0.173 NA
ATOM      7  C   UNL     1      -1.534  -3.422   0.871  0.00  0.00    +0.174 C 
ENDROOT
BRANCH   3   8
ATOM      8  N   UNL     1       1.516  -0.463  -1.755  0.00  0.00    +0.062 N 
ATOM      9  O   UNL     1       2.697  -0.478  -1.496  0.00  0.00    -0.126 OA
ATOM     10  O   UNL     1       1.138  -0.052  -2.827  0.00  0.00    -0.126 OA
ENDBRANCH   3   8
BRANCH   4  11
ATOM     11  N   UNL     1       0.455  -3.311  -1.422  0.00  0.00    -0.326 N 
ATOM     12  H   UNL     1       0.190  -3.348  -2.355  0.00  0.00    +0.148 HD
BRANCH  11  13
ATOM     13  C   UNL     1       1.250  -4.396  -0.842  0.00  0.00    +0.056 C 
ATOM     14  C   UNL     1       0.803  -5.830  -1.129  0.00  0.00    +0.006 C 
ATOM     15  C   UNL     1       2.059  -5.270  -1.802  0.00  0.00    -0.053 C 
BRANCH  15  16
ATOM     16  N   UNL     1       1.979  -4.958  -3.235  0.00  0.00    +0.381 N 
ATOM     17  H   UNL     1       2.305  -4.016  -3.393  0.00  0.00    -0.090 HD
ATOM     18  H   UNL     1       2.554  -5.605  -3.753  0.00  0.00    -0.090 HD
ATOM     19  H   UNL     1       1.021  -5.038  -3.544  0.00  0.00    -0.090 HD
ENDBRANCH  15  16
ENDBRANCH  11  13
ENDBRANCH   4  11
TORSDOF 4
