REMARK  Name = ZINC01280165
REMARK  15 active torsions:
REMARK  status: ('A' for Active; 'I' for Inactive)
REMARK    1  A    between atoms: C_1  and  C_2
REMARK    2  A    between atoms: C_13  and  C_22
REMARK    3  A    between atoms: C_15  and  O_21
REMARK    4  A    between atoms: C_17  and  O_20
REMARK    5  A    between atoms: C_23  and  O_43
REMARK    6  A    between atoms: C_26  and  C_28
REMARK    7  A    between atoms: C_28  and  C_42
REMARK    8  A    between atoms: C_29  and  C_36
REMARK    9  A    between atoms: C_32  and  C_34
REMARK   10  A    between atoms: C_32  and  C_35
REMARK   11  A    between atoms: C_36  and  C_37
REMARK   12  A    between atoms: C_37  and  C_38
REMARK   13  A    between atoms: C_38  and  C_39
REMARK   14  A    between atoms: C_38  and  C_40
REMARK   15  A    between atoms: C_38  and  O_41
REMARK                            x       y       z     vdW  Elec       q    Type
REMARK                         _______ _______ _______ _____ _____    ______ ____
ROOT
ATOM      1  C   UNL     1       1.349   2.253  -1.116  0.00  0.00    +0.015 C 
ATOM      2  C   UNL     1       1.191   0.842  -0.545  0.00  0.00    +0.006 C 
ATOM      3  C   UNL     1      -0.273   0.465  -0.531  0.00  0.00    +0.011 C 
ATOM      4  C   UNL     1      -1.037   1.624   0.128  0.00  0.00    +0.009 C 
ATOM      5  C   UNL     1      -0.539   1.913   1.544  0.00  0.00    +0.025 C 
ATOM      6  C   UNL     1       0.964   1.958   1.613  0.00  0.00    -0.031 C 
ATOM      7  C   UNL     1       1.648   2.899   2.253  0.00  0.00    +0.049 C 
ATOM      8  C   UNL     1       0.937   3.974   2.955  0.00  0.00    +0.160 C 
ATOM      9  O   UNL     1       1.481   5.022   3.233  0.00  0.00    -0.292 OA
ATOM     10  C   UNL     1      -0.509   3.708   3.316  0.00  0.00    +0.069 C 
ATOM     11  C   UNL     1      -1.202   3.175   2.067  0.00  0.00    -0.013 C 
ATOM     12  C   UNL     1      -2.670   2.892   2.399  0.00  0.00    +0.041 C 
ATOM     13  C   UNL     1      -2.745   1.851   3.518  0.00  0.00    +0.144 C 
ATOM     14  C   UNL     1      -2.033   2.385   4.763  0.00  0.00    +0.144 C 
ATOM     15  C   UNL     1      -0.568   2.682   4.449  0.00  0.00    +0.046 C 
ATOM     16  C   UNL     1      -1.160   4.244   0.974  0.00  0.00    +0.012 C 
ATOM     17  C   UNL     1       1.685   0.821   0.929  0.00  0.00    +0.093 C 
ATOM     18  C   UNL     1       3.196   0.969   0.739  0.00  0.00    +0.040 C 
ATOM     19  C   UNL     1       3.485   0.023  -0.461  0.00  0.00    +0.010 C 
ATOM     20  C   UNL     1       2.154  -0.102  -1.248  0.00  0.00    +0.032 C 
ENDROOT
BRANCH  20  21
ATOM     21  C   UNL     1       1.632  -1.539  -1.184  0.00  0.00    +0.099 C 
ATOM     22  C   UNL     1       2.711  -2.536  -1.675  0.00  0.00    +0.154 C 
ATOM     23  O   UNL     1       2.332  -3.747  -0.977  0.00  0.00    -0.343 OA
ATOM     24  C   UNL     1       1.857  -3.299   0.304  0.00  0.00    +0.166 C 
ATOM     25  O   UNL     1       1.413  -1.941   0.184  0.00  0.00    -0.340 OA
ATOM     26  C   UNL     1       2.989  -3.382   1.330  0.00  0.00    +0.074 C 
ATOM     27  C   UNL     1       0.692  -4.182   0.757  0.00  0.00    +0.074 C 
ATOM     28  C   UNL     1       0.346  -1.682  -2.001  0.00  0.00    +0.044 C 
BRANCH  22  29
ATOM     29  C   UNL     1       2.630  -2.728  -3.190  0.00  0.00    +0.037 C 
BRANCH  29  30
ATOM     30  C   UNL     1       3.785  -3.618  -3.654  0.00  0.00    +0.037 C 
BRANCH  30  31
ATOM     31  C   UNL     1       3.705  -3.810  -5.169  0.00  0.00    +0.061 C 
ATOM     32  C   UNL     1       4.783  -4.799  -5.616  0.00  0.00    +0.041 C 
ATOM     33  C   UNL     1       2.325  -4.357  -5.542  0.00  0.00    +0.041 C 
BRANCH  31  34
ATOM     34  O   UNL     1       3.910  -2.555  -5.820  0.00  0.00    -0.389 OA
ATOM     35  H   UNL     1       4.767  -2.148  -5.629  0.00  0.00    +0.210 HD
ENDBRANCH  31  34
ENDBRANCH  30  31
ENDBRANCH  29  30
ENDBRANCH  22  29
ENDBRANCH  20  21
BRANCH  14  36
ATOM     36  O   UNL     1      -2.101   1.409   5.805  0.00  0.00    -0.389 OA
ATOM     37  H   UNL     1      -3.002   1.177   6.069  0.00  0.00    +0.210 HD
ENDBRANCH  14  36
BRANCH  13  38
ATOM     38  O   UNL     1      -2.111   0.644   3.089  0.00  0.00    -0.389 OA
ATOM     39  H   UNL     1      -2.121  -0.062   3.750  0.00  0.00    +0.210 HD
ENDBRANCH  13  38
BRANCH  17  40
ATOM     40  O   UNL     1       1.363  -0.422   1.557  0.00  0.00    -0.384 OA
ATOM     41  H   UNL     1       1.651  -0.483   2.478  0.00  0.00    +0.211 HD
ENDBRANCH  17  40
TORSDOF 8
