REMARK  Name = ZINC39688277
REMARK  9 active torsions:
REMARK  status: ('A' for Active; 'I' for Inactive)
REMARK    1  A    between atoms: C_1  and  O_2
REMARK    2  A    between atoms: O_2  and  C_3
REMARK    3  A    between atoms: C_6  and  C_13
REMARK    4  A    between atoms: C_8  and  C_9
REMARK    5  A    between atoms: C_17  and  C_26
REMARK    6  A    between atoms: N_28  and  C_29
REMARK    7  A    between atoms: C_29  and  C_30
REMARK    8  A    between atoms: C_30  and  O_31
REMARK    9  A    between atoms: O_31  and  C_32
REMARK                            x       y       z     vdW  Elec       q    Type
REMARK                         _______ _______ _______ _____ _____    ______ ____
ROOT
ATOM      1  C   UNL     1       2.199  -2.627  -4.208  0.00  0.00    +0.247 C 
ATOM      2  O   UNL     1       2.134  -3.816  -4.451  0.00  0.00    -0.270 OA
ATOM      3  N   UNL     1       2.696  -1.777  -5.129  0.00  0.00    -0.296 N 
ATOM      4  C   UNL     1       2.791  -0.300  -5.045  0.00  0.00    +0.121 C 
ATOM      5  C   UNL     1       4.157   0.040  -5.681  0.00  0.00    +0.100 C 
ATOM      6  C   UNL     1       4.466  -1.149  -6.606  0.00  0.00    -0.004 C 
ATOM      7  C   UNL     1       3.277  -2.109  -6.452  0.00  0.00    +0.115 C 
ATOM      8  C   UNL     1       4.581  -0.678  -8.053  0.00  0.00    -0.010 C 
ATOM      9  C   UNL     1       4.946  -1.867  -8.945  0.00  0.00    -0.082 C 
ATOM     10  N   UNL     1       6.218  -2.446  -8.496  0.00  0.00    +0.379 N 
ATOM     11  C   UNL     1       6.072  -2.981  -7.137  0.00  0.00    -0.082 C 
ATOM     12  C   UNL     1       5.755  -1.839  -6.168  0.00  0.00    -0.010 C 
ATOM     13  H   UNL     1       6.486  -3.191  -9.122  0.00  0.00    -0.086 HD
ATOM     14  H   UNL     1       6.931  -1.733  -8.501  0.00  0.00    -0.086 HD
ENDROOT
BRANCH   1  18
ATOM     15  C   UNL     1       0.862  -1.149  -0.458  0.00  0.00    +0.132 A 
ATOM     16  C   UNL     1       0.881  -0.310  -1.567  0.00  0.00    +0.047 A 
ATOM     17  C   UNL     1       1.314  -0.786  -2.784  0.00  0.00    +0.016 A 
ATOM     18  C   UNL     1       1.735  -2.113  -2.905  0.00  0.00    +0.038 A 
ATOM     19  C   UNL     1       1.714  -2.952  -1.788  0.00  0.00    +0.029 A 
ATOM     20  C   UNL     1       1.285  -2.468  -0.573  0.00  0.00    +0.097 A 
BRANCH  20  21
ATOM     21  C   UNL     1       1.267  -3.371   0.634  0.00  0.00    +0.421 C 
ATOM     22  F   UNL     1       1.734  -4.640   0.273  0.00  0.00    -0.166 F 
ATOM     23  F   UNL     1       2.093  -2.836   1.629  0.00  0.00    -0.166 F 
ATOM     24  F   UNL     1      -0.041  -3.475   1.119  0.00  0.00    -0.166 F 
ENDBRANCH  20  21
BRANCH  15  26
ATOM     25  C   UNL     1      -0.088   0.653   0.765  0.00  0.00    +0.277 C 
ATOM     26  O   UNL     1       0.435  -0.677   0.741  0.00  0.00    -0.495 OA
ENDBRANCH  15  26
ENDBRANCH   1  18
BRANCH   5  27
ATOM     27  C   UNL     1       5.215   0.168  -4.616  0.00  0.00    +0.218 C 
ATOM     28  O   UNL     1       5.126  -0.478  -3.593  0.00  0.00    -0.275 OA
ATOM     29  N   UNL     1       6.260   0.999  -4.800  0.00  0.00    -0.312 N 
ATOM     30  H   UNL     1       6.297   1.565  -5.587  0.00  0.00    +0.149 HD
BRANCH  29  31
ATOM     31  C   UNL     1       7.340   1.048  -3.811  0.00  0.00    +0.145 C 
BRANCH  31  32
ATOM     32  C   UNL     1       8.331   2.149  -4.193  0.00  0.00    +0.247 C 
BRANCH  32  33
ATOM     33  O   UNL     1       7.687   3.422  -4.104  0.00  0.00    -0.490 OA
BRANCH  33  34
ATOM     34  C   UNL     1       8.420   4.511  -4.457  0.00  0.00    +0.121 A 
ATOM     35  C   UNL     1       9.693   4.349  -4.985  0.00  0.00    +0.048 A 
ATOM     36  C   UNL     1      10.437   5.457  -5.343  0.00  0.00    +0.042 A 
ATOM     37  C   UNL     1       9.913   6.728  -5.174  0.00  0.00    +0.124 A 
ATOM     38  C   UNL     1       8.643   6.890  -4.647  0.00  0.00    +0.042 A 
ATOM     39  C   UNL     1       7.894   5.784  -4.294  0.00  0.00    +0.048 A 
ATOM     40  F   UNL     1      10.642   7.810  -5.524  0.00  0.00    -0.205 F 
ENDBRANCH  33  34
ENDBRANCH  32  33
ENDBRANCH  31  32
ENDBRANCH  29  31
ENDBRANCH   5  27
TORSDOF 8
