REMARK  Name = ZINC33932194
REMARK  16 active torsions:
REMARK  status: ('A' for Active; 'I' for Inactive)
REMARK    1  A    between atoms: C_1  and  C_2
REMARK    2  A    between atoms: C_2  and  C_3
REMARK    3  A    between atoms: C_3  and  C_5
REMARK    4  A    between atoms: C_3  and  O_6
REMARK    5  A    between atoms: O_6  and  C_7
REMARK    6  A    between atoms: C_7  and  C_9
REMARK    7  A    between atoms: C_10  and  C_41
REMARK    8  A    between atoms: C_14  and  C_16
REMARK    9  A    between atoms: C_19  and  O_24
REMARK   10  A    between atoms: C_20  and  O_22
REMARK   11  A    between atoms: O_22  and  C_23
REMARK   12  A    between atoms: C_28  and  C_31
REMARK   13  A    between atoms: C_34  and  O_39
REMARK   14  A    between atoms: C_35  and  O_37
REMARK   15  A    between atoms: O_37  and  C_38
REMARK   16  A    between atoms: O_39  and  C_40
REMARK                            x       y       z     vdW  Elec       q    Type
REMARK                         _______ _______ _______ _____ _____    ______ ____
ROOT
ATOM      1  C   UNL     1       4.015   0.738  -2.442  0.00  0.00    +0.065 C 
ATOM      2  C   UNL     1       4.686   0.647  -3.603  0.00  0.00    +0.016 C 
ATOM      3  N   UNL     1       6.042   0.814  -3.634  0.00  0.00    -0.321 N 
ATOM      4  C   UNL     1       6.690   1.452  -2.610  0.00  0.00    +0.016 C 
ATOM      5  C   UNL     1       6.104   1.575  -1.400  0.00  0.00    +0.024 C 
ATOM      6  C   UNL     1       4.726   1.019  -1.151  0.00  0.00    +0.092 C 
ATOM      7  C   UNL     1       6.759   2.225  -0.339  0.00  0.00    +0.162 C 
ATOM      8  O   UNL     1       6.197   2.333   0.733  0.00  0.00    -0.292 OA
ATOM      9  C   UNL     1       8.143   2.789  -0.507  0.00  0.00    +0.088 C 
ATOM     10  C   UNL     1       8.885   1.979  -1.575  0.00  0.00    +0.032 C 
ATOM     11  C   UNL     1       8.066   2.015  -2.868  0.00  0.00    +0.059 C 
ATOM     12  C   UNL     1       3.938   0.360  -4.879  0.00  0.00    +0.061 C 
ATOM     13  H   UNL     1       6.551   0.477  -4.388  0.00  0.00    +0.152 HD
ENDROOT
BRANCH   6  14
ATOM     14  C   UNL     1       4.849  -0.260  -0.365  0.00  0.00    -0.032 A 
ATOM     15  C   UNL     1       5.537  -1.334  -0.899  0.00  0.00    +0.008 A 
ATOM     16  C   UNL     1       5.653  -2.510  -0.181  0.00  0.00    +0.049 A 
ATOM     17  C   UNL     1       5.080  -2.615   1.076  0.00  0.00    +0.158 A 
ATOM     18  C   UNL     1       4.388  -1.533   1.613  0.00  0.00    +0.162 A 
ATOM     19  C   UNL     1       4.280  -0.356   0.891  0.00  0.00    +0.054 A 
BRANCH  18  20
ATOM     20  O   UNL     1       3.824  -1.631   2.847  0.00  0.00    -0.491 OA
ATOM     21  C   UNL     1       3.129  -0.481   3.335  0.00  0.00    +0.277 C 
ENDBRANCH  18  20
BRANCH  17  22
ATOM     22  O   UNL     1       5.192  -3.771   1.782  0.00  0.00    -0.503 OA
ATOM     23  H   UNL     1       5.973  -3.809   2.352  0.00  0.00    +0.292 HD
ENDBRANCH  17  22
ENDBRANCH   6  14
BRANCH  10  24
ATOM     24  C   UNL     1      10.244   2.583  -1.816  0.00  0.00    -0.040 A 
ATOM     25  C   UNL     1      10.350   3.892  -2.251  0.00  0.00    +0.008 A 
ATOM     26  C   UNL     1      11.595   4.451  -2.473  0.00  0.00    +0.049 A 
ATOM     27  C   UNL     1      12.740   3.700  -2.260  0.00  0.00    +0.161 A 
ATOM     28  C   UNL     1      12.633   2.383  -1.822  0.00  0.00    +0.162 A 
ATOM     29  C   UNL     1      11.383   1.831  -1.597  0.00  0.00    +0.053 A 
BRANCH  28  30
ATOM     30  O   UNL     1      13.754   1.642  -1.611  0.00  0.00    -0.491 OA
ATOM     31  C   UNL     1      13.568   0.299  -1.162  0.00  0.00    +0.277 C 
ENDBRANCH  28  30
BRANCH  27  32
ATOM     32  O   UNL     1      13.965   4.248  -2.479  0.00  0.00    -0.491 OA
ATOM     33  C   UNL     1      13.998   5.604  -2.928  0.00  0.00    +0.277 C 
ENDBRANCH  27  32
ENDBRANCH  10  24
BRANCH   1  34
ATOM     34  C   UNL     1       2.610   0.570  -2.438  0.00  0.00    +0.338 C 
ATOM     35  O   UNL     1       2.006   0.469  -3.489  0.00  0.00    -0.245 OA
BRANCH  34  36
ATOM     36  O   UNL     1       1.940   0.523  -1.267  0.00  0.00    -0.458 OA
BRANCH  36  37
ATOM     37  C   UNL     1       0.523   0.352  -1.338  0.00  0.00    +0.173 C 
ATOM     38  C   UNL     1       0.188  -1.141  -1.322  0.00  0.00    +0.052 C 
BRANCH  37  40
ATOM     39  C   UNL     1       0.097   2.545  -0.218  0.00  0.00    +0.007 C 
ATOM     40  C   UNL     1      -0.133   1.034  -0.136  0.00  0.00    +0.041 C 
ENDBRANCH  37  40
ENDBRANCH  36  37
ENDBRANCH  34  36
ENDBRANCH   1  34
TORSDOF 10
