REMARK  Name = ZINC06713544
REMARK  6 active torsions:
REMARK  status: ('A' for Active; 'I' for Inactive)
REMARK    1  A    between atoms: C_1  and  O_2
REMARK    2  A    between atoms: O_2  and  C_3
REMARK    3  A    between atoms: C_6  and  C_11
REMARK    4  A    between atoms: C_8  and  O_9
REMARK    5  A    between atoms: O_9  and  C_10
REMARK    6  A    between atoms: N_16  and  C_17
REMARK                            x       y       z     vdW  Elec       q    Type
REMARK                         _______ _______ _______ _____ _____    ______ ____
ROOT
ATOM      1  C   UNL     1      -4.968  -2.588   0.034  0.00  0.00    +0.208 C 
ATOM      2  N   UNL     1      -4.844  -3.884   0.712  0.00  0.00    -0.335 N 
ATOM      3  C   UNL     1      -5.122  -3.992   1.984  0.00  0.00    +0.191 C 
ATOM      4  N   UNL     1      -5.570  -2.952   2.707  0.00  0.00    -0.187 NA
ATOM      5  C   UNL     1      -5.988  -1.846   2.118  0.00  0.00    +0.189 C 
ATOM      6  N   UNL     1      -5.981  -1.791   0.743  0.00  0.00    -0.248 N 
ATOM      7  N   UNL     1      -6.418  -0.780   2.858  0.00  0.00    -0.331 N 
ATOM      8  N   UNL     1      -4.951  -5.214   2.604  0.00  0.00    -0.329 N 
ATOM      9  H   UNL     1      -6.489  -0.856   3.822  0.00  0.00    +0.145 HD
ATOM     10  H   UNL     1      -6.653   0.052   2.418  0.00  0.00    +0.145 HD
ATOM     11  H   UNL     1      -4.629  -5.975   2.096  0.00  0.00    +0.145 HD
ATOM     12  H   UNL     1      -5.153  -5.311   3.548  0.00  0.00    +0.145 HD
ATOM     13  H   UNL     1      -4.553  -4.663   0.213  0.00  0.00    +0.164 HD
ENDROOT
BRANCH   6  14
ATOM     14  C   UNL     1      -6.903  -1.003   0.045  0.00  0.00    +0.039 A 
ATOM     15  C   UNL     1      -6.848   0.381   0.140  0.00  0.00    +0.025 A 
ATOM     16  C   UNL     1      -7.759   1.156  -0.551  0.00  0.00    +0.022 A 
ATOM     17  C   UNL     1      -8.727   0.554  -1.336  0.00  0.00    +0.041 A 
ATOM     18  C   UNL     1      -8.784  -0.825  -1.432  0.00  0.00    +0.022 A 
ATOM     19  C   UNL     1      -7.871  -1.605  -0.749  0.00  0.00    +0.025 A 
ATOM     20 CL   UNL     1      -9.872   1.531  -2.201  0.00  0.00    -0.084 Cl
ENDBRANCH   6  14
BRANCH   1  24
ATOM     21  C   UNL     1      -1.213  -0.544   0.117  0.00  0.00    +0.162 A 
ATOM     22  C   UNL     1      -2.397   0.175   0.130  0.00  0.00    +0.050 A 
ATOM     23  C   UNL     1      -3.609  -0.488   0.103  0.00  0.00    +0.011 A 
ATOM     24  C   UNL     1      -3.644  -1.870   0.063  0.00  0.00    -0.003 A 
ATOM     25  C   UNL     1      -2.466  -2.594   0.050  0.00  0.00    +0.056 A 
ATOM     26  C   UNL     1      -1.248  -1.935   0.071  0.00  0.00    +0.162 A 
BRANCH  21  28
ATOM     27  C   UNL     1      -0.060   1.534   0.190  0.00  0.00    +0.277 C 
ATOM     28  O   UNL     1      -0.019   0.107   0.143  0.00  0.00    -0.491 OA
ENDBRANCH  21  28
BRANCH  26  29
ATOM     29  O   UNL     1      -0.088  -2.645   0.052  0.00  0.00    -0.491 OA
ATOM     30  C   UNL     1      -0.201  -4.069   0.004  0.00  0.00    +0.277 C 
ENDBRANCH  26  29
ENDBRANCH   1  24
TORSDOF 4
