REMARK  Name = ZINC35666534
REMARK  13 active torsions:
REMARK  status: ('A' for Active; 'I' for Inactive)
REMARK    1  A    between atoms: C_1  and  C_2
REMARK    2  A    between atoms: C_2  and  C_3
REMARK    3  A    between atoms: C_2  and  C_4
REMARK    4  A    between atoms: C_4  and  C_6
REMARK    5  A    between atoms: C_4  and  N_28
REMARK    6  A    between atoms: C_10  and  O_26
REMARK    7  A    between atoms: C_11  and  O_24
REMARK    8  A    between atoms: N_19  and  C_20
REMARK    9  A    between atoms: C_20  and  C_21
REMARK   10  A    between atoms: C_20  and  C_22
REMARK   11  A    between atoms: C_20  and  C_23
REMARK   12  A    between atoms: O_24  and  C_25
REMARK   13  A    between atoms: O_26  and  C_27
REMARK                            x       y       z     vdW  Elec       q    Type
REMARK                         _______ _______ _______ _____ _____    ______ ____
ROOT
ATOM      1  C   UNL     1      -0.221   0.364  -2.303  0.00  0.00    +0.094 C 
ATOM      2  C   UNL     1       0.460   0.117  -3.626  0.00  0.00    -0.022 A 
ATOM      3  C   UNL     1       1.649   0.791  -3.876  0.00  0.00    +0.055 A 
ATOM      4  C   UNL     1       2.327   0.601  -5.066  0.00  0.00    +0.162 A 
ATOM      5  C   UNL     1       1.812  -0.274  -6.018  0.00  0.00    +0.162 A 
ATOM      6  C   UNL     1       0.627  -0.939  -5.766  0.00  0.00    +0.053 A 
ATOM      7  C   UNL     1      -0.056  -0.741  -4.571  0.00  0.00    -0.037 A 
ATOM      8  C   UNL     1      -1.355  -1.480  -4.381  0.00  0.00    +0.054 C 
ATOM      9  C   UNL     1      -1.728  -1.553  -2.901  0.00  0.00    +0.114 C 
ATOM     10  N   UNL     1      -1.572  -0.206  -2.329  0.00  0.00    -0.280 N 
ATOM     11  C   UNL     1      -2.630   0.476  -1.848  0.00  0.00    +0.303 C 
ATOM     12  O   UNL     1      -2.493   1.624  -1.471  0.00  0.00    -0.253 OA
ATOM     13  N   UNL     1      -3.840  -0.113  -1.785  0.00  0.00    -0.294 N 
ATOM     14  H   UNL     1      -3.936  -1.051  -2.015  0.00  0.00    +0.151 HD
ENDROOT
BRANCH  13  15
ATOM     15  C   UNL     1      -5.012   0.661  -1.368  0.00  0.00    +0.028 C 
ATOM     16  C   UNL     1      -5.220   1.830  -2.334  0.00  0.00    +0.031 C 
ATOM     17  C   UNL     1      -6.249  -0.238  -1.382  0.00  0.00    +0.031 C 
ATOM     18  C   UNL     1      -4.790   1.202   0.046  0.00  0.00    +0.031 C 
ENDBRANCH  13  15
BRANCH   5  19
ATOM     19  O   UNL     1       2.472  -0.474  -7.190  0.00  0.00    -0.491 OA
ATOM     20  C   UNL     1       1.883  -1.387  -8.119  0.00  0.00    +0.277 C 
ENDBRANCH   5  19
BRANCH   4  21
ATOM     21  O   UNL     1       3.489   1.265  -5.304  0.00  0.00    -0.491 OA
ATOM     22  C   UNL     1       3.955   2.147  -4.280  0.00  0.00    +0.277 C 
ENDBRANCH   4  21
BRANCH   1  23
ATOM     23  C   UNL     1       0.588  -0.296  -1.184  0.00  0.00    -0.047 C 
BRANCH  23  24
ATOM     24  N   UNL     1       1.989   0.137  -1.271  0.00  0.00    +0.382 N 
ATOM     25  H   UNL     1       2.522  -0.298  -0.533  0.00  0.00    -0.090 HD
ATOM     26  H   UNL     1       2.369  -0.133  -2.166  0.00  0.00    -0.090 HD
ATOM     27  H   UNL     1       2.037   1.140  -1.174  0.00  0.00    -0.090 HD
ENDBRANCH  23  24
BRANCH  23  29
ATOM     28  C   UNL     1      -0.253   1.621   0.180  0.00  0.00    +0.005 C 
ATOM     29  C   UNL     1       0.011   0.114   0.172  0.00  0.00    -0.030 C 
ATOM     30  C   UNL     1      -1.301  -0.635   0.416  0.00  0.00    +0.005 C 
ENDBRANCH  23  29
ENDBRANCH   1  23
TORSDOF 6
