REMARK  Name = ZINC35481361
REMARK  10 active torsions:
REMARK  status: ('A' for Active; 'I' for Inactive)
REMARK    1  A    between atoms: C_1  and  C_2
REMARK    2  A    between atoms: C_6  and  C_8
REMARK    3  A    between atoms: C_9  and  N_33
REMARK    4  A    between atoms: N_16  and  C_17
REMARK    5  A    between atoms: N_16  and  C_18
REMARK    6  A    between atoms: C_18  and  C_19
REMARK    7  A    between atoms: N_33  and  C_34
REMARK    8  A    between atoms: C_34  and  C_35
REMARK    9  A    between atoms: C_34  and  C_36
REMARK   10  A    between atoms: C_34  and  C_37
REMARK                            x       y       z     vdW  Elec       q    Type
REMARK                         _______ _______ _______ _____ _____    ______ ____
ROOT
ATOM      1  C   UNL     1      -0.328  -3.687   4.545  0.00  0.00    +0.114 A 
ATOM      2  C   UNL     1      -1.095  -4.673   4.001  0.00  0.00    +0.150 A 
ATOM      3  N   UNL     1      -1.846  -5.232   5.024  0.00  0.00    -0.190 N 
ATOM      4  C   UNL     1      -1.486  -4.542   6.155  0.00  0.00    +0.199 A 
ATOM      5  N   UNL     1      -0.594  -3.641   5.877  0.00  0.00    -0.218 NA
ATOM      6  S   UNL     1      -2.484  -5.314   7.408  0.00  0.00    -0.013 S 
ATOM      7  C   UNL     1      -3.312  -6.498   6.358  0.00  0.00    +0.184 A 
ATOM      8  N   UNL     1      -2.796  -6.236   5.188  0.00  0.00    -0.140 NA
ATOM      9  N   UNL     1      -4.258  -7.451   6.698  0.00  0.00    -0.302 N 
ATOM     10  C   UNL     1      -4.814  -8.332   5.667  0.00  0.00    +0.132 C 
ENDROOT
BRANCH   1  16
ATOM     11  C   UNL     1       1.889   0.743   3.926  0.00  0.00    +0.044 C 
ATOM     12  C   UNL     1       1.698  -0.695   3.515  0.00  0.00    -0.050 A 
ATOM     13  C   UNL     1       2.420  -1.210   2.452  0.00  0.00    +0.003 A 
ATOM     14  C   UNL     1       2.250  -2.529   2.068  0.00  0.00    +0.001 A 
ATOM     15  C   UNL     1       1.359  -3.338   2.744  0.00  0.00    +0.010 A 
ATOM     16  C   UNL     1       0.630  -2.824   3.816  0.00  0.00    +0.004 A 
ATOM     17  C   UNL     1       0.809  -1.495   4.202  0.00  0.00    +0.013 A 
ENDBRANCH   1  16
BRANCH   2  18
ATOM     18  N   UNL     1      -1.122  -5.051   2.656  0.00  0.00    -0.323 N 
ATOM     19  H   UNL     1      -0.638  -4.531   1.996  0.00  0.00    +0.148 HD
BRANCH  18  20
ATOM     20  C   UNL     1      -1.881  -6.235   2.243  0.00  0.00    +0.025 C 
ATOM     21  C   UNL     1      -3.373  -5.989   2.471  0.00  0.00    +0.031 C 
ATOM     22  C   UNL     1      -1.630  -6.508   0.758  0.00  0.00    +0.031 C 
ATOM     23  C   UNL     1      -1.431  -7.442   3.067  0.00  0.00    +0.031 C 
ENDBRANCH  18  20
ENDBRANCH   2  18
BRANCH   9  24
ATOM     24  C   UNL     1      -4.702  -7.578   8.088  0.00  0.00    +0.202 C 
BRANCH  24  25
ATOM     25  C   UNL     1      -5.891  -6.681   8.319  0.00  0.00    +0.233 C 
ATOM     26  O   UNL     1      -6.324  -6.002   7.412  0.00  0.00    -0.274 OA
ATOM     27  N   UNL     1      -6.473  -6.633   9.534  0.00  0.00    -0.297 N 
ATOM     28  C   UNL     1      -5.955  -7.446  10.644  0.00  0.00    +0.126 C 
ATOM     29  C   UNL     1      -5.642  -6.519  11.825  0.00  0.00    +0.125 C 
ATOM     30  N   UNL     1      -6.805  -5.653  12.064  0.00  0.00    -0.314 N 
ATOM     31  C   UNL     1      -7.323  -4.840  10.954  0.00  0.00    +0.125 C 
ATOM     32  C   UNL     1      -7.632  -5.763   9.774  0.00  0.00    +0.126 C 
ATOM     33  C   UNL     1      -7.405  -5.603  13.317  0.00  0.00    +0.099 A 
ATOM     34  C   UNL     1      -6.811  -6.257  14.392  0.00  0.00    +0.042 A 
ATOM     35  C   UNL     1      -7.419  -6.199  15.633  0.00  0.00    +0.005 A 
ATOM     36  C   UNL     1      -8.605  -5.487  15.758  0.00  0.00    +0.018 A 
ATOM     37  C   UNL     1      -9.138  -4.863  14.648  0.00  0.00    +0.084 A 
ATOM     38  N   UNL     1      -8.534  -4.930  13.477  0.00  0.00    -0.350 N 
ATOM     39  H   UNL     1      -8.928  -4.479  12.715  0.00  0.00    +0.166 HD
ENDBRANCH  24  25
ENDBRANCH   9  24
TORSDOF 5
