REMARK  Name = ZINC35047419
REMARK  8 active torsions:
REMARK  status: ('A' for Active; 'I' for Inactive)
REMARK    1  A    between atoms: C_1  and  C_2
REMARK    2  A    between atoms: C_2  and  O_3
REMARK    3  A    between atoms: O_3  and  C_4
REMARK    4  A    between atoms: C_5  and  C_12
REMARK    5  A    between atoms: C_12  and  N_13
REMARK    6  A    between atoms: N_13  and  C_14
REMARK    7  A    between atoms: C_14  and  C_16
REMARK    8  A    between atoms: C_14  and  C_17
REMARK                            x       y       z     vdW  Elec       q    Type
REMARK                         _______ _______ _______ _____ _____    ______ ____
ROOT
ATOM      1  C   UNL     1       0.677  -1.404  -1.268  0.00  0.00    +0.136 A 
ATOM      2  C   UNL     1       1.630  -2.345  -0.908  0.00  0.00    -0.021 A 
ATOM      3  C   UNL     1       1.501  -3.655  -1.329  0.00  0.00    +0.020 A 
ATOM      4  C   UNL     1       0.420  -4.029  -2.108  0.00  0.00    +0.019 A 
ATOM      5  C   UNL     1      -0.532  -3.092  -2.469  0.00  0.00    +0.034 A 
ATOM      6  C   UNL     1      -0.409  -1.782  -2.046  0.00  0.00    +0.061 A 
ATOM      7 BR   UNL     1      -1.716  -0.504  -2.532  0.00  0.00    -0.046 Br
ATOM      8 BR   UNL     1       0.246  -5.822  -2.682  0.00  0.00    -0.050 Br
ENDROOT
BRANCH   1   9
ATOM      9  O   UNL     1       0.802  -0.116  -0.855  0.00  0.00    -0.491 OA
BRANCH   9  11
ATOM     10  C   UNL     1       1.435   2.198  -1.155  0.00  0.00    +0.048 C 
ATOM     11  C   UNL     1       1.500   0.779  -1.724  0.00  0.00    +0.226 C 
ENDBRANCH   9  11
ENDBRANCH   1   9
BRANCH   2  12
ATOM     12  C   UNL     1       2.808  -1.939  -0.060  0.00  0.00    -0.042 C 
BRANCH  12  13
ATOM     13  N   UNL     1       2.381  -1.810   1.340  0.00  0.00    +0.389 N 
ATOM     14  H   UNL     1       1.601  -1.173   1.396  0.00  0.00    -0.084 HD
ATOM     15  H   UNL     1       2.103  -2.714   1.691  0.00  0.00    -0.084 HD
BRANCH  13  16
ATOM     16  C   UNL     1       3.495  -1.292   2.145  0.00  0.00    +0.013 C 
ATOM     17  C   UNL     1       4.632  -2.317   2.161  0.00  0.00    -0.004 C 
BRANCH  16  18
ATOM     18  C   UNL     1       3.023  -1.044   3.555  0.00  0.00    +0.196 C 
ATOM     19  O   UNL     1       1.872  -1.275   3.858  0.00  0.00    -0.278 OA
ATOM     20  N   UNL     1       3.880  -0.565   4.478  0.00  0.00    -0.331 N 
ATOM     21  H   UNL     1       4.801  -0.380   4.235  0.00  0.00    +0.145 HD
ATOM     22  H   UNL     1       3.576  -0.405   5.385  0.00  0.00    +0.145 HD
ENDBRANCH  16  18
ENDBRANCH  13  16
ENDBRANCH  12  13
ENDBRANCH   2  12
TORSDOF 6
