REMARK  Name = ZINC28823511
REMARK  8 active torsions:
REMARK  status: ('A' for Active; 'I' for Inactive)
REMARK    1  A    between atoms: C_1  and  C_2
REMARK    2  A    between atoms: C_4  and  C_38
REMARK    3  A    between atoms: C_4  and  C_39
REMARK    4  A    between atoms: C_18  and  O_22
REMARK    5  A    between atoms: C_19  and  O_20
REMARK    6  A    between atoms: O_20  and  C_21
REMARK    7  A    between atoms: C_25  and  C_26
REMARK    8  A    between atoms: C_30  and  C_32
REMARK                            x       y       z     vdW  Elec       q    Type
REMARK                         _______ _______ _______ _____ _____    ______ ____
ROOT
ATOM      1  C   UNL     1       3.949   7.051   0.522  0.00  0.00    +0.039 C 
ATOM      2  C   UNL     1       5.175   6.337   0.046  0.00  0.00    -0.072 C 
ATOM      3  C   UNL     1       6.326   6.968   0.078  0.00  0.00    -0.040 C 
ATOM      4  C   UNL     1       7.643   6.362  -0.291  0.00  0.00    -0.054 C 
ATOM      5  N   UNL     1       7.587   4.905  -0.465  0.00  0.00    +0.389 N 
ATOM      6  C   UNL     1       6.435   4.331   0.235  0.00  0.00    -0.035 C 
ATOM      7  C   UNL     1       5.177   4.908  -0.419  0.00  0.00    +0.038 C 
ATOM      8  C   UNL     1       3.953   4.115  -0.141  0.00  0.00    +0.009 C 
ATOM      9  C   UNL     1       4.038   2.910   0.521  0.00  0.00    -0.004 C 
ATOM     10  C   UNL     1       5.309   2.178   0.472  0.00  0.00    +0.003 C 
ATOM     11  C   UNL     1       6.451   2.846   0.300  0.00  0.00    -0.041 C 
ATOM     12  C   UNL     1       2.820   2.331   1.108  0.00  0.00    +0.070 A 
ATOM     13  C   UNL     1       1.606   3.027   0.948  0.00  0.00    +0.140 A 
ATOM     14  C   UNL     1       0.434   2.520   1.479  0.00  0.00    +0.051 A 
ATOM     15  C   UNL     1       0.444   1.328   2.179  0.00  0.00    +0.053 A 
ATOM     16  C   UNL     1       1.631   0.634   2.350  0.00  0.00    +0.159 A 
ATOM     17  C   UNL     1       2.821   1.132   1.822  0.00  0.00    +0.172 A 
ATOM     18  O   UNL     1       1.596   4.206   0.275  0.00  0.00    -0.455 OA
ATOM     19  C   UNL     1       2.660   4.556  -0.494  0.00  0.00    +0.133 C 
ATOM     20  C   UNL     1       2.451   5.311  -1.599  0.00  0.00    +0.054 C 
ATOM     21  C   UNL     1       8.660   6.687   0.810  0.00  0.00    -0.006 C 
ATOM     22  C   UNL     1       8.134   6.994  -1.599  0.00  0.00    -0.006 C 
ATOM     23  H   UNL     1       7.500   4.667  -1.535  0.00  0.00    -0.084 HD
ATOM     24  H   UNL     1       8.504   4.452  -0.061  0.00  0.00    -0.084 HD
ENDROOT
BRANCH  20  25
ATOM     25  C   UNL     1       1.138   5.927  -1.830  0.00  0.00    -0.021 A 
ATOM     26  C   UNL     1       0.865   6.567  -3.046  0.00  0.00    +0.008 A 
ATOM     27  C   UNL     1      -0.370   7.140  -3.262  0.00  0.00    +0.001 A 
ATOM     28  C   UNL     1      -1.342   7.097  -2.280  0.00  0.00    +0.008 A 
ATOM     29  C   UNL     1      -1.083   6.468  -1.062  0.00  0.00    -0.016 A 
ATOM     30  C   UNL     1       0.157   5.882  -0.834  0.00  0.00    +0.016 A 
BRANCH  29  31
ATOM     31  C   UNL     1      -2.129   6.424  -0.011  0.00  0.00    +0.000 A 
ATOM     32  C   UNL     1      -3.377   7.015  -0.227  0.00  0.00    +0.011 A 
ATOM     33  C   UNL     1      -4.321   6.943   0.783  0.00  0.00    +0.020 A 
ATOM     34  C   UNL     1      -3.998   6.303   1.966  0.00  0.00    +0.111 A 
ATOM     35  N   UNL     1      -2.810   5.759   2.143  0.00  0.00    -0.263 NA
ATOM     36  C   UNL     1      -1.882   5.798   1.208  0.00  0.00    +0.119 A 
ENDBRANCH  29  31
ENDBRANCH  20  25
BRANCH  17  37
ATOM     37  O   UNL     1       3.965   0.430   2.031  0.00  0.00    -0.491 OA
ATOM     38  C   UNL     1       4.698   0.724   3.222  0.00  0.00    +0.277 C 
ENDBRANCH  17  37
BRANCH  16  39
ATOM     39  O   UNL     1       1.638  -0.538   3.040  0.00  0.00    -0.503 OA
ATOM     40  H   UNL     1       2.580  -1.090   3.178  0.00  0.00    +0.292 HD
ENDBRANCH  16  39
TORSDOF 4
