REMARK  Name = ZINC52838956
REMARK  13 active torsions:
REMARK  status: ('A' for Active; 'I' for Inactive)
REMARK    1  A    between atoms: C_1  and  C_2
REMARK    2  A    between atoms: C_2  and  C_3
REMARK    3  A    between atoms: C_2  and  N_4
REMARK    4  A    between atoms: C_5  and  C_7
REMARK    5  A    between atoms: C_12  and  N_13
REMARK    6  A    between atoms: C_14  and  C_16
REMARK    7  A    between atoms: C_16  and  N_17
REMARK    8  A    between atoms: N_17  and  C_18
REMARK    9  A    between atoms: C_18  and  C_20
REMARK   10  A    between atoms: C_18  and  C_25
REMARK   11  A    between atoms: C_25  and  C_26
REMARK   12  A    between atoms: C_25  and  C_27
REMARK   13  A    between atoms: C_25  and  C_28
REMARK                            x       y       z     vdW  Elec       q    Type
REMARK                         _______ _______ _______ _____ _____    ______ ____
ROOT
ATOM      1  N   UNL     1      -3.431  -0.946  -3.522  0.00  0.00    -0.286 N 
ATOM      2  C   UNL     1      -4.166  -0.791  -4.641  0.00  0.00    +0.200 C 
ATOM      3  O   UNL     1      -5.368  -0.952  -4.604  0.00  0.00    -0.278 OA
ATOM      4  H   UNL     1      -2.481  -0.750  -3.535  0.00  0.00    +0.155 HD
ENDROOT
BRANCH   1  10
ATOM      5  C   UNL     1      -3.294  -2.112  -1.402  0.00  0.00    +0.058 A 
ATOM      6  C   UNL     1      -3.910  -2.544  -0.226  0.00  0.00    +0.015 A 
ATOM      7  C   UNL     1      -5.240  -2.262  -0.003  0.00  0.00    +0.001 A 
ATOM      8  C   UNL     1      -5.971  -1.550  -0.940  0.00  0.00    +0.002 A 
ATOM      9  C   UNL     1      -5.376  -1.117  -2.108  0.00  0.00    +0.024 A 
ATOM     10  C   UNL     1      -4.035  -1.387  -2.347  0.00  0.00    +0.045 A 
BRANCH   5  12
ATOM     11  N   UNL     1      -1.127  -2.989  -0.683  0.00  0.00    -0.309 N 
ATOM     12  C   UNL     1      -1.870  -2.411  -1.647  0.00  0.00    +0.246 C 
ATOM     13  O   UNL     1      -1.367  -2.135  -2.719  0.00  0.00    -0.270 OA
ATOM     14  H   UNL     1      -1.528  -3.209   0.172  0.00  0.00    +0.149 HD
BRANCH  11  16
ATOM     15  C   UNL     1       1.128  -2.043  -0.625  0.00  0.00    +0.027 C 
ATOM     16  C   UNL     1       0.287  -3.285  -0.926  0.00  0.00    +0.067 C 
ATOM     17  C   UNL     1       0.731  -4.434  -0.018  0.00  0.00    +0.027 C 
ENDBRANCH  11  16
ENDBRANCH   5  12
ENDBRANCH   1  10
BRANCH   2  18
ATOM     18  C   UNL     1      -3.495  -0.419  -5.938  0.00  0.00    +0.016 C 
BRANCH  18  19
ATOM     19  N   UNL     1      -4.506  -0.312  -6.999  0.00  0.00    +0.390 N 
ATOM     20  H   UNL     1      -4.919  -1.218  -7.162  0.00  0.00    -0.084 HD
ATOM     21  H   UNL     1      -5.223   0.339  -6.716  0.00  0.00    -0.084 HD
BRANCH  19  22
ATOM     22  C   UNL     1      -3.870   0.166  -8.234  0.00  0.00    -0.028 C 
BRANCH  22  23
ATOM     23  C   UNL     1      -2.889  -0.867  -8.727  0.00  0.00    -0.024 A 
ATOM     24  C   UNL     1      -1.657  -0.686  -9.262  0.00  0.00    +0.009 A 
ATOM     25  C   UNL     1      -0.925  -1.794  -9.647  0.00  0.00    +0.008 A 
ATOM     26  C   UNL     1      -1.462  -3.027  -9.479  0.00  0.00    +0.045 A 
ATOM     27  S   UNL     1      -3.046  -2.645  -8.750  0.00  0.00    -0.103 S 
ENDBRANCH  22  23
BRANCH  22  28
ATOM     28  C   UNL     1      -4.941   0.402  -9.301  0.00  0.00    -0.046 C 
ATOM     29  C   UNL     1      -5.859   1.543  -8.858  0.00  0.00    +0.009 C 
ATOM     30  C   UNL     1      -4.270   0.771 -10.625  0.00  0.00    +0.009 C 
ATOM     31  C   UNL     1      -5.766  -0.874  -9.485  0.00  0.00    +0.009 C 
ENDBRANCH  22  28
ENDBRANCH  19  22
ENDBRANCH  18  19
ENDBRANCH   2  18
TORSDOF 8
