REMARK  Name = ZINC16952318
REMARK  12 active torsions:
REMARK  status: ('A' for Active; 'I' for Inactive)
REMARK    1  A    between atoms: C_1  and  N_2
REMARK    2  A    between atoms: C_5  and  C_28
REMARK    3  A    between atoms: C_6  and  N_11
REMARK    4  A    between atoms: C_8  and  O_9
REMARK    5  A    between atoms: O_9  and  C_10
REMARK    6  A    between atoms: N_11  and  C_12
REMARK    7  A    between atoms: C_14  and  O_27
REMARK    8  A    between atoms: C_16  and  O_26
REMARK    9  A    between atoms: C_18  and  O_25
REMARK   10  A    between atoms: C_20  and  C_23
REMARK   11  A    between atoms: C_23  and  O_24
REMARK   12  A    between atoms: N_29  and  O_30
REMARK                            x       y       z     vdW  Elec       q    Type
REMARK                         _______ _______ _______ _____ _____    ______ ____
ROOT
ATOM      1  N   UNL     1       0.059  -4.104   0.167  0.00  0.00    -0.301 N 
ATOM      2  H   UNL     1       0.058  -4.631  -0.648  0.00  0.00    +0.150 HD
ENDROOT
BRANCH   1   8
ATOM      3  C   UNL     1      -0.018   1.461   0.010  0.00  0.00    +0.157 C 
ATOM      4  N   UNL     1       0.002  -0.004   0.002  0.00  0.00    -0.265 N 
ATOM      5  C   UNL     1      -0.006  -0.669  -1.172  0.00  0.00    +0.267 A 
ATOM      6  O   UNL     1      -0.029  -0.064  -2.231  0.00  0.00    -0.267 OA
ATOM      7  C   UNL     1       0.019  -2.084  -1.150  0.00  0.00    +0.101 A 
ATOM      8  C   UNL     1       0.039  -2.730   0.098  0.00  0.00    +0.140 A 
ATOM      9  N   UNL     1       0.040  -2.000   1.216  0.00  0.00    -0.181 NA
ATOM     10  C   UNL     1       0.022  -0.686   1.177  0.00  0.00    +0.302 A 
BRANCH  10  11
ATOM     11  O   UNL     1       0.024   0.004   2.335  0.00  0.00    -0.467 OA
ATOM     12  C   UNL     1       0.046  -0.770   3.563  0.00  0.00    +0.280 C 
ENDBRANCH  10  11
BRANCH   7  13
ATOM     13  C   UNL     1       0.017  -2.857  -2.398  0.00  0.00    +0.169 C 
ATOM     14  N   UNL     1      -0.003  -2.244  -3.541  0.00  0.00    -0.095 NA
BRANCH  14  15
ATOM     15  O   UNL     1      -0.004  -2.990  -4.745  0.00  0.00    -0.409 OA
ATOM     16  H   UNL     1      -0.019  -2.446  -5.544  0.00  0.00    +0.328 HD
ENDBRANCH  14  15
ENDBRANCH   7  13
ENDBRANCH   1   8
BRANCH   1  17
ATOM     17  C   UNL     1       0.081  -4.771   1.471  0.00  0.00    +0.236 C 
ATOM     18  C   UNL     1       1.023  -5.976   1.412  0.00  0.00    +0.192 C 
ATOM     19  C   UNL     1       0.995  -6.704   2.759  0.00  0.00    +0.178 C 
ATOM     20  C   UNL     1      -0.448  -7.109   3.078  0.00  0.00    +0.177 C 
ATOM     21  C   UNL     1      -1.334  -5.860   3.073  0.00  0.00    +0.177 C 
ATOM     22  O   UNL     1      -1.237  -5.215   1.801  0.00  0.00    -0.348 OA
BRANCH  20  23
ATOM     23  O   UNL     1      -0.498  -7.724   4.367  0.00  0.00    -0.386 OA
ATOM     24  H   UNL     1       0.042  -8.523   4.442  0.00  0.00    +0.210 HD
ENDBRANCH  20  23
BRANCH  19  25
ATOM     25  O   UNL     1       1.815  -7.872   2.690  0.00  0.00    -0.386 OA
ATOM     26  H   UNL     1       2.744  -7.689   2.491  0.00  0.00    +0.210 HD
ENDBRANCH  19  25
BRANCH  18  27
ATOM     27  O   UNL     1       2.353  -5.530   1.138  0.00  0.00    -0.385 OA
ATOM     28  H   UNL     1       2.444  -5.055   0.300  0.00  0.00    +0.210 HD
ENDBRANCH  18  27
BRANCH  21  29
ATOM     29  C   UNL     1      -2.787  -6.264   3.331  0.00  0.00    +0.190 C 
BRANCH  29  30
ATOM     30  O   UNL     1      -3.595  -5.091   3.440  0.00  0.00    -0.392 OA
ATOM     31  H   UNL     1      -4.531  -5.272   3.604  0.00  0.00    +0.210 HD
ENDBRANCH  29  30
ENDBRANCH  21  29
ENDBRANCH   1  17
TORSDOF 10
