REMARK  Name = ZINC58850033
REMARK  9 active torsions:
REMARK  status: ('A' for Active; 'I' for Inactive)
REMARK    1  A    between atoms: C_1  and  C_2
REMARK    2  A    between atoms: C_2  and  C_3
REMARK    3  A    between atoms: C_2  and  O_4
REMARK    4  A    between atoms: O_4  and  C_5
REMARK    5  A    between atoms: C_8  and  C_11
REMARK    6  A    between atoms: C_22  and  S_27
REMARK    7  A    between atoms: S_27  and  N_30
REMARK    8  A    between atoms: N_30  and  C_31
REMARK    9  A    between atoms: C_35  and  N_37
REMARK                            x       y       z     vdW  Elec       q    Type
REMARK                         _______ _______ _______ _____ _____    ______ ____
ROOT
ATOM      1  C   UNL     1      -2.871  -0.705   5.971  0.00  0.00    +0.105 C 
ATOM      2  C   UNL     1      -2.598   0.528   6.780  0.00  0.00    +0.029 C 
ATOM      3  C   UNL     1      -1.138   1.006   6.642  0.00  0.00    +0.033 C 
ATOM      4  C   UNL     1      -0.868   1.721   7.950  0.00  0.00    -0.030 C 
ATOM      5  C   UNL     1      -1.750   1.387   8.856  0.00  0.00    -0.023 C 
ATOM      6  C   UNL     1      -2.719   0.377   8.294  0.00  0.00    +0.049 C 
ATOM      7  C   UNL     1      -2.311  -0.983   8.787  0.00  0.00    -0.018 A 
ATOM      8  C   UNL     1      -2.085  -1.149  10.146  0.00  0.00    +0.034 A 
ATOM      9  C   UNL     1      -1.697  -2.376  10.645  0.00  0.00    +0.109 A 
ATOM     10  C   UNL     1      -1.530  -3.452   9.792  0.00  0.00    +0.030 A 
ATOM     11  C   UNL     1      -1.757  -3.297   8.440  0.00  0.00    +0.025 A 
ATOM     12  C   UNL     1      -2.153  -2.061   7.935  0.00  0.00    +0.031 A 
ATOM     13  N   UNL     1      -2.422  -1.937   6.586  0.00  0.00    -0.336 N 
ATOM     14  H   UNL     1      -2.275  -2.712   6.020  0.00  0.00    +0.147 HD
ENDROOT
BRANCH   1  18
ATOM     15  C   UNL     1      -0.934  -0.296   2.184  0.00  0.00    +0.121 A 
ATOM     16  C   UNL     1      -2.283   0.004   2.311  0.00  0.00    +0.046 A 
ATOM     17  C   UNL     1      -2.906  -0.129   3.537  0.00  0.00    +0.009 A 
ATOM     18  C   UNL     1      -2.188  -0.561   4.636  0.00  0.00    -0.027 A 
ATOM     19  C   UNL     1      -0.844  -0.861   4.512  0.00  0.00    +0.009 A 
ATOM     20  C   UNL     1      -0.217  -0.736   3.288  0.00  0.00    +0.046 A 
BRANCH  15  21
ATOM     21  O   UNL     1      -0.318  -0.167   0.980  0.00  0.00    -0.489 OA
BRANCH  21  23
ATOM     22  C   UNL     1      -1.117   1.865  -0.058  0.00  0.00    +0.051 C 
ATOM     23  C   UNL     1      -1.107   0.335  -0.101  0.00  0.00    +0.167 C 
ATOM     24  C   UNL     1      -0.508  -0.133  -1.429  0.00  0.00    +0.051 C 
ENDBRANCH  21  23
ENDBRANCH  15  21
ENDBRANCH   1  18
BRANCH   9  25
ATOM     25  S   UNL     1      -1.415  -2.572  12.373  0.00  0.00    +0.072 S 
ATOM     26  O   UNL     1      -0.437  -3.594  12.511  0.00  0.00    -0.150 OA
ATOM     27  O   UNL     1      -1.233  -1.268  12.906  0.00  0.00    -0.150 OA
BRANCH  25  28
ATOM     28  N   UNL     1      -2.813  -3.163  13.034  0.00  0.00    -0.216 N 
ATOM     29  H   UNL     1      -2.817  -4.034  13.463  0.00  0.00    +0.174 HD
BRANCH  28  30
ATOM     30  C   UNL     1      -3.987  -2.409  12.975  0.00  0.00    +0.050 A 
ATOM     31  C   UNL     1      -3.958  -1.052  13.271  0.00  0.00    +0.024 A 
ATOM     32  C   UNL     1      -5.120  -0.308  13.211  0.00  0.00    +0.004 A 
ATOM     33  C   UNL     1      -6.312  -0.913  12.857  0.00  0.00    +0.033 A 
ATOM     34  C   UNL     1      -6.345  -2.264  12.562  0.00  0.00    +0.128 A 
ATOM     35  C   UNL     1      -5.185  -3.012  12.615  0.00  0.00    +0.057 A 
BRANCH  34  36
ATOM     36  N   UNL     1      -7.623  -2.907  12.185  0.00  0.00    +0.056 N 
ATOM     37  O   UNL     1      -8.638  -2.252  12.134  0.00  0.00    -0.126 OA
ATOM     38  O   UNL     1      -7.653  -4.088  11.928  0.00  0.00    -0.126 OA
ENDBRANCH  34  36
ENDBRANCH  28  30
ENDBRANCH  25  28
ENDBRANCH   9  25
TORSDOF 7
