REMARK  Name = ZINC50273431
REMARK  12 active torsions:
REMARK  status: ('A' for Active; 'I' for Inactive)
REMARK    1  A    between atoms: C_1  and  C_2
REMARK    2  A    between atoms: C_2  and  C_3
REMARK    3  A    between atoms: C_2  and  C_4
REMARK    4  A    between atoms: C_2  and  N_5
REMARK    5  A    between atoms: C_6  and  C_8
REMARK    6  A    between atoms: C_8  and  N_9
REMARK    7  A    between atoms: N_9  and  C_10
REMARK    8  A    between atoms: C_11  and  C_13
REMARK    9  A    between atoms: C_13  and  N_14
REMARK   10  A    between atoms: N_14  and  C_15
REMARK   11  A    between atoms: C_15  and  C_17
REMARK   12  A    between atoms: C_15  and  C_24
REMARK                            x       y       z     vdW  Elec       q    Type
REMARK                         _______ _______ _______ _____ _____    ______ ____
ROOT
ATOM      1  N   UNL     1       5.780   2.894  -3.954  0.00  0.00    +0.392 N 
ATOM      2  H   UNL     1       5.455   2.782  -4.903  0.00  0.00    -0.084 HD
ATOM      3  H   UNL     1       5.184   3.548  -3.469  0.00  0.00    -0.084 HD
ENDROOT
BRANCH   1   4
ATOM      4  C   UNL     1       5.742   1.595  -3.268  0.00  0.00    +0.016 C 
BRANCH   4   7
ATOM      5  N   UNL     1       4.051  -0.111  -2.677  0.00  0.00    -0.297 N 
ATOM      6  C   UNL     1       5.125  -0.892  -2.057  0.00  0.00    +0.132 C 
ATOM      7  C   UNL     1       4.328   1.073  -3.257  0.00  0.00    +0.199 C 
ATOM      8  O   UNL     1       3.439   1.720  -3.770  0.00  0.00    -0.278 OA
BRANCH   5   9
ATOM      9  C   UNL     1       2.677  -0.618  -2.667  0.00  0.00    +0.203 C 
BRANCH   9  11
ATOM     10  N   UNL     1       0.688  -0.476  -1.203  0.00  0.00    -0.309 N 
ATOM     11  C   UNL     1       1.972  -0.132  -1.427  0.00  0.00    +0.231 C 
ATOM     12  O   UNL     1       2.559   0.569  -0.630  0.00  0.00    -0.274 OA
ATOM     13  H   UNL     1       0.218  -1.037  -1.840  0.00  0.00    +0.149 HD
BRANCH  10  15
ATOM     14  C   UNL     1      -0.019   1.526   0.010  0.00  0.00    +0.031 C 
ATOM     15  C   UNL     1       0.002  -0.004   0.002  0.00  0.00    +0.026 C 
ATOM     16  C   UNL     1       0.742  -0.511   1.242  0.00  0.00    +0.031 C 
ATOM     17  C   UNL     1      -1.433  -0.534   0.013  0.00  0.00    +0.031 C 
ENDBRANCH  10  15
ENDBRANCH   9  11
ENDBRANCH   5   9
ENDBRANCH   4   7
ENDBRANCH   1   4
BRANCH   1  18
ATOM     18  C   UNL     1       7.158   3.402  -3.964  0.00  0.00    -0.003 C 
BRANCH  18  19
ATOM     19  C   UNL     1       7.178   4.787  -4.558  0.00  0.00    -0.056 A 
ATOM     20  C   UNL     1       6.380   5.084  -5.647  0.00  0.00    +0.005 A 
ATOM     21  C   UNL     1       6.397   6.354  -6.191  0.00  0.00    +0.038 A 
ATOM     22  C   UNL     1       7.213   7.330  -5.646  0.00  0.00    +0.123 A 
ATOM     23  C   UNL     1       8.012   7.032  -4.554  0.00  0.00    +0.038 A 
ATOM     24  C   UNL     1       7.989   5.762  -4.008  0.00  0.00    +0.005 A 
ATOM     25  F   UNL     1       7.231   8.571  -6.178  0.00  0.00    -0.205 F 
ENDBRANCH  18  19
BRANCH  18  26
ATOM     26  C   UNL     1       8.024   2.489  -4.792  0.00  0.00    -0.020 A 
ATOM     27  C   UNL     1       9.291   2.068  -4.557  0.00  0.00    +0.010 A 
ATOM     28  C   UNL     1       9.896   1.220  -5.465  0.00  0.00    +0.008 A 
ATOM     29  C   UNL     1       9.204   0.834  -6.565  0.00  0.00    +0.045 A 
ATOM     30  S   UNL     1       7.645   1.672  -6.334  0.00  0.00    -0.103 S 
ENDBRANCH  18  26
ENDBRANCH   1  18
TORSDOF 8
