REMARK  Name = ZINC67029108
REMARK  5 active torsions:
REMARK  status: ('A' for Active; 'I' for Inactive)
REMARK    1  A    between atoms: C_3  and  C_6
REMARK    2  A    between atoms: C_6  and  C_8
REMARK    3  A    between atoms: C_10  and  C_22
REMARK    4  A    between atoms: C_16  and  C_17
REMARK    5  A    between atoms: C_16  and  O_21
REMARK                            x       y       z     vdW  Elec       q    Type
REMARK                         _______ _______ _______ _____ _____    ______ ____
ROOT
ATOM      1  C   UNL     1       4.228  -0.720  -0.043  0.00  0.00    +0.149 C 
ATOM      2  C   UNL     1       4.385  -1.236   1.392  0.00  0.00    +0.137 C 
ATOM      3  N   UNL     1       5.245  -0.318   2.141  0.00  0.00    -0.317 N 
ATOM      4  C   UNL     1       6.198   0.400   1.529  0.00  0.00    +0.133 C 
ATOM      5  S   UNL     1       7.176   1.441   2.473  0.00  0.00    -0.019 S 
ATOM      6  N   UNL     1       6.416   0.335   0.207  0.00  0.00    -0.291 N 
ATOM      7  C   UNL     1       5.621  -0.546  -0.657  0.00  0.00    +0.241 C 
ATOM      8  H   UNL     1       5.123  -0.228   3.099  0.00  0.00    +0.148 HD
ATOM      9  H   UNL     1       7.113   0.882  -0.187  0.00  0.00    +0.151 HD
ENDROOT
BRANCH   2  10
ATOM     10  C   UNL     1       3.031  -1.310   2.051  0.00  0.00    +0.069 A 
ATOM     11  C   UNL     1       2.578  -2.460   2.613  0.00  0.00    +0.071 A 
ATOM     12  S   UNL     1       0.979  -1.929   3.204  0.00  0.00    -0.084 S 
ATOM     13  C   UNL     1       1.058  -0.331   2.682  0.00  0.00    +0.156 A 
ATOM     14  N   UNL     1       2.236  -0.261   2.112  0.00  0.00    -0.250 NA
ENDBRANCH   2  10
BRANCH   7  15
ATOM     15  C   UNL     1       5.492   0.075  -2.050  0.00  0.00    +0.436 C 
ATOM     16  F   UNL     1       4.867   1.323  -1.948  0.00  0.00    -0.166 F 
ATOM     17  F   UNL     1       6.764   0.234  -2.609  0.00  0.00    -0.166 F 
ATOM     18  F   UNL     1       4.725  -0.765  -2.865  0.00  0.00    -0.166 F 
ENDBRANCH   7  15
BRANCH   1  19
ATOM     19  C   UNL     1       3.511   0.605  -0.029  0.00  0.00    +0.208 C 
ATOM     20  O   UNL     1       4.147   1.639  -0.030  0.00  0.00    -0.288 OA
BRANCH  19  23
ATOM     21  C   UNL     1      -0.016   1.349   0.009  0.00  0.00    +0.042 A 
ATOM     22  C   UNL     1       1.316   1.782  -0.001  0.00  0.00    +0.053 A 
ATOM     23  C   UNL     1       2.099   0.644  -0.015  0.00  0.00    +0.170 A 
ATOM     24  O   UNL     1       1.273  -0.424  -0.012  0.00  0.00    -0.460 OA
ATOM     25  C   UNL     1       0.002  -0.004   0.002  0.00  0.00    +0.196 A 
ENDBRANCH  19  23
ENDBRANCH   1  19
BRANCH   7  26
ATOM     26  O   UNL     1       6.262  -1.819  -0.758  0.00  0.00    -0.364 OA
ATOM     27  H   UNL     1       7.150  -1.784  -1.139  0.00  0.00    +0.212 HD
ENDBRANCH   7  26
TORSDOF 5
