REMARK  Name = ZINC40225903
REMARK  6 active torsions:
REMARK  status: ('A' for Active; 'I' for Inactive)
REMARK    1  A    between atoms: C_3  and  O_22
REMARK    2  A    between atoms: C_4  and  O_21
REMARK    3  A    between atoms: C_6  and  C_7
REMARK    4  A    between atoms: C_7  and  C_8
REMARK    5  A    between atoms: C_8  and  C_10
REMARK    6  A    between atoms: C_8  and  N_20
REMARK                            x       y       z     vdW  Elec       q    Type
REMARK                         _______ _______ _______ _____ _____    ______ ____
ROOT
ATOM      1  C   UNL     1      -1.746  -1.026  -1.429  0.00  0.00    -0.003 C 
ENDROOT
BRANCH   1   2
ATOM      2  C   UNL     1      -2.974  -1.900  -1.424  0.00  0.00    +0.094 A 
ATOM      3  N   UNL     1      -3.062  -3.059  -0.840  0.00  0.00    -0.234 NA
ATOM      4  C   UNL     1      -4.304  -3.573  -1.031  0.00  0.00    +0.090 A 
ATOM      5  C   UNL     1      -4.926  -4.759  -0.632  0.00  0.00    +0.045 A 
ATOM      6  C   UNL     1      -6.233  -5.000  -0.994  0.00  0.00    +0.020 A 
ATOM      7  C   UNL     1      -6.937  -4.073  -1.751  0.00  0.00    +0.017 A 
ATOM      8  C   UNL     1      -6.337  -2.899  -2.152  0.00  0.00    +0.029 A 
ATOM      9  C   UNL     1      -5.021  -2.639  -1.797  0.00  0.00    +0.066 A 
ATOM     10  N   UNL     1      -4.154  -1.588  -2.025  0.00  0.00    -0.343 N 
ATOM     11 BR   UNL     1      -7.075  -6.605  -0.454  0.00  0.00    -0.050 Br
ATOM     12  H   UNL     1      -4.350  -0.780  -2.523  0.00  0.00    +0.167 HD
ENDBRANCH   1   2
BRANCH   1  13
ATOM     13  N   UNL     1      -2.059   0.255  -2.076  0.00  0.00    +0.385 N 
ATOM     14  H   UNL     1      -2.357   0.088  -3.026  0.00  0.00    -0.089 HD
ATOM     15  H   UNL     1      -2.798   0.717  -1.568  0.00  0.00    -0.089 HD
ATOM     16  H   UNL     1      -1.237   0.840  -2.080  0.00  0.00    -0.089 HD
ENDBRANCH   1  13
BRANCH   1  17
ATOM     17  C   UNL     1      -1.294  -0.774   0.010  0.00  0.00    +0.026 C 
BRANCH  17  23
ATOM     18  C   UNL     1      -0.017   1.378   0.010  0.00  0.00    +0.007 A 
ATOM     19  C   UNL     1       1.170   2.089   0.002  0.00  0.00    +0.049 A 
ATOM     20  C   UNL     1       2.380   1.415  -0.013  0.00  0.00    +0.158 A 
ATOM     21  C   UNL     1       2.399   0.024  -0.021  0.00  0.00    +0.158 A 
ATOM     22  C   UNL     1       1.207  -0.682  -0.013  0.00  0.00    +0.052 A 
ATOM     23  C   UNL     1       0.002  -0.004   0.002  0.00  0.00    -0.045 A 
BRANCH  21  24
ATOM     24  O   UNL     1       3.585  -0.642  -0.036  0.00  0.00    -0.503 OA
ATOM     25  H   UNL     1       3.937  -0.839   0.843  0.00  0.00    +0.292 HD
ENDBRANCH  21  24
BRANCH  20  26
ATOM     26  O   UNL     1       3.548   2.113  -0.021  0.00  0.00    -0.503 OA
ATOM     27  H   UNL     1       3.894   2.310   0.860  0.00  0.00    +0.292 HD
ENDBRANCH  20  26
ENDBRANCH  17  23
ENDBRANCH   1  17
TORSDOF 6
