REMARK  Name = ZINC01896201
REMARK  6 active torsions:
REMARK  status: ('A' for Active; 'I' for Inactive)
REMARK    1  A    between atoms: C_4  and  N_7
REMARK    2  A    between atoms: C_16  and  S_17
REMARK    3  A    between atoms: S_17  and  C_18
REMARK    4  A    between atoms: C_18  and  C_19
REMARK    5  A    between atoms: N_21  and  C_22
REMARK    6  A    between atoms: C_23  and  C_31
REMARK                            x       y       z     vdW  Elec       q    Type
REMARK                         _______ _______ _______ _____ _____    ______ ____
ROOT
ATOM      1  N   UNL     1      -3.758  10.863  -6.510  0.00  0.00    -0.255 N 
ATOM      2  C   UNL     1      -3.562  12.179  -6.719  0.00  0.00    +0.268 A 
ATOM      3  O   UNL     1      -3.416  12.611  -7.850  0.00  0.00    -0.267 OA
ATOM      4  C   UNL     1      -3.528  13.062  -5.595  0.00  0.00    +0.076 A 
ATOM      5  C   UNL     1      -3.328  14.520  -5.595  0.00  0.00    -0.023 A 
ATOM      6  C   UNL     1      -3.340  15.135  -4.402  0.00  0.00    -0.004 A 
ATOM      7  S   UNL     1      -3.607  13.836  -3.217  0.00  0.00    -0.073 S 
ATOM      8  C   UNL     1      -3.707  12.466  -4.338  0.00  0.00    +0.117 A 
ATOM      9  N   UNL     1      -3.900  11.159  -4.197  0.00  0.00    -0.215 NA
ATOM     10  C   UNL     1      -3.922  10.364  -5.248  0.00  0.00    +0.178 A 
ATOM     11  C   UNL     1      -3.131  16.621  -4.526  0.00  0.00    +0.043 C 
ATOM     12  C   UNL     1      -3.413  16.929  -6.012  0.00  0.00    +0.010 C 
ATOM     13  C   UNL     1      -3.093  15.577  -6.679  0.00  0.00    +0.037 C 
ENDROOT
BRANCH   1  17
ATOM     14  C   UNL     1      -3.862   8.266  -9.768  0.00  0.00    +0.000 A 
ATOM     15  C   UNL     1      -2.662   8.532  -9.135  0.00  0.00    +0.002 A 
ATOM     16  C   UNL     1      -2.624   9.392  -8.056  0.00  0.00    +0.026 A 
ATOM     17  C   UNL     1      -3.793   9.990  -7.605  0.00  0.00    +0.052 A 
ATOM     18  C   UNL     1      -4.998   9.716  -8.238  0.00  0.00    +0.026 A 
ATOM     19  C   UNL     1      -5.029   8.860  -9.321  0.00  0.00    +0.002 A 
ENDBRANCH   1  17
BRANCH  10  20
ATOM     20  S   UNL     1      -4.176   8.635  -5.024  0.00  0.00    -0.078 S 
BRANCH  20  21
ATOM     21  C   UNL     1      -4.322   8.570  -3.221  0.00  0.00    +0.173 C 
BRANCH  21  22
ATOM     22  C   UNL     1      -4.550   7.145  -2.787  0.00  0.00    +0.228 C 
ATOM     23  O   UNL     1      -4.607   6.260  -3.615  0.00  0.00    -0.275 OA
ATOM     24  N   UNL     1      -4.690   6.853  -1.479  0.00  0.00    -0.278 N 
ATOM     25  H   UNL     1      -4.644   7.560  -0.817  0.00  0.00    +0.155 HD
BRANCH  24  26
ATOM     26  C   UNL     1      -4.900   5.540  -1.079  0.00  0.00    +0.090 A 
ATOM     27  C   UNL     1      -5.066   5.047   0.207  0.00  0.00    +0.084 A 
ATOM     28  C   UNL     1      -5.272   3.618   0.357  0.00  0.00    -0.018 A 
ATOM     29  C   UNL     1      -5.280   2.913  -0.797  0.00  0.00    -0.004 A 
ATOM     30  S   UNL     1      -5.018   4.121  -2.065  0.00  0.00    -0.077 S 
ATOM     31  C   UNL     1      -5.469   1.436  -0.952  0.00  0.00    +0.043 C 
ATOM     32  C   UNL     1      -5.281   0.778   0.423  0.00  0.00    +0.005 C 
ATOM     33  C   UNL     1      -6.099   1.552   1.460  0.00  0.00    +0.005 C 
ATOM     34  C   UNL     1      -5.471   2.926   1.700  0.00  0.00    +0.037 C 
BRANCH  27  35
ATOM     35  C   UNL     1      -5.034   5.916   1.345  0.00  0.00    +0.102 C 
ATOM     36  N   UNL     1      -5.010   6.605   2.247  0.00  0.00    -0.191 NA
ENDBRANCH  27  35
ENDBRANCH  24  26
ENDBRANCH  21  22
ENDBRANCH  20  21
ENDBRANCH  10  20
TORSDOF 6
