REMARK  Name = ZINC54416994
REMARK  5 active torsions:
REMARK  status: ('A' for Active; 'I' for Inactive)
REMARK    1  A    between atoms: C_1  and  N_2
REMARK    2  A    between atoms: N_2  and  C_3
REMARK    3  A    between atoms: N_2  and  C_6
REMARK    4  A    between atoms: C_3  and  C_4
REMARK    5  A    between atoms: C_4  and  N_5
REMARK                            x       y       z     vdW  Elec       q    Type
REMARK                         _______ _______ _______ _____ _____    ______ ____
ROOT
ATOM      1  C   UNL     1       0.661  -0.413  -1.246  0.00  0.00    +0.175 C 
ATOM      2  C   UNL     1      -0.037   0.200  -2.438  0.00  0.00    -0.000 A 
ATOM      3  C   UNL     1      -0.251   1.502  -2.830  0.00  0.00    +0.008 A 
ATOM      4  C   UNL     1      -0.941   1.766  -4.000  0.00  0.00    +0.016 A 
ATOM      5  C   UNL     1      -1.413   0.719  -4.772  0.00  0.00    +0.020 A 
ATOM      6  C   UNL     1      -1.200  -0.587  -4.381  0.00  0.00    +0.039 A 
ATOM      7  C   UNL     1      -0.506  -0.860  -3.204  0.00  0.00    +0.040 A 
ATOM      8  N   UNL     1      -0.168  -2.074  -2.605  0.00  0.00    -0.284 N 
ATOM      9  C   UNL     1       0.516  -1.905  -1.458  0.00  0.00    +0.239 C 
ATOM     10  O   UNL     1       0.937  -2.780  -0.731  0.00  0.00    -0.273 OA
ATOM     11 BR   UNL     1      -2.357   1.080  -6.371  0.00  0.00    -0.050 Br
ATOM     12  H   UNL     1      -0.399  -2.942  -2.974  0.00  0.00    +0.155 HD
ENDROOT
BRANCH   1  14
ATOM     13  C   UNL     1       0.738  -0.500   1.173  0.00  0.00    +0.105 C 
ATOM     14  N   UNL     1       0.002  -0.004   0.002  0.00  0.00    -0.293 NA
BRANCH  14  15
ATOM     15  C   UNL     1      -1.397  -0.453   0.031  0.00  0.00    +0.065 C 
BRANCH  15  16
ATOM     16  C   UNL     1      -2.116   0.196   1.215  0.00  0.00    -0.071 C 
BRANCH  16  17
ATOM     17  N   UNL     1      -3.515  -0.252   1.243  0.00  0.00    +0.379 N 
ATOM     18  H   UNL     1      -3.971   0.016   0.384  0.00  0.00    -0.090 HD
ATOM     19  H   UNL     1      -3.544  -1.256   1.341  0.00  0.00    -0.090 HD
ATOM     20  H   UNL     1      -3.989   0.176   2.024  0.00  0.00    -0.090 HD
ENDBRANCH  16  17
ENDBRANCH  15  16
ENDBRANCH  14  15
ENDBRANCH   1  14
TORSDOF 4
