REMARK  Name = ZINC08881825
REMARK  15 active torsions:
REMARK  status: ('A' for Active; 'I' for Inactive)
REMARK    1  A    between atoms: C_1  and  C_2
REMARK    2  A    between atoms: C_2  and  C_3
REMARK    3  A    between atoms: C_3  and  C_4
REMARK    4  A    between atoms: C_4  and  N_5
REMARK    5  A    between atoms: N_5  and  C_6
REMARK    6  A    between atoms: N_5  and  S_8
REMARK    7  A    between atoms: C_6  and  C_7
REMARK    8  A    between atoms: S_8  and  C_11
REMARK    9  A    between atoms: C_14  and  C_17
REMARK   10  A    between atoms: N_19  and  C_20
REMARK   11  A    between atoms: C_21  and  C_32
REMARK   12  A    between atoms: C_25  and  C_30
REMARK   13  A    between atoms: C_25  and  C_31
REMARK   14  A    between atoms: C_26  and  C_28
REMARK   15  A    between atoms: C_26  and  C_29
REMARK                            x       y       z     vdW  Elec       q    Type
REMARK                         _______ _______ _______ _____ _____    ______ ____
ROOT
ATOM      1  C   UNL     1      -3.119   3.066   4.885  0.00  0.00    +0.249 C 
ATOM      2  O   UNL     1      -3.928   2.303   5.378  0.00  0.00    -0.270 OA
ATOM      3  N   UNL     1      -2.918   4.281   5.433  0.00  0.00    -0.275 N 
ATOM      4  H   UNL     1      -2.273   4.889   5.040  0.00  0.00    +0.156 HD
ENDROOT
BRANCH   3   5
ATOM      5  C   UNL     1      -3.634   4.661   6.556  0.00  0.00    +0.085 A 
ATOM      6  C   UNL     1      -3.566   5.861   7.256  0.00  0.00    +0.068 A 
ATOM      7  C   UNL     1      -4.434   6.010   8.405  0.00  0.00    -0.026 A 
ATOM      8  C   UNL     1      -5.221   4.944   8.683  0.00  0.00    -0.016 A 
ATOM      9  S   UNL     1      -4.827   3.759   7.431  0.00  0.00    -0.079 S 
ATOM     10  C   UNL     1      -6.192   4.828   9.812  0.00  0.00    -0.041 C 
ATOM     11  C   UNL     1      -5.974   7.315   9.815  0.00  0.00    -0.069 C 
ATOM     12  C   UNL     1      -4.534   7.239   9.297  0.00  0.00    +0.024 C 
ATOM     13  C   UNL     1      -6.917   7.614   8.646  0.00  0.00    -0.010 C 
ATOM     14  C   UNL     1      -6.059   8.493  10.804  0.00  0.00    -0.010 C 
ATOM     15  C   UNL     1      -7.539   4.321   9.275  0.00  0.00    -0.005 C 
ATOM     16  C   UNL     1      -5.655   3.783  10.809  0.00  0.00    -0.005 C 
ATOM     17  N   UNL     1      -6.392   6.101  10.563  0.00  0.00    +0.389 N 
ATOM     18  H   UNL     1      -5.846   6.053  11.431  0.00  0.00    -0.084 HD
ATOM     19  H   UNL     1      -7.390   6.189  10.790  0.00  0.00    -0.084 HD
BRANCH   6  20
ATOM     20  C   UNL     1      -2.646   6.923   6.839  0.00  0.00    +0.244 C 
ATOM     21  O   UNL     1      -3.013   7.769   6.044  0.00  0.00    -0.270 OA
ATOM     22  N   UNL     1      -1.393   6.963   7.334  0.00  0.00    -0.325 N 
ATOM     23  H   UNL     1      -1.100   6.289   7.967  0.00  0.00    +0.145 HD
ATOM     24  H   UNL     1      -0.784   7.666   7.058  0.00  0.00    +0.145 HD
ENDBRANCH   6  20
ENDBRANCH   3   5
BRANCH   1  28
ATOM     25  C   UNL     1      -0.927   1.900   1.439  0.00  0.00    +0.106 A 
ATOM     26  C   UNL     1      -0.715   3.146   2.002  0.00  0.00    +0.029 A 
ATOM     27  C   UNL     1      -1.427   3.533   3.118  0.00  0.00    +0.015 A 
ATOM     28  C   UNL     1      -2.356   2.660   3.687  0.00  0.00    +0.037 A 
ATOM     29  C   UNL     1      -2.561   1.402   3.117  0.00  0.00    +0.015 A 
ATOM     30  C   UNL     1      -1.846   1.030   1.998  0.00  0.00    +0.029 A 
BRANCH  25  31
ATOM     31  S   UNL     1      -0.017   1.417   0.010  0.00  0.00    +0.061 S 
ATOM     32  O   UNL     1       0.002  -0.004   0.002  0.00  0.00    -0.153 OA
ATOM     33  O   UNL     1       1.172   2.195   0.003  0.00  0.00    -0.153 OA
BRANCH  31  34
ATOM     34  N   UNL     1      -0.897   1.885  -1.312  0.00  0.00    -0.177 NA
BRANCH  34  35
ATOM     35  C   UNL     1      -0.691   3.213  -1.897  0.00  0.00    +0.106 C 
ATOM     36  C   UNL     1       0.306   3.112  -3.053  0.00  0.00    +0.022 C 
ENDBRANCH  34  35
BRANCH  34  37
ATOM     37  C   UNL     1      -1.883   0.973  -1.897  0.00  0.00    +0.109 C 
BRANCH  37  38
ATOM     38  C   UNL     1      -3.267   1.280  -1.323  0.00  0.00    +0.017 C 
BRANCH  38  40
ATOM     39  C   UNL     1      -5.680   0.634  -1.359  0.00  0.00    +0.004 C 
ATOM     40  C   UNL     1      -4.296   0.327  -1.934  0.00  0.00    -0.002 C 
ENDBRANCH  38  40
ENDBRANCH  37  38
ENDBRANCH  34  37
ENDBRANCH  31  34
ENDBRANCH  25  31
ENDBRANCH   1  28
TORSDOF 9
