REMARK  Name = ZINC13130106
REMARK  7 active torsions:
REMARK  status: ('A' for Active; 'I' for Inactive)
REMARK    1  A    between atoms: C_1  and  C_2
REMARK    2  A    between atoms: C_2  and  C_3
REMARK    3  A    between atoms: C_2  and  C_4
REMARK    4  A    between atoms: C_2  and  O_19
REMARK    5  A    between atoms: C_4  and  N_6
REMARK    6  A    between atoms: N_7  and  C_8
REMARK    7  A    between atoms: C_17  and  O_18
REMARK                            x       y       z     vdW  Elec       q    Type
REMARK                         _______ _______ _______ _____ _____    ______ ____
ROOT
ATOM      1  C   UNL     1      -3.968  -1.233  -2.274  0.00  0.00    +0.152 A 
ATOM      2  C   UNL     1      -5.353  -1.720  -2.442  0.00  0.00    +0.030 A 
ATOM      3  C   UNL     1      -6.330  -2.163  -1.556  0.00  0.00    +0.012 A 
ATOM      4  C   UNL     1      -7.559  -2.562  -2.038  0.00  0.00    +0.001 A 
ATOM      5  C   UNL     1      -7.821  -2.522  -3.399  0.00  0.00    +0.002 A 
ATOM      6  C   UNL     1      -6.860  -2.085  -4.286  0.00  0.00    +0.026 A 
ATOM      7  C   UNL     1      -5.616  -1.678  -3.819  0.00  0.00    +0.051 A 
ATOM      8  N   UNL     1      -4.482  -1.203  -4.459  0.00  0.00    -0.324 N 
ATOM      9  H   UNL     1      -4.401  -1.078  -5.417  0.00  0.00    +0.169 HD
ATOM     10  C   UNL     1      -3.506  -0.931  -3.562  0.00  0.00    +0.219 A 
ENDROOT
BRANCH   1  12
ATOM     11  N   UNL     1      -2.086  -0.656  -1.138  0.00  0.00    -0.077 NA
ATOM     12  N   UNL     1      -3.297  -1.103  -1.129  0.00  0.00    -0.151 NA
BRANCH  11  13
ATOM     13  C   UNL     1      -1.412  -0.526   0.013  0.00  0.00    +0.285 C 
ATOM     14  O   UNL     1      -1.940  -0.828   1.064  0.00  0.00    -0.269 OA
BRANCH  13  16
ATOM     15  C   UNL     1      -0.019   1.526   0.010  0.00  0.00    +0.051 C 
ATOM     16  C   UNL     1       0.002  -0.004   0.002  0.00  0.00    +0.139 C 
ATOM     17  C   UNL     1       0.742  -0.511   1.242  0.00  0.00    +0.051 C 
BRANCH  16  18
ATOM     18  O   UNL     1       0.671  -0.465  -1.174  0.00  0.00    -0.380 OA
ATOM     19  H   UNL     1       0.722  -1.428  -1.246  0.00  0.00    +0.211 HD
ENDBRANCH  16  18
ENDBRANCH  13  16
ENDBRANCH  11  13
ENDBRANCH   1  12
BRANCH  10  20
ATOM     20  O   UNL     1      -2.282  -0.449  -3.860  0.00  0.00    -0.492 OA
ATOM     21  H   UNL     1      -1.621  -1.133  -4.032  0.00  0.00    +0.294 HD
ENDBRANCH  10  20
TORSDOF 5
