REMARK  Name = ZINC66587275
REMARK  7 active torsions:
REMARK  status: ('A' for Active; 'I' for Inactive)
REMARK    1  A    between atoms: C_1  and  C_2
REMARK    2  A    between atoms: C_5  and  N_11
REMARK    3  A    between atoms: C_7  and  C_8
REMARK    4  A    between atoms: N_11  and  S_12
REMARK    5  A    between atoms: S_12  and  C_15
REMARK    6  A    between atoms: C_22  and  C_28
REMARK    7  A    between atoms: C_25  and  C_27
REMARK                            x       y       z     vdW  Elec       q    Type
REMARK                         _______ _______ _______ _____ _____    ______ ____
ROOT
ATOM      1  S   UNL     1       1.721  -5.270  -1.601  0.00  0.00    +0.072 S 
ATOM      2  O   UNL     1       1.767  -6.690  -1.586  0.00  0.00    -0.150 OA
ATOM      3  O   UNL     1       1.065  -4.540  -2.628  0.00  0.00    -0.150 OA
ENDROOT
BRANCH   1   4
ATOM      4  C   UNL     1       3.392  -4.712  -1.575  0.00  0.00    +0.109 A 
ATOM      5  C   UNL     1       3.711  -3.457  -2.059  0.00  0.00    +0.030 A 
ATOM      6  C   UNL     1       5.018  -3.017  -2.041  0.00  0.00    +0.026 A 
ATOM      7  C   UNL     1       6.029  -3.835  -1.532  0.00  0.00    +0.040 A 
ATOM      8  C   UNL     1       5.698  -5.091  -1.048  0.00  0.00    -0.022 A 
ATOM      9  C   UNL     1       4.386  -5.525  -1.064  0.00  0.00    +0.034 A 
ATOM     10  C   UNL     1       6.960  -5.766  -0.561  0.00  0.00    +0.059 C 
ATOM     11  C   UNL     1       8.075  -4.740  -0.823  0.00  0.00    +0.083 C 
ATOM     12  N   UNL     1       7.400  -3.585  -1.423  0.00  0.00    -0.268 N 
ATOM     13  C   UNL     1       8.012  -2.449  -1.812  0.00  0.00    +0.217 C 
ATOM     14  O   UNL     1       7.382  -1.588  -2.387  0.00  0.00    -0.276 OA
ATOM     15  C   UNL     1       9.479  -2.250  -1.532  0.00  0.00    +0.109 C 
ATOM     16  C   UNL     1       9.109  -5.315  -1.793  0.00  0.00    +0.029 C 
ENDBRANCH   1   4
BRANCH   1  17
ATOM     17  N   UNL     1       1.027  -4.804  -0.171  0.00  0.00    -0.216 N 
ATOM     18  H   UNL     1       0.732  -5.474   0.465  0.00  0.00    +0.174 HD
BRANCH  17  23
ATOM     19  C   UNL     1       0.361   0.719   0.976  0.00  0.00    +0.044 C 
ATOM     20  C   UNL     1       0.539  -0.747   0.675  0.00  0.00    -0.038 A 
ATOM     21  C   UNL     1       0.213  -1.239  -0.573  0.00  0.00    +0.006 A 
ATOM     22  C   UNL     1       0.374  -2.583  -0.854  0.00  0.00    +0.025 A 
ATOM     23  C   UNL     1       0.866  -3.447   0.118  0.00  0.00    +0.049 A 
ATOM     24  C   UNL     1       1.196  -2.962   1.374  0.00  0.00    +0.037 A 
ATOM     25  C   UNL     1       1.039  -1.605   1.655  0.00  0.00    +0.041 A 
BRANCH  25  26
ATOM     26  C   UNL     1       1.395  -1.078   2.990  0.00  0.00    +0.242 C 
ATOM     27  O   UNL     1       1.316   0.114   3.214  0.00  0.00    -0.270 OA
ATOM     28  N   UNL     1       1.807  -1.920   3.959  0.00  0.00    -0.325 N 
ATOM     29  H   UNL     1       1.870  -2.871   3.780  0.00  0.00    +0.145 HD
ATOM     30  H   UNL     1       2.041  -1.574   4.835  0.00  0.00    +0.145 HD
ENDBRANCH  25  26
ENDBRANCH  17  23
ENDBRANCH   1  17
TORSDOF 4
