REMARK  Name = ZINC16666971
REMARK  12 active torsions:
REMARK  status: ('A' for Active; 'I' for Inactive)
REMARK    1  A    between atoms: C_1  and  C_2
REMARK    2  A    between atoms: C_2  and  O_3
REMARK    3  A    between atoms: O_3  and  C_4
REMARK    4  A    between atoms: C_4  and  C_6
REMARK    5  A    between atoms: C_7  and  C_38
REMARK    6  A    between atoms: C_12  and  O_15
REMARK    7  A    between atoms: O_15  and  C_16
REMARK    8  A    between atoms: C_16  and  C_17
REMARK    9  A    between atoms: C_17  and  C_19
REMARK   10  A    between atoms: C_17  and  O_37
REMARK   11  A    between atoms: C_19  and  N_71
REMARK   12  A    between atoms: C_26  and  C_36
REMARK                            x       y       z     vdW  Elec       q    Type
REMARK                         _______ _______ _______ _____ _____    ______ ____
ROOT
ATOM      1  C   UNL     1       8.237   3.638   0.884  0.00  0.00    +0.135 C 
ENDROOT
BRANCH   1   2
ATOM      2  O   UNL     1       7.493   4.681   0.250  0.00  0.00    -0.390 OA
ATOM      3  H   UNL     1       7.636   4.742  -0.704  0.00  0.00    +0.210 HD
ENDBRANCH   1   2
BRANCH   1   4
ATOM      4  C   UNL     1       9.733   3.874   0.666  0.00  0.00    +0.258 C 
BRANCH   4   5
ATOM      5  O   UNL     1      10.127   5.076   1.330  0.00  0.00    -0.489 OA
BRANCH   5  12
ATOM      6  C   UNL     1      14.030   8.069   2.268  0.00  0.00    +0.107 A 
ATOM      7  C   UNL     1      15.297   7.849   1.819  0.00  0.00    +0.117 A 
ATOM      8  O   UNL     1      15.334   6.723   1.097  0.00  0.00    -0.459 OA
ATOM      9  C   UNL     1      14.117   6.144   1.028  0.00  0.00    +0.136 A 
ATOM     10  C   UNL     1      13.223   6.944   1.753  0.00  0.00    +0.038 A 
ATOM     11  C   UNL     1      11.882   6.590   1.850  0.00  0.00    +0.058 A 
ATOM     12  C   UNL     1      11.435   5.433   1.236  0.00  0.00    +0.121 A 
ATOM     13  C   UNL     1      12.322   4.639   0.516  0.00  0.00    +0.049 A 
ATOM     14  C   UNL     1      13.651   4.989   0.412  0.00  0.00    +0.050 A 
ATOM     15  C   UNL     1      16.480   8.741   2.094  0.00  0.00    +0.087 C 
BRANCH   6  16
ATOM     16  C   UNL     1      13.564   9.192   3.092  0.00  0.00    +0.343 C 
ATOM     17  O   UNL     1      13.584   9.104   4.305  0.00  0.00    -0.245 OA
BRANCH  16  18
ATOM     18  O   UNL     1      13.113  10.318   2.505  0.00  0.00    -0.461 OA
BRANCH  18  20
ATOM     19  C   UNL     1      12.196  12.574   2.541  0.00  0.00    +0.048 C 
ATOM     20  C   UNL     1      12.668  11.386   3.382  0.00  0.00    +0.229 C 
ENDBRANCH  18  20
ENDBRANCH  16  18
ENDBRANCH   6  16
ENDBRANCH   5  12
ENDBRANCH   4   5
ENDBRANCH   1   4
BRANCH   1  21
ATOM     21  C   UNL     1       7.840   2.289   0.280  0.00  0.00    -0.043 C 
BRANCH  21  38
ATOM     22  C   UNL     1       5.512   2.798  -0.152  0.00  0.00    -0.056 C 
ATOM     23  C   UNL     1       4.105   2.779   0.458  0.00  0.00    +0.103 C 
ATOM     24  N   UNL     1       3.738   1.378   0.717  0.00  0.00    -0.347 N 
ATOM     25  C   UNL     1       2.524   0.825   0.994  0.00  0.00    +0.049 A 
ATOM     26  C   UNL     1       1.248   1.377   1.086  0.00  0.00    +0.026 A 
ATOM     27  C   UNL     1       0.208   0.519   1.397  0.00  0.00    +0.005 A 
ATOM     28  C   UNL     1       0.408  -0.835   1.612  0.00  0.00    -0.050 A 
ATOM     29  C   UNL     1       1.650  -1.410   1.527  0.00  0.00    +0.013 A 
ATOM     30  C   UNL     1       2.724  -0.571   1.212  0.00  0.00    +0.003 A 
ATOM     31  C   UNL     1       4.132  -0.803   1.036  0.00  0.00    -0.020 A 
ATOM     32  C   UNL     1       4.681   0.389   0.729  0.00  0.00    +0.009 A 
ATOM     33  C   UNL     1       6.161   0.545   0.465  0.00  0.00    -0.020 C 
ATOM     34  C   UNL     1       6.915  -0.281   1.494  0.00  0.00    -0.009 C 
ATOM     35  C   UNL     1       6.314  -1.619   1.849  0.00  0.00    +0.003 C 
ATOM     36  C   UNL     1       5.025  -2.008   1.139  0.00  0.00    +0.037 C 
ATOM     37  C   UNL     1      -0.777  -1.703   1.948  0.00  0.00    +0.044 C 
ATOM     38  N   UNL     1       6.444   1.990   0.662  0.00  0.00    +0.388 N 
ATOM     39  H   UNL     1       6.311   2.224   1.653  0.00  0.00    -0.081 HD
ENDBRANCH  21  38
ENDBRANCH   1  21
TORSDOF 9
