REMARK  Name = ZINC61951263
REMARK  8 active torsions:
REMARK  status: ('A' for Active; 'I' for Inactive)
REMARK    1  A    between atoms: C_1  and  C_2
REMARK    2  A    between atoms: C_2  and  C_3
REMARK    3  A    between atoms: C_2  and  C_4
REMARK    4  A    between atoms: C_7  and  C_10
REMARK    5  A    between atoms: C_10  and  N_11
REMARK    6  A    between atoms: N_11  and  C_12
REMARK    7  A    between atoms: N_11  and  C_13
REMARK    8  A    between atoms: C_17  and  C_19
REMARK                            x       y       z     vdW  Elec       q    Type
REMARK                         _______ _______ _______ _____ _____    ______ ____
ROOT
ATOM      1  C   UNL     1      -6.917  -0.030   0.087  0.00  0.00    +0.030 A 
ATOM      2  C   UNL     1      -6.696   0.084   1.454  0.00  0.00    +0.023 A 
ATOM      3  C   UNL     1      -7.307   1.092   2.176  0.00  0.00    +0.002 A 
ATOM      4  C   UNL     1      -8.140   1.992   1.544  0.00  0.00    +0.011 A 
ATOM      5  C   UNL     1      -8.369   1.886   0.171  0.00  0.00    +0.014 A 
ATOM      6  C   UNL     1      -7.749   0.872  -0.558  0.00  0.00    +0.034 A 
ENDROOT
BRANCH   5   7
ATOM      7  C   UNL     1      -9.262   2.850  -0.509  0.00  0.00    +0.094 C 
ATOM      8  N   UNL     1     -10.275   3.402   0.156  0.00  0.00    -0.387 N 
ATOM      9  N   UNL     1      -9.054   3.165  -1.786  0.00  0.00    -0.345 N 
ATOM     10  H   UNL     1     -10.861   4.034  -0.290  0.00  0.00    +0.157 HD
ATOM     11  H   UNL     1      -8.316   2.762  -2.270  0.00  0.00    +0.144 HD
ATOM     12  H   UNL     1      -9.639   3.796  -2.232  0.00  0.00    +0.144 HD
ATOM     13  H   UNL     1     -10.427   3.173   1.086  0.00  0.00    +0.157 HD
ENDBRANCH   5   7
BRANCH   1  14
ATOM     14  N   UNL     1      -6.298  -1.051  -0.638  0.00  0.00    -0.329 N 
ATOM     15  C   UNL     1      -6.526  -1.167  -2.081  0.00  0.00    +0.129 C 
BRANCH  14  16
ATOM     16  C   UNL     1      -5.419  -2.005   0.043  0.00  0.00    +0.139 C 
BRANCH  16  20
ATOM     17  C   UNL     1      -1.412  -0.526   0.013  0.00  0.00    -0.045 A 
ATOM     18  C   UNL     1      -2.259  -0.204   1.056  0.00  0.00    +0.004 A 
ATOM     19  C   UNL     1      -3.556  -0.683   1.066  0.00  0.00    +0.005 A 
ATOM     20  C   UNL     1      -4.006  -1.482   0.032  0.00  0.00    -0.030 A 
ATOM     21  C   UNL     1      -3.159  -1.803  -1.012  0.00  0.00    +0.005 A 
ATOM     22  C   UNL     1      -1.863  -1.321  -1.024  0.00  0.00    +0.004 A 
BRANCH  17  24
ATOM     23  C   UNL     1      -0.019   1.526   0.010  0.00  0.00    +0.012 C 
ATOM     24  C   UNL     1       0.002  -0.004   0.002  0.00  0.00    +0.013 C 
ATOM     25  C   UNL     1       0.742  -0.511   1.242  0.00  0.00    +0.012 C 
ENDBRANCH  17  24
ENDBRANCH  16  20
ENDBRANCH  14  16
ENDBRANCH   1  14
TORSDOF 5
