REMARK  Name = ZINC02943148
REMARK  6 active torsions:
REMARK  status: ('A' for Active; 'I' for Inactive)
REMARK    1  A    between atoms: C_1  and  C_2
REMARK    2  A    between atoms: C_5  and  C_8
REMARK    3  A    between atoms: N_10  and  C_11
REMARK    4  A    between atoms: C_11  and  C_20
REMARK    5  A    between atoms: C_12  and  C_13
REMARK    6  A    between atoms: N_22  and  N_23
REMARK                            x       y       z     vdW  Elec       q    Type
REMARK                         _______ _______ _______ _____ _____    ______ ____
ROOT
ATOM      1  C   UNL     1       2.457  -4.191   0.037  0.00  0.00    +0.098 C 
ATOM      2  C   UNL     1       3.629  -4.845  -0.136  0.00  0.00    +0.039 C 
ENDROOT
BRANCH   2   3
ATOM      3  C   UNL     1       3.630  -6.276  -0.472  0.00  0.00    +0.012 A 
ATOM      4  C   UNL     1       2.614  -6.812  -1.270  0.00  0.00    +0.011 A 
ATOM      5  C   UNL     1       2.624  -8.154  -1.585  0.00  0.00    +0.001 A 
ATOM      6  C   UNL     1       3.632  -8.975  -1.106  0.00  0.00    +0.003 A 
ATOM      7  C   UNL     1       4.638  -8.456  -0.312  0.00  0.00    +0.039 A 
ATOM      8  C   UNL     1       4.646  -7.112   0.009  0.00  0.00    +0.131 A 
ATOM      9  F   UNL     1       5.629  -6.606   0.786  0.00  0.00    -0.205 F 
ENDBRANCH   2   3
BRANCH   1  12
ATOM     10  C   UNL     1       1.294  -2.168   0.495  0.00  0.00    +0.248 C 
ATOM     11  O   UNL     1       0.244  -2.781   0.481  0.00  0.00    -0.270 OA
ATOM     12  N   UNL     1       2.450  -2.805   0.227  0.00  0.00    -0.277 N 
ATOM     13  H   UNL     1       3.278  -2.304   0.167  0.00  0.00    +0.155 HD
BRANCH  10  18
ATOM     14  C   UNL     1       1.324   3.457   1.709  0.00  0.00    +0.044 C 
ATOM     15  C   UNL     1       1.316   1.984   1.391  0.00  0.00    -0.050 A 
ATOM     16  C   UNL     1       0.120   1.289   1.375  0.00  0.00    +0.004 A 
ATOM     17  C   UNL     1       0.105  -0.059   1.085  0.00  0.00    +0.013 A 
ATOM     18  C   UNL     1       1.302  -0.723   0.807  0.00  0.00    +0.037 A 
ATOM     19  C   UNL     1       2.505  -0.016   0.825  0.00  0.00    +0.013 A 
ATOM     20  C   UNL     1       2.505   1.332   1.117  0.00  0.00    +0.004 A 
ENDBRANCH  10  18
ENDBRANCH   1  12
BRANCH   1  21
ATOM     21  C   UNL     1       1.191  -4.937   0.026  0.00  0.00    +0.272 C 
ATOM     22  O   UNL     1       0.414  -4.802  -0.900  0.00  0.00    -0.268 OA
ATOM     23  N   UNL     1       0.891  -5.771   1.041  0.00  0.00    -0.249 N 
ATOM     24  H   UNL     1       1.475  -5.824   1.814  0.00  0.00    +0.169 HD
BRANCH  23  25
ATOM     25  N   UNL     1      -0.236  -6.541   0.983  0.00  0.00    -0.254 NA
ATOM     26  H   UNL     1      -0.368  -7.055   1.841  0.00  0.00    +0.140 HD
ATOM     27  H   UNL     1      -1.046  -5.980   0.769  0.00  0.00    +0.140 HD
ENDBRANCH  23  25
ENDBRANCH   1  21
TORSDOF 5
