REMARK  Name = ZINC39996660
REMARK  7 active torsions:
REMARK  status: ('A' for Active; 'I' for Inactive)
REMARK    1  A    between atoms: C_2  and  C_3
REMARK    2  A    between atoms: C_3  and  N_4
REMARK    3  A    between atoms: C_8  and  C_10
REMARK    4  A    between atoms: C_10  and  S_11
REMARK    5  A    between atoms: S_11  and  C_12
REMARK    6  A    between atoms: C_16  and  C_21
REMARK    7  A    between atoms: N_17  and  C_18
REMARK                            x       y       z     vdW  Elec       q    Type
REMARK                         _______ _______ _______ _____ _____    ______ ____
ROOT
ATOM      1  C   UNL     1       5.152  -7.097   5.121  0.00  0.00    +0.237 C 
ATOM      2  N   UNL     1       4.995  -6.447   6.433  0.00  0.00    -0.237 N 
ATOM      3  N   UNL     1       3.700  -6.746   6.872  0.00  0.00    -0.169 NA
ATOM      4  C   UNL     1       3.063  -7.485   6.003  0.00  0.00    +0.147 C 
ATOM      5  N   UNL     1       3.861  -7.764   4.887  0.00  0.00    -0.282 N 
ATOM      6  H   UNL     1       5.659  -5.916   6.901  0.00  0.00    +0.171 HD
ENDROOT
BRANCH   4   7
ATOM      7  C   UNL     1       1.747  -7.944   6.168  0.00  0.00    +0.022 C 
ATOM      8  C   UNL     1       0.866  -7.625   7.202  0.00  0.00    +0.006 A 
ATOM      9  C   UNL     1       0.991  -6.800   8.341  0.00  0.00    +0.010 A 
ATOM     10  C   UNL     1      -0.054  -6.673   9.198  0.00  0.00    +0.001 A 
ATOM     11  C   UNL     1      -1.262  -7.341   8.983  0.00  0.00    +0.002 A 
ATOM     12  C   UNL     1      -1.451  -8.149   7.911  0.00  0.00    +0.026 A 
ATOM     13  C   UNL     1      -0.404  -8.332   6.972  0.00  0.00    +0.043 A 
ATOM     14  N   UNL     1      -0.338  -9.051   5.868  0.00  0.00    -0.380 N 
ATOM     15  C   UNL     1       0.984  -8.882   5.258  0.00  0.00    +0.152 C 
ATOM     16  H   UNL     1      -1.054  -9.601   5.513  0.00  0.00    +0.160 HD
ENDBRANCH   4   7
BRANCH   5  17
ATOM     17  C   UNL     1       3.487  -8.560   3.716  0.00  0.00    +0.078 C 
ATOM     18  C   UNL     1       4.562  -8.807   2.656  0.00  0.00    +0.024 C 
ATOM     19  C   UNL     1       3.411  -7.841   2.367  0.00  0.00    +0.024 C 
ENDBRANCH   5  17
BRANCH   1  20
ATOM     20  S   UNL     1       5.470  -5.859   3.834  0.00  0.00    -0.109 S 
BRANCH  20  21
ATOM     21  C   UNL     1       4.052  -4.733   3.948  0.00  0.00    +0.168 C 
BRANCH  21  26
ATOM     22  N   UNL     1       2.431  -0.751   1.796  0.00  0.00    -0.296 N 
ATOM     23  C   UNL     1       3.374  -1.709   1.897  0.00  0.00    +0.306 C 
ATOM     24  O   UNL     1       4.338  -1.692   1.157  0.00  0.00    -0.252 OA
ATOM     25  N   UNL     1       3.249  -2.685   2.818  0.00  0.00    -0.240 N 
ATOM     26  C   UNL     1       4.192  -3.642   2.918  0.00  0.00    +0.230 C 
ATOM     27  O   UNL     1       5.154  -3.625   2.180  0.00  0.00    -0.274 OA
ATOM     28  H   UNL     1       1.661  -0.765   2.387  0.00  0.00    +0.151 HD
ATOM     29  H   UNL     1       2.479  -2.698   3.408  0.00  0.00    +0.159 HD
BRANCH  22  30
ATOM     30  C   UNL     1       2.567   0.309   0.795  0.00  0.00    +0.132 C 
BRANCH  30  32
ATOM     31  C   UNL     1       1.584   2.529   1.060  0.00  0.00    +0.005 C 
ATOM     32  C   UNL     1       1.389   1.244   0.890  0.00  0.00    -0.016 C 
ENDBRANCH  30  32
ENDBRANCH  22  30
ENDBRANCH  21  26
ENDBRANCH  20  21
ENDBRANCH   1  20
TORSDOF 7
