REMARK  Name = ZINC38337186
REMARK  8 active torsions:
REMARK  status: ('A' for Active; 'I' for Inactive)
REMARK    1  A    between atoms: C_1  and  C_2
REMARK    2  A    between atoms: C_2  and  O_37
REMARK    3  A    between atoms: C_7  and  O_36
REMARK    4  A    between atoms: C_13  and  O_34
REMARK    5  A    between atoms: C_17  and  N_31
REMARK    6  A    between atoms: C_20  and  C_27
REMARK    7  A    between atoms: N_31  and  C_32
REMARK    8  A    between atoms: N_31  and  C_33
REMARK                            x       y       z     vdW  Elec       q    Type
REMARK                         _______ _______ _______ _____ _____    ______ ____
ROOT
ATOM      1  C   UNL     1       0.010   2.841   0.571  0.00  0.00    +0.047 C 
ATOM      2  C   UNL     1      -0.018   1.355   0.208  0.00  0.00    +0.095 C 
ATOM      3  C   UNL     1       0.493   1.177  -1.197  0.00  0.00    -0.002 A 
ATOM      4  C   UNL     1       0.174   2.124  -2.152  0.00  0.00    +0.007 A 
ATOM      5  C   UNL     1       0.628   1.990  -3.453  0.00  0.00    +0.004 A 
ATOM      6  C   UNL     1       1.405   0.909  -3.819  0.00  0.00    +0.046 A 
ATOM      7  C   UNL     1       1.738  -0.053  -2.878  0.00  0.00    +0.128 A 
ATOM      8  C   UNL     1       1.280   0.081  -1.558  0.00  0.00    +0.065 A 
ATOM      9  C   UNL     1       1.635  -0.939  -0.556  0.00  0.00    +0.178 C 
ATOM     10  C   UNL     1       0.900  -0.894   0.767  0.00  0.00    +0.138 C 
ATOM     11  C   UNL     1       0.845   0.580   1.198  0.00  0.00    +0.072 C 
ATOM     12  C   UNL     1       0.264   0.675   2.608  0.00  0.00    +0.127 C 
ATOM     13  C   UNL     1       1.195  -0.034   3.590  0.00  0.00    +0.062 C 
ATOM     14  C   UNL     1       0.708   0.150   5.021  0.00  0.00    +0.013 C 
ATOM     15  C   UNL     1      -0.568  -0.598   5.271  0.00  0.00    +0.159 C 
ATOM     16  C   UNL     1      -0.963  -1.660   4.495  0.00  0.00    +0.123 C 
ATOM     17  C   UNL     1      -0.139  -2.091   3.363  0.00  0.00    +0.214 C 
ATOM     18  O   UNL     1      -0.568  -2.875   2.542  0.00  0.00    -0.288 OA
ATOM     19  C   UNL     1       1.252  -1.532   3.255  0.00  0.00    +0.228 C 
ATOM     20  C   UNL     1       1.678  -1.668   1.806  0.00  0.00    +0.187 C 
ATOM     21  O   UNL     1       2.608  -2.372   1.492  0.00  0.00    -0.293 OA
ATOM     22  O   UNL     1       2.150  -2.216   4.131  0.00  0.00    -0.211 OA
ATOM     23  O   UNL     1      -1.351  -0.217   6.291  0.00  0.00    -0.293 OA
ATOM     24  O   UNL     1       2.480  -1.780  -0.781  0.00  0.00    -0.291 OA
ENDROOT
BRANCH  16  25
ATOM     25  C   UNL     1      -2.217  -2.366   4.801  0.00  0.00    +0.248 C 
ATOM     26  O   UNL     1      -2.864  -2.058   5.784  0.00  0.00    -0.270 OA
ATOM     27  N   UNL     1      -2.648  -3.355   3.993  0.00  0.00    -0.325 N 
ATOM     28  H   UNL     1      -2.099  -3.647   3.248  0.00  0.00    +0.145 HD
ATOM     29  H   UNL     1      -3.507  -3.775   4.156  0.00  0.00    +0.145 HD
ENDBRANCH  16  25
BRANCH  14  30
ATOM     30  N   UNL     1       1.739  -0.340   5.945  0.00  0.00    +0.383 N 
ATOM     31  C   UNL     1       2.970   0.440   5.763  0.00  0.00    -0.096 C 
ATOM     32  C   UNL     1       1.266  -0.193   7.329  0.00  0.00    -0.096 C 
ATOM     33  H   UNL     1       1.926  -1.313   5.755  0.00  0.00    -0.082 HD
ENDBRANCH  14  30
BRANCH  12  34
ATOM     34  O   UNL     1       0.136   2.049   2.979  0.00  0.00    -0.391 OA
ATOM     35  H   UNL     1       0.960   2.551   2.919  0.00  0.00    +0.210 HD
ENDBRANCH  12  34
BRANCH   7  36
ATOM     36  O   UNL     1       2.501  -1.117  -3.231  0.00  0.00    -0.506 OA
ATOM     37  H   UNL     1       3.451  -0.972  -3.126  0.00  0.00    +0.292 HD
ENDBRANCH   7  36
BRANCH   2  38
ATOM     38  O   UNL     1      -1.363   0.878   0.283  0.00  0.00    -0.384 OA
ATOM     39  H   UNL     1      -1.975   1.332  -0.314  0.00  0.00    +0.211 HD
ENDBRANCH   2  38
TORSDOF 5
