REMARK  Name = ZINC12672222
REMARK  6 active torsions:
REMARK  status: ('A' for Active; 'I' for Inactive)
REMARK    1  A    between atoms: C_1  and  O_2
REMARK    2  A    between atoms: O_2  and  C_3
REMARK    3  A    between atoms: C_24  and  O_34
REMARK    4  A    between atoms: C_26  and  O_32
REMARK    5  A    between atoms: C_28  and  C_30
REMARK    6  A    between atoms: O_32  and  C_33
REMARK                            x       y       z     vdW  Elec       q    Type
REMARK                         _______ _______ _______ _____ _____    ______ ____
ROOT
ATOM      1  C   UNL     1       0.800  -6.551  -1.584  0.00  0.00    +0.122 A 
ATOM      2  C   UNL     1      -0.170  -6.478  -0.591  0.00  0.00    +0.046 A 
ATOM      3  C   UNL     1      -0.618  -5.278  -0.098  0.00  0.00    +0.014 A 
ATOM      4  C   UNL     1      -0.053  -4.118  -0.639  0.00  0.00    +0.003 A 
ATOM      5  C   UNL     1       0.940  -4.185  -1.651  0.00  0.00    +0.050 A 
ATOM      6  C   UNL     1       1.377  -5.415  -2.136  0.00  0.00    +0.071 A 
ATOM      7  N   UNL     1       1.289  -2.902  -1.964  0.00  0.00    -0.359 N 
ATOM      8  H   UNL     1       1.951  -2.650  -2.627  0.00  0.00    +0.166 HD
ATOM      9  C   UNL     1       0.564  -2.025  -1.202  0.00  0.00    +0.007 A 
ATOM     10  C   UNL     1      -0.266  -2.711  -0.382  0.00  0.00    -0.022 A 
ATOM     11  C   UNL     1      -1.211  -2.050   0.590  0.00  0.00    +0.019 C 
ATOM     12  C   UNL     1      -1.336  -0.570   0.205  0.00  0.00    -0.073 C 
ATOM     13  C   UNL     1       0.632  -0.518  -1.223  0.00  0.00    -0.020 C 
ATOM     14  C   UNL     1       2.091  -0.062  -1.270  0.00  0.00    -0.005 C 
ATOM     15  C   UNL     1       2.134   1.468  -1.254  0.00  0.00    +0.006 C 
ATOM     16  C   UNL     1       1.423   1.984  -0.001  0.00  0.00    -0.021 C 
ATOM     17  C   UNL     1      -0.018   1.463   0.010  0.00  0.00    -0.074 C 
ATOM     18  C   UNL     1       2.149   1.473   1.246  0.00  0.00    +0.036 C 
ATOM     19  C   UNL     1       3.597   1.965   1.235  0.00  0.00    +0.144 C 
ATOM     20  C   UNL     1       4.304   1.432  -0.013  0.00  0.00    +0.160 C 
ATOM     21  C   UNL     1       3.586   1.945  -1.251  0.00  0.00    +0.136 C 
ATOM     22  N   UNL     1       0.028  -0.015   0.031  0.00  0.00    +0.386 N 
ATOM     23  H   UNL     1       0.610  -0.316   0.822  0.00  0.00    -0.081 HD
ENDROOT
BRANCH  21  24
ATOM     24  C   UNL     1       4.289   1.419  -2.475  0.00  0.00    +0.362 C 
ATOM     25  O   UNL     1       3.689   0.732  -3.268  0.00  0.00    -0.246 OA
ATOM     26  O   UNL     1       5.582   1.713  -2.685  0.00  0.00    -0.246 OA
ENDBRANCH  21  24
BRANCH   1  28
ATOM     27  C   UNL     1       0.575  -8.913  -1.431  0.00  0.00    +0.277 C 
ATOM     28  O   UNL     1       1.196  -7.773  -2.028  0.00  0.00    -0.495 OA
ENDBRANCH   1  28
BRANCH  20  29
ATOM     29  O   UNL     1       4.279   0.003  -0.002  0.00  0.00    -0.376 OA
ATOM     30  C   UNL     1       5.401  -0.593   0.651  0.00  0.00    +0.194 C 
ENDBRANCH  20  29
BRANCH  19  31
ATOM     31  O   UNL     1       3.615   3.394   1.219  0.00  0.00    -0.389 OA
ATOM     32  H   UNL     1       3.182   3.801   1.982  0.00  0.00    +0.210 HD
ENDBRANCH  19  31
TORSDOF 4
