REMARK  Name = ZINC13443072
REMARK  11 active torsions:
REMARK  status: ('A' for Active; 'I' for Inactive)
REMARK    1  A    between atoms: C_1  and  C_2
REMARK    2  A    between atoms: C_2  and  C_4
REMARK    3  A    between atoms: C_2  and  N_19
REMARK    4  A    between atoms: C_4  and  C_6
REMARK    5  A    between atoms: C_4  and  C_15
REMARK    6  A    between atoms: C_6  and  C_7
REMARK    7  A    between atoms: C_11  and  C_13
REMARK    8  A    between atoms: C_15  and  O_17
REMARK    9  A    between atoms: O_17  and  C_18
REMARK   10  A    between atoms: C_20  and  C_22
REMARK   11  A    between atoms: C_25  and  C_28
REMARK                            x       y       z     vdW  Elec       q    Type
REMARK                         _______ _______ _______ _____ _____    ______ ____
ROOT
ATOM      1  C   UNL     1       1.659   1.745  -3.401  0.00  0.00    +0.028 C 
ATOM      2  C   UNL     1       0.977   1.635  -2.036  0.00  0.00    +0.084 C 
ENDROOT
BRANCH   2   3
ATOM      3  N   UNL     1      -0.239   0.828  -2.162  0.00  0.00    -0.308 N 
ATOM      4  C   UNL     1      -1.393   1.405  -2.554  0.00  0.00    +0.244 C 
ATOM      5  O   UNL     1      -1.425   2.595  -2.797  0.00  0.00    -0.270 OA
ATOM      6  H   UNL     1      -0.213  -0.122  -1.968  0.00  0.00    +0.149 HD
BRANCH   4   7
ATOM      7  C   UNL     1      -2.618   0.590  -2.686  0.00  0.00    +0.037 A 
ATOM      8  C   UNL     1      -2.580  -0.779  -2.412  0.00  0.00    +0.013 A 
ATOM      9  C   UNL     1      -3.724  -1.537  -2.530  0.00  0.00    +0.009 A 
ATOM     10  C   UNL     1      -4.918  -0.939  -2.936  0.00  0.00    -0.016 A 
ATOM     11  C   UNL     1      -4.955   0.427  -3.216  0.00  0.00    +0.009 A 
ATOM     12  C   UNL     1      -3.814   1.187  -3.092  0.00  0.00    +0.013 A 
BRANCH  10  13
ATOM     13  C   UNL     1      -6.147  -1.757  -3.069  0.00  0.00    +0.002 A 
ATOM     14  C   UNL     1      -6.123  -3.127  -2.792  0.00  0.00    +0.011 A 
ATOM     15  C   UNL     1      -7.297  -3.847  -2.931  0.00  0.00    +0.022 A 
ATOM     16  C   UNL     1      -8.447  -3.194  -3.336  0.00  0.00    +0.133 A 
ATOM     17  N   UNL     1      -8.440  -1.899  -3.592  0.00  0.00    -0.146 N 
ATOM     18  O   UNL     1      -9.641  -1.272  -4.004  0.00  0.00    -0.164 OA
ATOM     19  C   UNL     1      -7.347  -1.171  -3.468  0.00  0.00    +0.141 A 
ENDBRANCH  10  13
ENDBRANCH   4   7
ENDBRANCH   2   3
BRANCH   2  20
ATOM     20  C   UNL     1       1.930   0.968  -1.042  0.00  0.00    +0.122 C 
BRANCH  20  21
ATOM     21  C   UNL     1       1.258   0.860   0.302  0.00  0.00    +0.312 C 
ATOM     22  O   UNL     1       0.133   1.272   0.450  0.00  0.00    -0.250 OA
BRANCH  21  23
ATOM     23  O   UNL     1       1.911   0.304   1.335  0.00  0.00    -0.468 OA
ATOM     24  C   UNL     1       1.202   0.232   2.601  0.00  0.00    +0.280 C 
ENDBRANCH  21  23
ENDBRANCH  20  21
BRANCH  20  25
ATOM     25  C   UNL     1       3.201   1.811  -0.911  0.00  0.00    +0.051 C 
BRANCH  25  26
ATOM     26  C   UNL     1       4.189   1.094  -0.028  0.00  0.00    -0.046 A 
ATOM     27  C   UNL     1       4.184   1.317   1.338  0.00  0.00    +0.004 A 
ATOM     28  C   UNL     1       5.085   0.660   2.155  0.00  0.00    +0.001 A 
ATOM     29  C   UNL     1       6.003  -0.215   1.611  0.00  0.00    +0.011 A 
ATOM     30  C   UNL     1       6.017  -0.440   0.235  0.00  0.00    +0.012 A 
ATOM     31  C   UNL     1       5.102   0.222  -0.583  0.00  0.00    +0.015 A 
BRANCH  30  32
ATOM     32  C   UNL     1       7.000  -1.378  -0.355  0.00  0.00    +0.094 C 
ATOM     33  N   UNL     1       7.902  -2.031   0.457  0.00  0.00    -0.345 N 
ATOM     34  H   UNL     1       7.616  -2.182  -2.121  0.00  0.00    +0.157 HD
ATOM     35  H   UNL     1       7.894  -1.876   1.414  0.00  0.00    +0.144 HD
ATOM     36  H   UNL     1       8.546  -2.645   0.070  0.00  0.00    +0.144 HD
ATOM     37  N   UNL     1       6.959  -1.546  -1.667  0.00  0.00    -0.387 N 
ATOM     38  H   UNL     1       6.267  -1.036  -2.229  0.00  0.00    +0.157 HD
ENDBRANCH  30  32
ENDBRANCH  25  26
ENDBRANCH  20  25
ENDBRANCH   2  20
TORSDOF 9
