REMARK  Name = ZINC12501671
REMARK  7 active torsions:
REMARK  status: ('A' for Active; 'I' for Inactive)
REMARK    1  A    between atoms: C_1  and  S_2
REMARK    2  A    between atoms: S_2  and  C_3
REMARK    3  A    between atoms: C_3  and  C_4
REMARK    4  A    between atoms: C_6  and  O_25
REMARK    5  A    between atoms: C_8  and  O_24
REMARK    6  A    between atoms: C_10  and  C_13
REMARK    7  A    between atoms: C_18  and  N_23
REMARK                            x       y       z     vdW  Elec       q    Type
REMARK                         _______ _______ _______ _____ _____    ______ ____
ROOT
ATOM      1  C   UNL     1      -1.310  -4.322  -3.300  0.00  0.00    -0.004 C 
ATOM      2  C   UNL     1      -1.892  -5.517  -3.215  0.00  0.00    +0.067 C 
ATOM      3  C   UNL     1      -3.051  -5.558  -4.152  0.00  0.00    +0.094 C 
ATOM      4  N   UNL     1      -3.175  -4.455  -4.776  0.00  0.00    -0.278 NA
ATOM      5  C   UNL     1      -2.114  -3.543  -4.323  0.00  0.00    +0.176 C 
ATOM      6  C   UNL     1      -3.877  -6.833  -4.232  0.00  0.00    +0.188 C 
ATOM      7  N   UNL     1      -2.928  -7.910  -3.870  0.00  0.00    -0.316 N 
ATOM      8  C   UNL     1      -2.125  -7.763  -2.770  0.00  0.00    +0.157 C 
ATOM      9  N   UNL     1      -1.587  -6.615  -2.443  0.00  0.00    -0.348 N 
ATOM     10  H   UNL     1      -2.875  -8.715  -4.408  0.00  0.00    +0.149 HD
ATOM     11  H   UNL     1      -0.992  -6.540  -1.681  0.00  0.00    +0.167 HD
ENDROOT
BRANCH   1  15
ATOM     12  C   UNL     1       0.966  -1.944  -1.668  0.00  0.00    +0.095 C 
ATOM     13  C   UNL     1       1.777  -2.324  -2.926  0.00  0.00    +0.162 C 
ATOM     14  C   UNL     1       1.072  -3.573  -3.495  0.00  0.00    +0.166 C 
ATOM     15  C   UNL     1      -0.105  -3.842  -2.533  0.00  0.00    +0.115 C 
ATOM     16  N   UNL     1      -0.381  -2.526  -1.899  0.00  0.00    -0.301 NA
ATOM     17  H   UNL     1      -0.880  -2.640  -1.028  0.00  0.00    +0.123 HD
BRANCH  14  18
ATOM     18  O   UNL     1       0.589  -3.312  -4.814  0.00  0.00    -0.387 OA
ATOM     19  H   UNL     1       1.283  -3.093  -5.451  0.00  0.00    +0.210 HD
ENDBRANCH  14  18
BRANCH  13  20
ATOM     20  O   UNL     1       3.127  -2.632  -2.571  0.00  0.00    -0.388 OA
ATOM     21  H   UNL     1       3.684  -2.878  -3.322  0.00  0.00    +0.210 HD
ENDBRANCH  13  20
BRANCH  12  22
ATOM     22  C   UNL     1       0.873  -0.423  -1.533  0.00  0.00    +0.090 C 
BRANCH  22  24
ATOM     23  C   UNL     1      -0.022   1.810   0.012  0.00  0.00    +0.084 C 
ATOM     24  S   UNL     1       0.002  -0.004   0.002  0.00  0.00    -0.163 S 
ENDBRANCH  22  24
ENDBRANCH  12  22
ENDBRANCH   1  15
BRANCH   6  25
ATOM     25  N   UNL     1      -4.991  -6.783  -3.276  0.00  0.00    -0.308 NA
ATOM     26  H   UNL     1      -5.545  -7.625  -3.322  0.00  0.00    +0.120 HD
ATOM     27  H   UNL     1      -4.656  -6.621  -2.338  0.00  0.00    +0.120 HD
ENDBRANCH   6  25
TORSDOF 6
