REMARK  Name = ZINC59428004
REMARK  7 active torsions:
REMARK  status: ('A' for Active; 'I' for Inactive)
REMARK    1  A    between atoms: C_4  and  C_7
REMARK    2  A    between atoms: C_7  and  N_8
REMARK    3  A    between atoms: N_8  and  N_9
REMARK    4  A    between atoms: C_10  and  C_12
REMARK    5  A    between atoms: C_15  and  N_18
REMARK    6  A    between atoms: C_19  and  C_20
REMARK    7  A    between atoms: C_20  and  C_22
REMARK                            x       y       z     vdW  Elec       q    Type
REMARK                         _______ _______ _______ _____ _____    ______ ____
ROOT
ATOM      1  C   UNL     1       3.714  -0.719  -0.267  0.00  0.00    +0.055 C 
ATOM      2  C   UNL     1       3.720  -2.055   0.059  0.00  0.00    +0.076 C 
ENDROOT
BRANCH   1   6
ATOM      3  C   UNL     1       0.158   1.102  -1.704  0.00  0.00    +0.000 A 
ATOM      4  C   UNL     1       0.749   1.568  -0.544  0.00  0.00    +0.001 A 
ATOM      5  C   UNL     1       1.905   0.982  -0.071  0.00  0.00    +0.010 A 
ATOM      6  C   UNL     1       2.477  -0.086  -0.766  0.00  0.00    -0.003 A 
ATOM      7  C   UNL     1       1.875  -0.551  -1.938  0.00  0.00    +0.010 A 
ATOM      8  C   UNL     1       0.720   0.045  -2.399  0.00  0.00    +0.001 A 
ENDBRANCH   1   6
BRANCH   1   9
ATOM      9  N   UNL     1       4.860   0.028  -0.127  0.00  0.00    -0.264 N 
ATOM     10  H   UNL     1       4.856   0.970  -0.356  0.00  0.00    +0.170 HD
BRANCH   9  11
ATOM     11  N   UNL     1       6.033  -0.573   0.348  0.00  0.00    -0.232 N 
ATOM     12  C   UNL     1       7.157   0.159   0.485  0.00  0.00    +0.260 C 
ATOM     13  O   UNL     1       7.151   1.341   0.197  0.00  0.00    -0.269 OA
ATOM     14  H   UNL     1       6.037  -1.515   0.577  0.00  0.00    +0.173 HD
BRANCH  12  15
ATOM     15  C   UNL     1       8.392  -0.473   0.984  0.00  0.00    +0.038 A 
ATOM     16  C   UNL     1       8.401  -1.832   1.310  0.00  0.00    +0.015 A 
ATOM     17  C   UNL     1       9.556  -2.419   1.775  0.00  0.00    +0.023 A 
ATOM     18  C   UNL     1      10.714  -1.661   1.922  0.00  0.00    +0.025 A 
ATOM     19  C   UNL     1      10.708  -0.306   1.599  0.00  0.00    +0.023 A 
ATOM     20  C   UNL     1       9.558   0.285   1.127  0.00  0.00    +0.015 A 
BRANCH  18  21
ATOM     21  N   UNL     1      11.879  -2.256   2.393  0.00  0.00    -0.358 N 
ATOM     22  H   UNL     1      11.884  -3.200   2.619  0.00  0.00    +0.142 HD
ATOM     23  H   UNL     1      12.686  -1.729   2.496  0.00  0.00    +0.142 HD
ENDBRANCH  18  21
ENDBRANCH  12  15
ENDBRANCH   9  11
ENDBRANCH   1   9
BRANCH   2  24
ATOM     24  C   UNL     1       2.516  -2.782   0.067  0.00  0.00    +0.188 C 
ATOM     25  O   UNL     1       1.455  -2.207  -0.102  0.00  0.00    -0.287 OA
BRANCH  24  26
ATOM     26  C   UNL     1       2.537  -4.247   0.282  0.00  0.00    +0.022 A 
ATOM     27  C   UNL     1       3.749  -4.908   0.482  0.00  0.00    +0.012 A 
ATOM     28  C   UNL     1       3.762  -6.273   0.682  0.00  0.00    +0.001 A 
ATOM     29  C   UNL     1       2.577  -6.987   0.683  0.00  0.00    +0.000 A 
ATOM     30  C   UNL     1       1.371  -6.337   0.485  0.00  0.00    +0.001 A 
ATOM     31  C   UNL     1       1.344  -4.971   0.290  0.00  0.00    +0.012 A 
ENDBRANCH  24  26
ENDBRANCH   2  24
TORSDOF 7
