REMARK  Name = ZINC63588774
REMARK  8 active torsions:
REMARK  status: ('A' for Active; 'I' for Inactive)
REMARK    1  A    between atoms: C_1  and  C_2
REMARK    2  A    between atoms: C_5  and  N_9
REMARK    3  A    between atoms: C_6  and  C_8
REMARK    4  A    between atoms: N_11  and  C_12
REMARK    5  A    between atoms: C_12  and  C_13
REMARK    6  A    between atoms: C_13  and  C_14
REMARK    7  A    between atoms: N_23  and  C_24
REMARK    8  A    between atoms: C_24  and  C_26
REMARK                            x       y       z     vdW  Elec       q    Type
REMARK                         _______ _______ _______ _____ _____    ______ ____
ROOT
ATOM      1  N   UNL     1      -0.191  -4.025  -0.252  0.00  0.00    -0.328 N 
ATOM      2  C   UNL     1       0.145  -4.849  -1.288  0.00  0.00    +0.194 C 
ATOM      3  N   UNL     1       0.305  -6.186  -1.072  0.00  0.00    -0.357 N 
ATOM      4  N   UNL     1       0.315  -4.349  -2.503  0.00  0.00    -0.143 NA
ATOM      5  H   UNL     1       0.105  -6.564  -0.201  0.00  0.00    +0.162 HD
ATOM      6  H   UNL     1      -0.659  -3.193  -0.426  0.00  0.00    +0.169 HD
ENDROOT
BRANCH   1  11
ATOM      7  C   UNL     1       1.145  -5.469   5.068  0.00  0.00    +0.044 C 
ATOM      8  C   UNL     1       0.790  -5.085   3.655  0.00  0.00    -0.050 A 
ATOM      9  C   UNL     1       1.706  -5.279   2.636  0.00  0.00    +0.005 A 
ATOM     10  C   UNL     1       1.383  -4.929   1.340  0.00  0.00    +0.026 A 
ATOM     11  C   UNL     1       0.138  -4.381   1.060  0.00  0.00    +0.045 A 
ATOM     12  C   UNL     1      -0.779  -4.188   2.084  0.00  0.00    -0.027 A 
ATOM     13  C   UNL     1      -0.452  -4.545   3.378  0.00  0.00    +0.008 A 
ATOM     14  C   UNL     1      -2.131  -3.594   1.784  0.00  0.00    +0.046 C 
ENDBRANCH   1  11
BRANCH   4  15
ATOM     15  C   UNL     1       0.232  -3.027  -2.701  0.00  0.00    +0.270 C 
ATOM     16  O   UNL     1       0.137  -2.273  -1.749  0.00  0.00    -0.268 OA
BRANCH  15  17
ATOM     17  C   UNL     1       0.257  -2.482  -4.078  0.00  0.00    +0.040 A 
ATOM     18  C   UNL     1       0.246  -3.345  -5.173  0.00  0.00    +0.013 A 
ATOM     19  C   UNL     1       0.269  -2.832  -6.454  0.00  0.00    +0.002 A 
ATOM     20  C   UNL     1       0.304  -1.463  -6.653  0.00  0.00    +0.015 A 
ATOM     21  C   UNL     1       0.316  -0.601  -5.570  0.00  0.00    +0.019 A 
ATOM     22  C   UNL     1       0.286  -1.103  -4.284  0.00  0.00    +0.028 A 
ATOM     23 BR   UNL     1       0.364   1.268  -5.853  0.00  0.00    -0.050 Br
ENDBRANCH  15  17
ENDBRANCH   4  15
BRANCH   3  24
ATOM     24  C   UNL     1       0.779  -7.051  -2.155  0.00  0.00    +0.120 C 
BRANCH  24  25
ATOM     25  C   UNL     1       0.870  -8.494  -1.652  0.00  0.00    +0.054 C 
BRANCH  25  26
ATOM     26  C   UNL     1       1.358  -9.384  -2.766  0.00  0.00    -0.040 C 
ATOM     27  C   UNL     1       2.632  -9.772  -2.999  0.00  0.00    -0.001 A 
ATOM     28  C   UNL     1       3.898  -9.490  -2.311  0.00  0.00    +0.010 A 
ATOM     29  C   UNL     1       5.040 -10.033  -2.791  0.00  0.00    +0.001 A 
ATOM     30  C   UNL     1       5.045 -10.856  -3.926  0.00  0.00    +0.002 A 
ATOM     31  C   UNL     1       3.922 -11.160  -4.611  0.00  0.00    +0.026 A 
ATOM     32  C   UNL     1       2.664 -10.644  -4.194  0.00  0.00    +0.043 A 
ATOM     33  N   UNL     1       1.456 -10.789  -4.682  0.00  0.00    -0.380 N 
ATOM     34  C   UNL     1       0.519 -10.030  -3.846  0.00  0.00    +0.144 C 
ATOM     35  H   UNL     1       1.221 -11.315  -5.463  0.00  0.00    +0.160 HD
ENDBRANCH  25  26
ENDBRANCH  24  25
ENDBRANCH   3  24
TORSDOF 6
