REMARK  Name = ZINC13595382
REMARK  10 active torsions:
REMARK  status: ('A' for Active; 'I' for Inactive)
REMARK    1  A    between atoms: C_1  and  C_2
REMARK    2  A    between atoms: C_2  and  C_3
REMARK    3  A    between atoms: C_2  and  C_4
REMARK    4  A    between atoms: C_4  and  N_5
REMARK    5  A    between atoms: C_11  and  C_13
REMARK    6  A    between atoms: C_13  and  C_14
REMARK    7  A    between atoms: N_16  and  C_17
REMARK    8  A    between atoms: C_17  and  C_18
REMARK    9  A    between atoms: C_18  and  C_19
REMARK   10  A    between atoms: C_19  and  N_20
REMARK                            x       y       z     vdW  Elec       q    Type
REMARK                         _______ _______ _______ _____ _____    ______ ____
ROOT
ATOM      1  C   UNL     1      -3.599   0.259   1.042  0.00  0.00    +0.212 C 
ATOM      2  O   UNL     1      -2.615  -0.429   1.214  0.00  0.00    -0.276 OA
ATOM      3  N   UNL     1      -4.143   0.927   2.079  0.00  0.00    -0.315 N 
ATOM      4  H   UNL     1      -4.931   1.477   1.942  0.00  0.00    +0.149 HD
ENDROOT
BRANCH   1   5
ATOM      5  C   UNL     1      -4.215   0.365  -0.329  0.00  0.00    +0.089 C 
BRANCH   5  12
ATOM      6  N   UNL     1      -3.680  -1.975  -0.804  0.00  0.00    +0.389 N 
ATOM      7  C   UNL     1      -2.836  -2.870  -1.610  0.00  0.00    -0.059 C 
ATOM      8  C   UNL     1      -1.369  -2.613  -1.259  0.00  0.00    +0.085 C 
ATOM      9  N   UNL     1      -1.082  -1.183  -1.343  0.00  0.00    -0.318 N 
ATOM     10  C   UNL     1      -2.044  -0.253  -1.341  0.00  0.00    +0.200 C 
ATOM     11  O   UNL     1      -1.723   0.916  -1.390  0.00  0.00    -0.278 OA
ATOM     12  C   UNL     1      -3.505  -0.598  -1.283  0.00  0.00    +0.028 C 
ATOM     13  H   UNL     1      -0.157  -0.896  -1.401  0.00  0.00    +0.149 HD
ATOM     14  H   UNL     1      -3.408  -2.033   0.166  0.00  0.00    -0.081 HD
BRANCH   6  15
ATOM     15  C   UNL     1      -5.089  -2.368  -0.945  0.00  0.00    -0.075 C 
BRANCH  15  17
ATOM     16  C   UNL     1      -5.054  -3.649   1.201  0.00  0.00    +0.005 C 
ATOM     17  C   UNL     1      -5.300  -3.743  -0.306  0.00  0.00    -0.034 C 
ATOM     18  C   UNL     1      -6.735  -4.208  -0.561  0.00  0.00    +0.005 C 
ENDBRANCH  15  17
ENDBRANCH   6  15
ENDBRANCH   5  12
ENDBRANCH   1   5
BRANCH   3  19
ATOM     19  C   UNL     1      -3.545   0.824   3.412  0.00  0.00    +0.105 C 
BRANCH  19  20
ATOM     20  C   UNL     1      -4.349   1.673   4.399  0.00  0.00    +0.037 C 
BRANCH  20  21
ATOM     21  C   UNL     1      -3.724   1.565   5.791  0.00  0.00    +0.106 C 
BRANCH  21  22
ATOM     22  N   UNL     1      -4.493   2.378   6.736  0.00  0.00    -0.330 N 
ATOM     23  C   UNL     1      -4.150   3.789   6.959  0.00  0.00    +0.105 C 
ATOM     24  C   UNL     1      -4.180   4.046   8.471  0.00  0.00    +0.024 C 
ATOM     25  C   UNL     1      -5.603   3.823   8.982  0.00  0.00    +0.038 C 
ATOM     26  C   UNL     1      -6.123   2.486   8.525  0.00  0.00    -0.026 A 
ATOM     27  C   UNL     1      -5.571   1.825   7.437  0.00  0.00    +0.033 A 
ATOM     28  C   UNL     1      -6.081   0.596   7.034  0.00  0.00    +0.023 A 
ATOM     29  C   UNL     1      -7.142   0.032   7.715  0.00  0.00    +0.002 A 
ATOM     30  C   UNL     1      -7.695   0.691   8.797  0.00  0.00    +0.000 A 
ATOM     31  C   UNL     1      -7.182   1.910   9.207  0.00  0.00    +0.005 A 
ENDBRANCH  21  22
ENDBRANCH  20  21
ENDBRANCH  19  20
ENDBRANCH   3  19
TORSDOF 8
