REMARK  Name = ZINC03011275
REMARK  12 active torsions:
REMARK  status: ('A' for Active; 'I' for Inactive)
REMARK    1  A    between atoms: C_1  and  C_2
REMARK    2  A    between atoms: C_2  and  C_3
REMARK    3  A    between atoms: C_4  and  C_38
REMARK    4  A    between atoms: C_6  and  N_10
REMARK    5  A    between atoms: C_7  and  C_8
REMARK    6  A    between atoms: C_11  and  C_13
REMARK    7  A    between atoms: C_18  and  C_34
REMARK    8  A    between atoms: C_21  and  C_24
REMARK    9  A    between atoms: C_27  and  O_32
REMARK   10  A    between atoms: C_28  and  O_30
REMARK   11  A    between atoms: O_30  and  C_31
REMARK   12  A    between atoms: O_32  and  C_33
REMARK                            x       y       z     vdW  Elec       q    Type
REMARK                         _______ _______ _______ _____ _____    ______ ____
ROOT
ATOM      1  C   UNL     1       0.893  -2.353   7.069  0.00  0.00    +0.149 A 
ATOM      2  C   UNL     1       1.731  -2.808   8.112  0.00  0.00    +0.078 A 
ATOM      3  C   UNL     1       0.955  -3.021   9.193  0.00  0.00    +0.119 A 
ATOM      4  N   UNL     1      -0.334  -2.717   8.859  0.00  0.00    -0.238 N 
ATOM      5  N   UNL     1      -0.344  -2.297   7.529  0.00  0.00    -0.164 NA
ATOM      6  C   UNL     1      -1.464  -2.832   9.786  0.00  0.00    +0.215 C 
ATOM      7  C   UNL     1      -1.067  -3.761  10.938  0.00  0.00    +0.063 C 
ATOM      8  C   UNL     1       0.284  -3.327  11.518  0.00  0.00    +0.104 C 
ATOM      9  N   UNL     1       1.312  -3.469  10.468  0.00  0.00    -0.322 N 
ATOM     10  H   UNL     1       2.185  -3.850  10.653  0.00  0.00    +0.148 HD
ENDROOT
BRANCH   8  11
ATOM     11  C   UNL     1       0.633  -4.199  12.696  0.00  0.00    -0.024 A 
ATOM     12  C   UNL     1       1.173  -5.455  12.488  0.00  0.00    +0.009 A 
ATOM     13  C   UNL     1       1.495  -6.259  13.566  0.00  0.00    +0.050 A 
ATOM     14  C   UNL     1       1.278  -5.806  14.857  0.00  0.00    +0.162 A 
ATOM     15  C   UNL     1       0.736  -4.542  15.066  0.00  0.00    +0.162 A 
ATOM     16  C   UNL     1       0.419  -3.740  13.982  0.00  0.00    +0.054 A 
BRANCH  15  17
ATOM     17  O   UNL     1       0.521  -4.094  16.332  0.00  0.00    -0.491 OA
ATOM     18  C   UNL     1      -0.039  -2.786  16.471  0.00  0.00    +0.277 C 
ENDBRANCH  15  17
BRANCH  14  19
ATOM     19  O   UNL     1       1.594  -6.596  15.918  0.00  0.00    -0.491 OA
ATOM     20  C   UNL     1       2.147  -7.882  15.628  0.00  0.00    +0.277 C 
ENDBRANCH  14  19
ENDBRANCH   8  11
BRANCH   1  22
ATOM     21  N   UNL     1       0.423  -1.569   4.799  0.00  0.00    -0.274 N 
ATOM     22  C   UNL     1       1.326  -1.997   5.703  0.00  0.00    +0.269 C 
ATOM     23  O   UNL     1       2.498  -2.090   5.393  0.00  0.00    -0.268 OA
ATOM     24  H   UNL     1      -0.513  -1.495   5.046  0.00  0.00    +0.156 HD
BRANCH  21  28
ATOM     25  C   UNL     1       0.731  -0.503   1.223  0.00  0.00    -0.018 A 
ATOM     26  C   UNL     1       2.060  -0.719   1.224  0.00  0.00    -0.007 A 
ATOM     27  S   UNL     1       2.381  -1.287   2.880  0.00  0.00    -0.077 S 
ATOM     28  C   UNL     1       0.830  -1.234   3.516  0.00  0.00    +0.090 A 
ATOM     29  C   UNL     1       0.048  -0.775   2.467  0.00  0.00    +0.084 A 
ATOM     30  C   UNL     1       3.040  -0.525   0.096  0.00  0.00    +0.052 C 
BRANCH  25  32
ATOM     31  C   UNL     1      -0.019   1.526   0.010  0.00  0.00    +0.009 C 
ATOM     32  C   UNL     1       0.002  -0.004   0.002  0.00  0.00    +0.034 C 
ENDBRANCH  25  32
BRANCH  29  33
ATOM     33  C   UNL     1      -1.364  -0.583   2.607  0.00  0.00    +0.102 C 
ATOM     34  N   UNL     1      -2.484  -0.431   2.719  0.00  0.00    -0.191 NA
ENDBRANCH  29  33
ENDBRANCH  21  28
ENDBRANCH   1  22
BRANCH   6  35
ATOM     35  C   UNL     1      -2.674  -3.411   9.050  0.00  0.00    +0.412 C 
ATOM     36  F   UNL     1      -2.352  -4.677   8.549  0.00  0.00    -0.168 F 
ATOM     37  F   UNL     1      -3.750  -3.520   9.937  0.00  0.00    -0.168 F 
ATOM     38  F   UNL     1      -3.025  -2.566   7.992  0.00  0.00    -0.168 F 
ENDBRANCH   6  35
TORSDOF 8
