REMARK  Name = ZINC23214850
REMARK  6 active torsions:
REMARK  status: ('A' for Active; 'I' for Inactive)
REMARK    1  A    between atoms: C_3  and  S_8
REMARK    2  A    between atoms: S_8  and  C_9
REMARK    3  A    between atoms: C_11  and  N_16
REMARK    4  A    between atoms: N_16  and  C_17
REMARK    5  A    between atoms: C_17  and  C_18
REMARK    6  A    between atoms: C_18  and  C_19
REMARK                            x       y       z     vdW  Elec       q    Type
REMARK                         _______ _______ _______ _____ _____    ______ ____
ROOT
ATOM      1  C   UNL     1       0.740  -4.939   4.987  0.00  0.00    +0.108 A 
ATOM      2  C   UNL     1       0.826  -4.198   3.811  0.00  0.00    +0.078 A 
ATOM      3  C   UNL     1       0.934  -4.881   2.604  0.00  0.00    +0.125 A 
ATOM      4  N   UNL     1       0.963  -6.212   2.612  0.00  0.00    -0.200 NA
ATOM      5  C   UNL     1       0.885  -6.885   3.751  0.00  0.00    +0.215 A 
ATOM      6  N   UNL     1       0.775  -6.269   4.918  0.00  0.00    -0.208 NA
ATOM      7  N   UNL     1       0.918  -8.268   3.719  0.00  0.00    -0.327 N 
ATOM      8  H   UNL     1       0.854  -8.841   4.656  0.00  0.00    +0.145 HD
ATOM      9  H   UNL     1       1.008  -8.794   2.758  0.00  0.00    +0.145 HD
ENDROOT
BRANCH   3  10
ATOM     10  N   UNL     1       1.016  -4.184   1.408  0.00  0.00    -0.329 N 
ATOM     11  H   UNL     1       1.105  -4.732   0.458  0.00  0.00    +0.147 HD
BRANCH  10  12
ATOM     12  C   UNL     1       0.983  -2.720   1.409  0.00  0.00    +0.109 C 
BRANCH  12  13
ATOM     13  C   UNL     1       1.089  -2.206  -0.028  0.00  0.00    +0.074 C 
BRANCH  13  14
ATOM     14  C   UNL     1       1.056  -0.699  -0.027  0.00  0.00    +0.050 A 
ATOM     15  C   UNL     1       2.219   0.009  -0.033  0.00  0.00    +0.093 A 
ATOM     16  C   UNL     1       2.152   1.417  -0.032  0.00  0.00    +0.252 A 
ATOM     17  O   UNL     1       3.170   2.090  -0.039  0.00  0.00    -0.268 OA
ATOM     18  N   UNL     1       0.937   2.006  -0.025  0.00  0.00    -0.313 N 
ATOM     19  H   UNL     1       0.857   3.103  -0.024  0.00  0.00    +0.170 HD
ATOM     20  C   UNL     1      -0.177   1.248  -0.018  0.00  0.00    +0.199 A 
ATOM     21  N   UNL     1      -0.115  -0.057  -0.019  0.00  0.00    -0.242 NA
ENDBRANCH  13  14
ENDBRANCH  12  13
ENDBRANCH  10  12
ENDBRANCH   3  10
BRANCH   1  22
ATOM     22  S   UNL     1       0.595  -4.129   6.545  0.00  0.00    -0.070 S 
BRANCH  22  25
ATOM     23  C   UNL     1       1.227  -7.210   9.051  0.00  0.00    +0.039 A 
ATOM     24  C   UNL     1       1.426  -6.118   8.230  0.00  0.00    +0.018 A 
ATOM     25  C   UNL     1       0.344  -5.523   7.592  0.00  0.00    +0.014 A 
ATOM     26  C   UNL     1      -0.936  -6.026   7.787  0.00  0.00    +0.018 A 
ATOM     27  C   UNL     1      -1.129  -7.122   8.604  0.00  0.00    +0.039 A 
ATOM     28  C   UNL     1      -0.050  -7.713   9.239  0.00  0.00    +0.123 A 
ATOM     29  F   UNL     1      -0.242  -8.782  10.042  0.00  0.00    -0.205 F 
ENDBRANCH  22  25
ENDBRANCH   1  22
TORSDOF 6
