REMARK  Name = ZINC64623112
REMARK  7 active torsions:
REMARK  status: ('A' for Active; 'I' for Inactive)
REMARK    1  A    between atoms: C_1  and  O_2
REMARK    2  A    between atoms: O_2  and  C_3
REMARK    3  A    between atoms: C_6  and  C_9
REMARK    4  A    between atoms: N_27  and  C_28
REMARK    5  A    between atoms: C_33  and  C_34
REMARK    6  A    between atoms: C_34  and  O_36
REMARK    7  A    between atoms: O_36  and  C_37
REMARK                            x       y       z     vdW  Elec       q    Type
REMARK                         _______ _______ _______ _____ _____    ______ ____
ROOT
ATOM      1  C   UNL     1       2.505  -2.520  -4.392  0.00  0.00    +0.134 C 
ATOM      2  C   UNL     1       1.416  -3.097  -5.304  0.00  0.00    +0.131 C 
ATOM      3  C   UNL     1       2.119  -4.023  -6.288  0.00  0.00    -0.035 C 
ATOM      4  C   UNL     1       1.796  -3.593  -7.503  0.00  0.00    +0.001 A 
ATOM      5  C   UNL     1       2.110  -4.116  -8.842  0.00  0.00    +0.030 A 
ATOM      6  C   UNL     1       1.617  -3.408  -9.893  0.00  0.00    +0.042 A 
ATOM      7  C   UNL     1       0.853  -2.245  -9.746  0.00  0.00    +0.022 A 
ATOM      8  C   UNL     1       0.513  -1.696  -8.553  0.00  0.00    +0.027 A 
ATOM      9  C   UNL     1       0.970  -2.354  -7.374  0.00  0.00    +0.043 A 
ATOM     10  N   UNL     1       0.767  -2.057  -6.103  0.00  0.00    -0.375 N 
ATOM     11 CL   UNL     1       1.955  -3.974 -11.499  0.00  0.00    -0.084 Cl
ATOM     12  C   UNL     1       3.045  -5.128  -5.843  0.00  0.00    +0.052 C 
ATOM     13  C   UNL     1       4.051  -4.495  -4.864  0.00  0.00    +0.114 C 
ATOM     14  N   UNL     1       3.334  -3.638  -3.915  0.00  0.00    -0.276 N 
ATOM     15  C   UNL     1       3.435  -3.876  -2.592  0.00  0.00    +0.307 C 
ATOM     16  O   UNL     1       2.759  -3.240  -1.806  0.00  0.00    -0.252 OA
ATOM     17  N   UNL     1       4.285  -4.820  -2.140  0.00  0.00    -0.269 N 
ATOM     18  H   UNL     1       4.885  -5.267  -2.757  0.00  0.00    +0.156 HD
ATOM     19  H   UNL     1       0.284  -1.291  -5.753  0.00  0.00    +0.160 HD
ENDROOT
BRANCH   1  23
ATOM     20  C   UNL     1       0.703  -0.532  -1.066  0.00  0.00    +0.120 A 
ATOM     21  C   UNL     1       0.010  -1.529  -1.738  0.00  0.00    +0.046 A 
ATOM     22  C   UNL     1       0.595  -2.170  -2.813  0.00  0.00    +0.009 A 
ATOM     23  C   UNL     1       1.869  -1.819  -3.219  0.00  0.00    -0.024 A 
ATOM     24  C   UNL     1       2.562  -0.827  -2.551  0.00  0.00    +0.009 A 
ATOM     25  C   UNL     1       1.979  -0.178  -1.479  0.00  0.00    +0.046 A 
BRANCH  20  27
ATOM     26  C   UNL     1      -1.187  -0.317   0.361  0.00  0.00    +0.277 C 
ATOM     27  O   UNL     1       0.129   0.100  -0.008  0.00  0.00    -0.495 OA
ENDBRANCH  20  27
ENDBRANCH   1  23
BRANCH  17  28
ATOM     28  C   UNL     1       4.301  -5.152  -0.788  0.00  0.00    +0.049 A 
ATOM     29  C   UNL     1       3.172  -4.950  -0.006  0.00  0.00    +0.024 A 
ATOM     30  C   UNL     1       3.190  -5.281   1.334  0.00  0.00    +0.002 A 
ATOM     31  C   UNL     1       4.333  -5.814   1.909  0.00  0.00    +0.001 A 
ATOM     32  C   UNL     1       5.463  -6.021   1.149  0.00  0.00    +0.017 A 
ATOM     33  C   UNL     1       5.458  -5.698  -0.210  0.00  0.00    +0.080 A 
BRANCH  33  34
ATOM     34  C   UNL     1       6.661  -5.922  -1.030  0.00  0.00    +0.341 C 
ATOM     35  O   UNL     1       6.688  -5.547  -2.186  0.00  0.00    -0.245 OA
BRANCH  34  36
ATOM     36  O   UNL     1       7.733  -6.544  -0.499  0.00  0.00    -0.464 OA
ATOM     37  C   UNL     1       8.865  -6.728  -1.351  0.00  0.00    +0.280 C 
ENDBRANCH  34  36
ENDBRANCH  33  34
ENDBRANCH  17  28
TORSDOF 5
