REMARK  Name = ZINC21595801
REMARK  9 active torsions:
REMARK  status: ('A' for Active; 'I' for Inactive)
REMARK    1  A    between atoms: C_1  and  C_2
REMARK    2  A    between atoms: C_2  and  C_3
REMARK    3  A    between atoms: C_2  and  C_4
REMARK    4  A    between atoms: C_2  and  C_5
REMARK    5  A    between atoms: C_12  and  N_17
REMARK    6  A    between atoms: C_13  and  C_14
REMARK    7  A    between atoms: N_17  and  C_18
REMARK    8  A    between atoms: C_18  and  N_20
REMARK    9  A    between atoms: C_21  and  C_23
REMARK                            x       y       z     vdW  Elec       q    Type
REMARK                         _______ _______ _______ _____ _____    ______ ____
ROOT
ATOM      1  C   UNL     1       5.444   4.640  -0.404  0.00  0.00    -0.000 C 
ATOM      2  C   UNL     1       4.549   5.546   0.446  0.00  0.00    +0.009 C 
ATOM      3  C   UNL     1       3.092   5.401   0.002  0.00  0.00    +0.037 C 
ATOM      4  C   UNL     1       2.725   3.922  -0.003  0.00  0.00    -0.023 A 
ATOM      5  C   UNL     1       3.682   2.969  -0.017  0.00  0.00    -0.004 A 
ATOM      6  S   UNL     1       2.794   1.437  -0.009  0.00  0.00    -0.077 S 
ATOM      7  C   UNL     1       1.174   2.053   0.002  0.00  0.00    +0.084 A 
ATOM      8  C   UNL     1       1.359   3.428   0.007  0.00  0.00    +0.068 A 
ATOM      9  C   UNL     1       5.165   3.177  -0.031  0.00  0.00    +0.046 C 
ENDROOT
BRANCH   8  10
ATOM     10  C   UNL     1       0.218   4.348   0.023  0.00  0.00    +0.244 C 
ATOM     11  O   UNL     1      -0.246   4.725   1.083  0.00  0.00    -0.270 OA
ATOM     12  N   UNL     1      -0.318   4.777  -1.137  0.00  0.00    -0.325 N 
ATOM     13  H   UNL     1      -1.174   5.468  -1.126  0.00  0.00    +0.145 HD
ATOM     14  H   UNL     1       0.101   4.437  -2.096  0.00  0.00    +0.145 HD
ENDBRANCH   8  10
BRANCH   1  16
ATOM     15  C   UNL     1       7.218   4.739   1.352  0.00  0.00    +0.011 C 
ATOM     16  C   UNL     1       6.913   4.968  -0.130  0.00  0.00    -0.035 C 
ATOM     17  C   UNL     1       7.806   4.062  -0.980  0.00  0.00    +0.011 C 
ATOM     18  C   UNL     1       7.185   6.431  -0.486  0.00  0.00    +0.011 C 
ENDBRANCH   1  16
BRANCH   7  19
ATOM     19  N   UNL     1      -0.016   1.344   0.009  0.00  0.00    -0.291 N 
ATOM     20  H   UNL     1      -0.976   1.881   0.021  0.00  0.00    +0.154 HD
BRANCH  19  21
ATOM     21  C   UNL     1       0.002  -0.004   0.002  0.00  0.00    +0.141 C 
ATOM     22  S   UNL     1       1.496  -0.840  -0.017  0.00  0.00    -0.018 S 
BRANCH  21  23
ATOM     23  N   UNL     1      -1.156  -0.694   0.009  0.00  0.00    -0.264 N 
ATOM     24  C   UNL     1      -1.137  -2.041   0.002  0.00  0.00    +0.250 C 
ATOM     25  O   UNL     1      -0.077  -2.635  -0.011  0.00  0.00    -0.270 OA
ATOM     26  H   UNL     1      -2.116  -0.157   0.021  0.00  0.00    +0.157 HD
BRANCH  24  27
ATOM     27  C   UNL     1      -2.405  -2.797   0.010  0.00  0.00    +0.039 A 
ATOM     28  C   UNL     1      -3.628  -2.098   0.031  0.00  0.00    +0.015 A 
ATOM     29  C   UNL     1      -4.811  -2.750   0.033  0.00  0.00    +0.031 A 
ATOM     30  C   UNL     1      -4.848  -4.171   0.026  0.00  0.00    +0.100 A 
ATOM     31  C   UNL     1      -3.587  -4.907   0.010  0.00  0.00    +0.101 A 
ATOM     32  C   UNL     1      -2.374  -4.176   0.002  0.00  0.00    +0.043 A 
ATOM     33  N   UNL     1      -3.778  -6.226   0.004  0.00  0.00    -0.191 NA
ATOM     34  S   UNL     1      -5.329  -6.443   0.018  0.00  0.00    +0.116 S 
ATOM     35  N   UNL     1      -5.901  -4.985   0.031  0.00  0.00    -0.191 NA
ENDBRANCH  24  27
ENDBRANCH  21  23
ENDBRANCH  19  21
ENDBRANCH   7  19
TORSDOF 6
