REMARK  Name = ZINC13065048
REMARK  11 active torsions:
REMARK  status: ('A' for Active; 'I' for Inactive)
REMARK    1  A    between atoms: C_1  and  C_2
REMARK    2  A    between atoms: C_2  and  C_3
REMARK    3  A    between atoms: C_3  and  C_5
REMARK    4  A    between atoms: C_3  and  N_69
REMARK    5  A    between atoms: N_9  and  C_10
REMARK    6  A    between atoms: C_16  and  C_17
REMARK    7  A    between atoms: C_16  and  N_69
REMARK    8  A    between atoms: C_22  and  C_23
REMARK    9  A    between atoms: C_22  and  N_69
REMARK   10  A    between atoms: C_28  and  C_36
REMARK   11  A    between atoms: C_29  and  C_35
REMARK                            x       y       z     vdW  Elec       q    Type
REMARK                         _______ _______ _______ _____ _____    ______ ____
ROOT
ATOM      1  N   UNL     1      -1.895   2.270  -1.514  0.00  0.00    +0.392 N 
ATOM      2  H   UNL     1      -1.211   2.581  -2.212  0.00  0.00    -0.080 HD
ENDROOT
BRANCH   1   3
ATOM      3  C   UNL     1      -3.042   3.203  -1.516  0.00  0.00    +0.003 C 
BRANCH   3   4
ATOM      4  C   UNL     1      -3.947   2.930  -0.342  0.00  0.00    +0.138 A 
ATOM      5  N   UNL     1      -3.589   2.828   0.915  0.00  0.00    -0.115 NA
ATOM      6  N   UNL     1      -4.647   2.592   1.611  0.00  0.00    -0.023 NA
ATOM      7  N   UNL     1      -5.670   2.542   0.832  0.00  0.00    -0.044 NA
ATOM      8  N   UNL     1      -5.280   2.751  -0.380  0.00  0.00    -0.228 N 
BRANCH   8   9
ATOM      9  C   UNL     1      -6.129   2.783  -1.574  0.00  0.00    +0.111 C 
ATOM     10  C   UNL     1      -7.174   3.890  -1.427  0.00  0.00    +0.027 C 
ATOM     11  C   UNL     1      -8.060   3.924  -2.674  0.00  0.00    +0.002 C 
ATOM     12  C   UNL     1      -8.766   2.575  -2.834  0.00  0.00    +0.000 C 
ATOM     13  C   UNL     1      -7.721   1.468  -2.981  0.00  0.00    +0.002 C 
ATOM     14  C   UNL     1      -6.834   1.434  -1.734  0.00  0.00    +0.027 C 
ENDBRANCH   8   9
ENDBRANCH   3   4
BRANCH   3  16
ATOM     15  C   UNL     1      -1.703   4.957  -2.688  0.00  0.00    +0.002 C 
ATOM     16  C   UNL     1      -2.512   4.635  -1.430  0.00  0.00    -0.011 C 
ENDBRANCH   3  16
ENDBRANCH   1   3
BRANCH   1  17
ATOM     17  C   UNL     1      -2.352   0.908  -1.862  0.00  0.00    -0.034 C 
BRANCH  17  18
ATOM     18  C   UNL     1      -2.757   0.888  -3.313  0.00  0.00    -0.027 A 
ATOM     19  C   UNL     1      -1.980   0.737  -4.414  0.00  0.00    +0.009 A 
ATOM     20  C   UNL     1      -2.576   0.750  -5.662  0.00  0.00    +0.008 A 
ATOM     21  C   UNL     1      -3.919   0.914  -5.747  0.00  0.00    +0.045 A 
ATOM     22  S   UNL     1      -4.384   1.050  -4.029  0.00  0.00    -0.103 S 
ENDBRANCH  17  18
ENDBRANCH   1  17
BRANCH   1  23
ATOM     23  C   UNL     1      -1.253   2.262  -0.182  0.00  0.00    -0.036 C 
BRANCH  23  24
ATOM     24  C   UNL     1       0.146   1.721  -0.324  0.00  0.00    +0.001 A 
ATOM     25  C   UNL     1       1.186   2.573  -0.495  0.00  0.00    +0.017 A 
ATOM     26  C   UNL     1       2.532   2.015  -0.637  0.00  0.00    -0.001 A 
ATOM     27  C   UNL     1       3.644   2.844  -0.814  0.00  0.00    +0.010 A 
ATOM     28  C   UNL     1       4.887   2.292  -0.943  0.00  0.00    +0.004 A 
ATOM     29  C   UNL     1       5.056   0.914  -0.899  0.00  0.00    -0.046 A 
ATOM     30  C   UNL     1       3.975   0.079  -0.724  0.00  0.00    -0.024 A 
ATOM     31  C   UNL     1       2.700   0.618  -0.591  0.00  0.00    +0.052 A 
ATOM     32  N   UNL     1       1.600  -0.195  -0.414  0.00  0.00    -0.322 N 
ATOM     33  H   UNL     1       1.717  -1.157  -0.382  0.00  0.00    +0.169 HD
ATOM     34  C   UNL     1       0.368   0.327  -0.285  0.00  0.00    +0.251 A 
ATOM     35  O   UNL     1      -0.582  -0.421  -0.130  0.00  0.00    -0.268 OA
ATOM     36  C   UNL     1       4.173  -1.415  -0.676  0.00  0.00    +0.046 C 
ATOM     37  C   UNL     1       6.437   0.328  -1.043  0.00  0.00    +0.044 C 
ENDBRANCH  23  24
ENDBRANCH   1  23
TORSDOF 8
