REMARK  Name = ZINC47045282
REMARK  7 active torsions:
REMARK  status: ('A' for Active; 'I' for Inactive)
REMARK    1  A    between atoms: C_1  and  C_2
REMARK    2  A    between atoms: C_5  and  C_7
REMARK    3  A    between atoms: C_7  and  N_8
REMARK    4  A    between atoms: N_8  and  C_9
REMARK    5  A    between atoms: N_8  and  C_16
REMARK    6  A    between atoms: C_9  and  C_10
REMARK    7  A    between atoms: C_16  and  C_17
REMARK                            x       y       z     vdW  Elec       q    Type
REMARK                         _______ _______ _______ _____ _____    ______ ____
ROOT
ATOM      1  N   UNL     1       1.765  -0.637   3.405  0.00  0.00    +0.391 N 
ATOM      2  H   UNL     1       0.977  -1.212   3.663  0.00  0.00    -0.080 HD
ENDROOT
BRANCH   1   3
ATOM      3  C   UNL     1       1.386   0.241   2.289  0.00  0.00    -0.074 C 
BRANCH   3   7
ATOM      4  C   UNL     1       0.317   1.664  -0.054  0.00  0.00    +0.008 C 
ATOM      5  C   UNL     1       0.280   0.134  -0.079  0.00  0.00    -0.013 C 
ATOM      6  C   UNL     1       1.617  -0.603  -0.177  0.00  0.00    +0.005 C 
ATOM      7  C   UNL     1       0.836  -0.606   1.140  0.00  0.00    -0.024 C 
ENDBRANCH   3   7
ENDBRANCH   1   3
BRANCH   1   8
ATOM      8  C   UNL     1       2.885  -1.494   2.995  0.00  0.00    +0.020 C 
BRANCH   8   9
ATOM      9  C   UNL     1       3.149  -2.522   4.066  0.00  0.00    +0.204 C 
ATOM     10  O   UNL     1       2.509  -2.502   5.096  0.00  0.00    -0.277 OA
ATOM     11  N   UNL     1       4.095  -3.462   3.878  0.00  0.00    -0.242 N 
ATOM     12  C   UNL     1       4.331  -4.381   4.836  0.00  0.00    +0.303 C 
ATOM     13  O   UNL     1       3.690  -4.362   5.868  0.00  0.00    -0.253 OA
ATOM     14  N   UNL     1       5.278  -5.322   4.648  0.00  0.00    -0.313 N 
ATOM     15  H   UNL     1       4.607  -3.478   3.054  0.00  0.00    +0.159 HD
ATOM     16  H   UNL     1       5.790  -5.338   3.824  0.00  0.00    +0.146 HD
ATOM     17  H   UNL     1       5.447  -5.984   5.337  0.00  0.00    +0.146 HD
ENDBRANCH   8   9
ENDBRANCH   1   8
BRANCH   1  18
ATOM     18  C   UNL     1       2.170   0.182   4.556  0.00  0.00    +0.020 C 
BRANCH  18  19
ATOM     19  C   UNL     1       0.986   0.971   5.053  0.00  0.00    +0.204 C 
ATOM     20  O   UNL     1      -0.089   0.862   4.503  0.00  0.00    -0.277 OA
ATOM     21  N   UNL     1       1.123   1.797   6.109  0.00  0.00    -0.242 N 
ATOM     22  C   UNL     1       0.064   2.503   6.553  0.00  0.00    +0.303 C 
ATOM     23  O   UNL     1      -1.014   2.394   6.002  0.00  0.00    -0.253 OA
ATOM     24  N   UNL     1       0.201   3.329   7.609  0.00  0.00    -0.313 N 
ATOM     25  H   UNL     1       1.983   1.884   6.549  0.00  0.00    +0.159 HD
ATOM     26  H   UNL     1       1.061   3.417   8.049  0.00  0.00    +0.146 HD
ATOM     27  H   UNL     1      -0.561   3.837   7.929  0.00  0.00    +0.146 HD
ENDBRANCH  18  19
ENDBRANCH   1  18
TORSDOF 6
