REMARK  Name = ZINC08995117
REMARK  5 active torsions:
REMARK  status: ('A' for Active; 'I' for Inactive)
REMARK    1  A    between atoms: C_1  and  C_2
REMARK    2  A    between atoms: C_2  and  C_4
REMARK    3  A    between atoms: C_2  and  O_33
REMARK    4  A    between atoms: N_12  and  C_15
REMARK    5  A    between atoms: C_15  and  C_16
REMARK                            x       y       z     vdW  Elec       q    Type
REMARK                         _______ _______ _______ _____ _____    ______ ____
ROOT
ATOM      1  C   UNL     1       0.396   2.574   1.918  0.00  0.00    -0.028 C 
ATOM      2  C   UNL     1      -0.660   1.742   1.161  0.00  0.00    +0.075 C 
ATOM      3  C   UNL     1       0.089   1.178  -0.079  0.00  0.00    +0.088 C 
ATOM      4  C   UNL     1      -0.607   1.831  -1.252  0.00  0.00    +0.225 C 
ATOM      5  O   UNL     1      -0.326   1.658  -2.418  0.00  0.00    -0.275 OA
ATOM      6  N   UNL     1      -1.591   2.630  -0.779  0.00  0.00    -0.239 N 
ATOM      7  C   UNL     1      -1.698   2.658   0.555  0.00  0.00    +0.224 C 
ATOM      8  O   UNL     1      -2.503   3.315   1.179  0.00  0.00    -0.275 OA
ATOM      9  C   UNL     1       1.514   1.732   0.048  0.00  0.00    +0.050 C 
ATOM     10  C   UNL     1       2.446   0.720   0.652  0.00  0.00    -0.027 A 
ATOM     11  C   UNL     1       2.461   0.043   1.851  0.00  0.00    +0.019 A 
ATOM     12  C   UNL     1       3.480  -0.852   2.128  0.00  0.00    +0.018 A 
ATOM     13  C   UNL     1       4.482  -1.063   1.197  0.00  0.00    +0.017 A 
ATOM     14  C   UNL     1       4.471  -0.386  -0.004  0.00  0.00    +0.024 A 
ATOM     15  C   UNL     1       3.449   0.516  -0.291  0.00  0.00    +0.036 A 
ATOM     16  N   UNL     1       3.220   1.308  -1.419  0.00  0.00    -0.286 N 
ATOM     17  C   UNL     1       2.103   2.051  -1.299  0.00  0.00    +0.211 C 
ATOM     18  O   UNL     1       1.658   2.828  -2.118  0.00  0.00    -0.277 OA
ATOM     19 BR   UNL     1       3.502  -1.784   3.773  0.00  0.00    -0.050 Br
ATOM     20  H   UNL     1       3.799   1.322  -2.197  0.00  0.00    +0.155 HD
ATOM     21  N   UNL     1       1.388   2.906   0.893  0.00  0.00    +0.396 N 
ATOM     22  H   UNL     1       2.290   3.128   1.330  0.00  0.00    -0.083 HD
ATOM     23  H   UNL     1       1.069   3.710   0.339  0.00  0.00    -0.083 HD
ENDROOT
BRANCH   1  25
ATOM     24  C   UNL     1      -1.171   3.443   3.659  0.00  0.00    +0.036 C 
ATOM     25  C   UNL     1      -0.239   3.833   2.510  0.00  0.00    +0.098 C 
BRANCH  25  26
ATOM     26  O   UNL     1       0.786   4.699   3.000  0.00  0.00    -0.394 OA
ATOM     27  H   UNL     1       0.455   5.520   3.390  0.00  0.00    +0.210 HD
ENDBRANCH  25  26
ENDBRANCH   1  25
BRANCH   6  28
ATOM     28  C   UNL     1      -2.464   3.410  -1.660  0.00  0.00    +0.148 C 
BRANCH  28  29
ATOM     29  C   UNL     1      -1.835   4.782  -1.915  0.00  0.00    +0.136 C 
ATOM     30  C   UNL     1      -2.779   5.655  -2.772  0.00  0.00    +0.035 C 
ATOM     31  C   UNL     1      -1.825   6.440  -3.699  0.00  0.00    +0.031 C 
ATOM     32  C   UNL     1      -0.418   5.948  -3.293  0.00  0.00    +0.160 C 
ATOM     33  O   UNL     1      -0.635   4.646  -2.706  0.00  0.00    -0.375 OA
ENDBRANCH  28  29
ENDBRANCH   6  28
TORSDOF 4
