REMARK  Name = ZINC13640601
REMARK  12 active torsions:
REMARK  status: ('A' for Active; 'I' for Inactive)
REMARK    1  A    between atoms: C_1  and  O_2
REMARK    2  A    between atoms: O_2  and  C_3
REMARK    3  A    between atoms: C_6  and  N_9
REMARK    4  A    between atoms: N_9  and  S_10
REMARK    5  A    between atoms: S_10  and  C_13
REMARK    6  A    between atoms: C_26  and  C_29
REMARK    7  A    between atoms: C_31  and  O_39
REMARK    8  A    between atoms: C_32  and  O_37
REMARK    9  A    between atoms: C_33  and  O_35
REMARK   10  A    between atoms: O_35  and  C_36
REMARK   11  A    between atoms: O_37  and  C_38
REMARK   12  A    between atoms: O_39  and  C_40
REMARK                            x       y       z     vdW  Elec       q    Type
REMARK                         _______ _______ _______ _____ _____    ______ ____
ROOT
ATOM      1  C   UNL     1      -1.696   2.422   0.190  0.00  0.00    +0.109 A 
ATOM      2  C   UNL     1      -0.626   1.551   0.097  0.00  0.00    +0.030 A 
ATOM      3  C   UNL     1       0.657   2.041  -0.030  0.00  0.00    +0.025 A 
ATOM      4  C   UNL     1       0.885   3.411  -0.066  0.00  0.00    +0.031 A 
ATOM      5  C   UNL     1      -0.203   4.287   0.026  0.00  0.00    -0.018 A 
ATOM      6  C   UNL     1      -1.480   3.788   0.161  0.00  0.00    +0.034 A 
ATOM      7  C   UNL     1       0.081   5.737  -0.038  0.00  0.00    +0.049 C 
ATOM      8  C   UNL     1      -0.816   6.740   0.590  0.00  0.00    -0.023 C 
ATOM      9  C   UNL     1      -0.084   7.775   0.985  0.00  0.00    -0.030 C 
ATOM     10  C   UNL     1       1.392   7.521   0.673  0.00  0.00    +0.033 C 
ATOM     11  C   UNL     1       1.447   5.987   0.668  0.00  0.00    +0.029 C 
ATOM     12  C   UNL     1       2.489   5.334  -0.222  0.00  0.00    +0.105 C 
ATOM     13  N   UNL     1       2.198   3.884  -0.177  0.00  0.00    -0.336 N 
ATOM     14  H   UNL     1       2.931   3.250  -0.225  0.00  0.00    +0.147 HD
ENDROOT
BRANCH  12  15
ATOM     15  C   UNL     1       2.362   5.847  -1.633  0.00  0.00    -0.020 A 
ATOM     16  C   UNL     1       1.542   5.192  -2.534  0.00  0.00    +0.055 A 
ATOM     17  C   UNL     1       1.419   5.664  -3.832  0.00  0.00    +0.165 A 
ATOM     18  C   UNL     1       2.130   6.790  -4.230  0.00  0.00    +0.204 A 
ATOM     19  C   UNL     1       2.958   7.441  -3.324  0.00  0.00    +0.165 A 
ATOM     20  C   UNL     1       3.071   6.966  -2.026  0.00  0.00    +0.055 A 
BRANCH  19  21
ATOM     21  O   UNL     1       3.656   8.543  -3.709  0.00  0.00    -0.491 OA
ATOM     22  C   UNL     1       4.487   9.161  -2.725  0.00  0.00    +0.277 C 
ENDBRANCH  19  21
BRANCH  18  23
ATOM     23  O   UNL     1       2.015   7.253  -5.505  0.00  0.00    -0.488 OA
ATOM     24  C   UNL     1       2.933   6.734  -6.469  0.00  0.00    +0.277 C 
ENDBRANCH  18  23
BRANCH  17  25
ATOM     25  O   UNL     1       0.608   5.023  -4.715  0.00  0.00    -0.491 OA
ATOM     26  C   UNL     1      -0.092   3.873  -4.236  0.00  0.00    +0.277 C 
ENDBRANCH  17  25
ENDBRANCH  12  15
BRANCH   1  27
ATOM     27  S   UNL     1      -3.334   1.793   0.353  0.00  0.00    +0.072 S 
ATOM     28  O   UNL     1      -4.199   2.752  -0.240  0.00  0.00    -0.150 OA
ATOM     29  O   UNL     1      -3.292   0.438  -0.072  0.00  0.00    -0.150 OA
BRANCH  27  30
ATOM     30  N   UNL     1      -3.691   1.770   1.970  0.00  0.00    -0.216 N 
ATOM     31  H   UNL     1      -4.426   2.303   2.312  0.00  0.00    +0.174 HD
BRANCH  30  35
ATOM     32  C   UNL     1      -1.431  -0.575   4.572  0.00  0.00    +0.120 A 
ATOM     33  C   UNL     1      -1.731   0.738   4.905  0.00  0.00    +0.047 A 
ATOM     34  C   UNL     1      -2.480   1.516   4.044  0.00  0.00    +0.028 A 
ATOM     35  C   UNL     1      -2.932   0.983   2.844  0.00  0.00    +0.048 A 
ATOM     36  C   UNL     1      -2.636  -0.333   2.513  0.00  0.00    +0.028 A 
ATOM     37  C   UNL     1      -1.882  -1.107   3.373  0.00  0.00    +0.047 A 
BRANCH  32  39
ATOM     38  C   UNL     1      -0.423  -2.683   5.014  0.00  0.00    +0.277 C 
ATOM     39  O   UNL     1      -0.694  -1.340   5.421  0.00  0.00    -0.495 OA
ENDBRANCH  32  39
ENDBRANCH  30  35
ENDBRANCH  27  30
ENDBRANCH   1  27
TORSDOF 8
