REMARK  Name = ZINC27202650
REMARK  11 active torsions:
REMARK  status: ('A' for Active; 'I' for Inactive)
REMARK    1  A    between atoms: C_1  and  C_2
REMARK    2  A    between atoms: C_2  and  C_3
REMARK    3  A    between atoms: C_3  and  C_4
REMARK    4  A    between atoms: C_4  and  C_6
REMARK    5  A    between atoms: C_4  and  N_7
REMARK    6  A    between atoms: C_8  and  C_10
REMARK    7  A    between atoms: C_10  and  C_12
REMARK    8  A    between atoms: C_10  and  N_13
REMARK    9  A    between atoms: N_16  and  C_19
REMARK   10  A    between atoms: C_19  and  C_20
REMARK   11  A    between atoms: N_22  and  C_23
REMARK                            x       y       z     vdW  Elec       q    Type
REMARK                         _______ _______ _______ _____ _____    ______ ____
ROOT
ATOM      1  N   UNL     1       5.857   0.226  -0.474  0.00  0.00    +0.389 N 
ATOM      2  C   UNL     1       5.961   1.009  -1.713  0.00  0.00    -0.062 C 
ATOM      3  C   UNL     1       4.735   1.916  -1.844  0.00  0.00    +0.066 C 
ATOM      4  N   UNL     1       3.518   1.093  -1.845  0.00  0.00    -0.298 NA
ATOM      5  C   UNL     1       3.414   0.310  -0.606  0.00  0.00    +0.066 C 
ATOM      6  C   UNL     1       4.640  -0.597  -0.475  0.00  0.00    -0.062 C 
ATOM      7  H   UNL     1       5.791   0.930   0.368  0.00  0.00    -0.081 HD
ENDROOT
BRANCH   1   8
ATOM      8  C   UNL     1       7.054  -0.603  -0.274  0.00  0.00    +0.016 C 
ATOM      9  C   UNL     1       6.853  -1.500   0.950  0.00  0.00    -0.004 C 
BRANCH   8  11
ATOM     10  N   UNL     1       9.485  -0.156  -0.364  0.00  0.00    -0.314 N 
ATOM     11  C   UNL     1       8.250   0.286  -0.054  0.00  0.00    +0.199 C 
ATOM     12  O   UNL     1       8.102   1.400   0.403  0.00  0.00    -0.278 OA
ATOM     13  H   UNL     1       9.619  -1.166  -0.778  0.00  0.00    +0.149 HD
BRANCH  10  14
ATOM     14  C   UNL     1      10.648   0.709  -0.150  0.00  0.00    +0.070 C 
ATOM     15  C   UNL     1      10.832   1.625  -1.361  0.00  0.00    +0.028 C 
BRANCH  14  16
ATOM     16  C   UNL     1      11.899  -0.154   0.030  0.00  0.00    +0.022 C 
BRANCH  16  18
ATOM     17  C   UNL     1      13.018  -1.843   1.492  0.00  0.00    +0.004 C 
ATOM     18  C   UNL     1      11.767  -0.981   1.312  0.00  0.00    -0.002 C 
ENDBRANCH  16  18
ENDBRANCH  14  16
ENDBRANCH  10  14
ENDBRANCH   8  11
ENDBRANCH   1   8
BRANCH   4  19
ATOM     19  C   UNL     1       2.322   1.922  -2.045  0.00  0.00    +0.180 C 
BRANCH  19  20
ATOM     20  C   UNL     1       1.129   1.033  -2.286  0.00  0.00    +0.231 C 
ATOM     21  O   UNL     1       1.262  -0.173  -2.289  0.00  0.00    -0.274 OA
ATOM     22  N   UNL     1      -0.085   1.577  -2.502  0.00  0.00    -0.283 N 
ATOM     23  H   UNL     1      -0.221   2.666  -2.423  0.00  0.00    +0.155 HD
BRANCH  22  24
ATOM     24  C   UNL     1      -1.172   0.758  -2.826  0.00  0.00    +0.052 A 
ATOM     25  C   UNL     1      -0.956  -0.505  -3.363  0.00  0.00    +0.025 A 
ATOM     26  C   UNL     1      -2.031  -1.313  -3.678  0.00  0.00    +0.002 A 
ATOM     27  C   UNL     1      -3.321  -0.863  -3.469  0.00  0.00    +0.002 A 
ATOM     28  C   UNL     1      -3.541   0.395  -2.940  0.00  0.00    +0.022 A 
ATOM     29  C   UNL     1      -2.470   1.208  -2.618  0.00  0.00    +0.062 A 
ATOM     30 CL   UNL     1      -2.746   2.788  -1.955  0.00  0.00    -0.082 Cl
ENDBRANCH  22  24
ENDBRANCH  19  20
ENDBRANCH   4  19
TORSDOF 8
