REMARK  Name = ZINC08996030
REMARK  7 active torsions:
REMARK  status: ('A' for Active; 'I' for Inactive)
REMARK    1  A    between atoms: C_1  and  C_2
REMARK    2  A    between atoms: C_2  and  C_3
REMARK    3  A    between atoms: C_2  and  C_4
REMARK    4  A    between atoms: C_2  and  N_5
REMARK    5  A    between atoms: C_25  and  C_27
REMARK    6  A    between atoms: C_27  and  C_29
REMARK    7  A    between atoms: C_27  and  O_36
REMARK                            x       y       z     vdW  Elec       q    Type
REMARK                         _______ _______ _______ _____ _____    ______ ____
ROOT
ATOM      1  N   UNL     1       0.203  -2.453   2.261  0.00  0.00    -0.236 N 
ATOM      2  C   UNL     1      -0.728  -2.975   1.454  0.00  0.00    +0.225 C 
ATOM      3  O   UNL     1      -0.977  -4.157   1.345  0.00  0.00    -0.275 OA
ATOM      4  C   UNL     1      -1.422  -1.863   0.701  0.00  0.00    +0.076 C 
ATOM      5  C   UNL     1      -0.717  -0.581   1.226  0.00  0.00    +0.088 C 
ATOM      6  C   UNL     1       0.296  -1.119   2.211  0.00  0.00    +0.225 C 
ATOM      7  O   UNL     1       1.072  -0.447   2.855  0.00  0.00    -0.275 OA
ATOM      8  C   UNL     1       0.002  -0.004   0.002  0.00  0.00    +0.050 C 
ATOM      9  C   UNL     1       1.458  -0.375  -0.011  0.00  0.00    -0.025 A 
ATOM     10  C   UNL     1       2.129  -1.578  -0.021  0.00  0.00    +0.043 A 
ATOM     11  C   UNL     1       3.515  -1.598  -0.036  0.00  0.00    +0.124 A 
ATOM     12  C   UNL     1       4.220  -0.406  -0.038  0.00  0.00    +0.040 A 
ATOM     13  C   UNL     1       3.550   0.799  -0.027  0.00  0.00    +0.026 A 
ATOM     14  C   UNL     1       2.157   0.828  -0.013  0.00  0.00    +0.036 A 
ATOM     15  N   UNL     1       1.266   1.905   0.000  0.00  0.00    -0.286 N 
ATOM     16  C   UNL     1      -0.018   1.500   0.010  0.00  0.00    +0.211 C 
ATOM     17  O   UNL     1      -1.001   2.211   0.019  0.00  0.00    -0.277 OA
ATOM     18  F   UNL     1       4.175  -2.776  -0.046  0.00  0.00    -0.205 F 
ATOM     19  C   UNL     1      -1.033  -1.943  -0.791  0.00  0.00    -0.024 C 
ATOM     20  H   UNL     1       1.542   2.835   0.002  0.00  0.00    +0.155 HD
ATOM     21  N   UNL     1      -0.696  -0.562  -1.143  0.00  0.00    +0.396 N 
ATOM     22  H   UNL     1      -0.089  -0.545  -1.972  0.00  0.00    -0.083 HD
ATOM     23  H   UNL     1      -1.550  -0.026  -1.334  0.00  0.00    -0.083 HD
ENDROOT
BRANCH   1  25
ATOM     24  C   UNL     1       0.690  -4.750   2.945  0.00  0.00    +0.031 C 
ATOM     25  C   UNL     1       1.051  -3.275   3.128  0.00  0.00    +0.036 C 
ATOM     26  C   UNL     1       2.520  -3.059   2.758  0.00  0.00    +0.031 C 
ATOM     27  C   UNL     1       0.829  -2.872   4.588  0.00  0.00    +0.031 C 
ENDBRANCH   1  25
BRANCH  19  28
ATOM     28  C   UNL     1      -2.209  -2.460  -1.621  0.00  0.00    +0.131 C 
BRANCH  28  29
ATOM     29  C   UNL     1      -1.834  -2.458  -3.081  0.00  0.00    -0.021 A 
ATOM     30  C   UNL     1      -1.148  -3.530  -3.619  0.00  0.00    +0.007 A 
ATOM     31  C   UNL     1      -0.808  -3.532  -4.959  0.00  0.00    +0.020 A 
ATOM     32  C   UNL     1      -1.145  -2.454  -5.759  0.00  0.00    +0.041 A 
ATOM     33  C   UNL     1      -1.827  -1.379  -5.218  0.00  0.00    +0.020 A 
ATOM     34  C   UNL     1      -2.171  -1.381  -3.879  0.00  0.00    +0.007 A 
ATOM     35 CL   UNL     1      -0.712  -2.451  -7.440  0.00  0.00    -0.084 Cl
ENDBRANCH  28  29
BRANCH  28  36
ATOM     36  O   UNL     1      -2.531  -3.792  -1.214  0.00  0.00    -0.389 OA
ATOM     37  H   UNL     1      -1.806  -4.422  -1.323  0.00  0.00    +0.210 HD
ENDBRANCH  28  36
ENDBRANCH  19  28
TORSDOF 4
