REMARK  Name = ZINC64683493
REMARK  7 active torsions:
REMARK  status: ('A' for Active; 'I' for Inactive)
REMARK    1  A    between atoms: C_6  and  N_11
REMARK    2  A    between atoms: C_12  and  C_14
REMARK    3  A    between atoms: C_14  and  N_15
REMARK    4  A    between atoms: N_18  and  CA_19
REMARK    5  A    between atoms: CA_19  and  CB_21
REMARK    6  A    between atoms: CA_19  and  C_31
REMARK    7  A    between atoms: CB_21  and  CG_22
REMARK                            x       y       z     vdW  Elec       q    Type
REMARK                         _______ _______ _______ _____ _____    ______ ____
ROOT
ATOM      1  N   UNK A   0       6.020  -6.175   0.226  0.00  0.00    -0.291 N 
ATOM      2  C   UNK A   0       7.061  -7.024   0.322  0.00  0.00    +0.301 C 
ATOM      3  O   UNK A   0       8.198  -6.593   0.332  0.00  0.00    -0.253 OA
ATOM      4  N   TRP A   1       6.843  -8.352   0.407  0.00  0.00    -0.286 N 
ATOM      5  H   UNK A   0       5.113  -6.519   0.217  0.00  0.00    +0.151 HD
ATOM      6  H   TRP A   1       5.936  -8.695   0.398  0.00  0.00    +0.151 HD
ENDROOT
BRANCH   1   7
ATOM      7  C   UNK A   0       6.257  -4.732   0.133  0.00  0.00    +0.202 C 
BRANCH   7   9
ATOM      8  N   UNK A   0       4.909  -2.667  -0.059  0.00  0.00    -0.284 N 
ATOM      9  C   UNK A   0       4.937  -4.011   0.036  0.00  0.00    +0.234 C 
ATOM     10  O   UNK A   0       3.901  -4.640   0.043  0.00  0.00    -0.274 OA
ATOM     11  H   UNK A   0       5.738  -2.168  -0.131  0.00  0.00    +0.155 HD
BRANCH   8  17
ATOM     12  C   UNK A   0      -0.093   1.216   0.544  0.00  0.00    +0.001 A 
ATOM     13  C   UNK A   0       1.013   1.803   1.156  0.00  0.00    +0.001 A 
ATOM     14  C   UNK A   0       2.221   1.176   1.170  0.00  0.00    +0.008 A 
ATOM     15  C   UNK A   0       2.358  -0.083   0.559  0.00  0.00    -0.016 A 
ATOM     16  C   UNK A   0       3.589  -0.759   0.555  0.00  0.00    +0.031 A 
ATOM     17  C   UNK A   0       3.685  -1.991  -0.053  0.00  0.00    +0.034 A 
ATOM     18  C   UNK A   0       2.569  -2.573  -0.666  0.00  0.00    +0.024 A 
ATOM     19  C   UNK A   0       1.367  -1.939  -0.676  0.00  0.00    +0.010 A 
ATOM     20  C   UNK A   0       1.234  -0.680  -0.063  0.00  0.00    -0.018 A 
ATOM     21  C   UNK A   0       0.003  -0.001  -0.058  0.00  0.00    +0.008 A 
ENDBRANCH   8  17
ENDBRANCH   7   9
ENDBRANCH   1   7
BRANCH   4  22
ATOM     22  CA  TRP A   1       7.975  -9.275   0.511  0.00  0.00    +0.191 C 
BRANCH  22  23
ATOM     23  C   TRP A   1       8.392  -9.398   1.954  0.00  0.00    +0.376 C 
ATOM     24  O   TRP A   1       7.693  -8.922   2.833  0.00  0.00    -0.244 OA
ATOM     25  OXT TRP A   1       9.428  -9.973   2.243  0.00  0.00    -0.244 OA
ENDBRANCH  22  23
BRANCH  22  26
ATOM     26  CB  TRP A   1       7.563 -10.650  -0.019  0.00  0.00    +0.067 C 
BRANCH  26  27
ATOM     27  CG  TRP A   1       7.264 -10.551  -1.493  0.00  0.00    -0.039 C 
ATOM     28  CD2 TRP A   1       8.111 -10.817  -2.514  0.00  0.00    -0.001 A 
ATOM     29  CE3 TRP A   1       9.509 -11.260  -2.556  0.00  0.00    +0.010 A 
ATOM     30  CZ3 TRP A   1      10.103 -11.445  -3.757  0.00  0.00    +0.001 A 
ATOM     31  CH2 TRP A   1       9.417 -11.224  -4.960  0.00  0.00    +0.002 A 
ATOM     32  CZ2 TRP A   1       8.131 -10.816  -5.002  0.00  0.00    +0.026 A 
ATOM     33  CE2 TRP A   1       7.409 -10.591  -3.797  0.00  0.00    +0.043 A 
ATOM     34  NE1 TRP A   1       6.177 -10.200  -3.579  0.00  0.00    -0.380 N 
ATOM     35  CD1 TRP A   1       5.955 -10.140  -2.130  0.00  0.00    +0.144 C 
ATOM     36  HE1 TRP A   1       5.520  -9.990  -4.261  0.00  0.00    +0.160 HD
ENDBRANCH  26  27
ENDBRANCH  22  26
ENDBRANCH   4  22
TORSDOF 7
