REMARK  Name = ZINC22057159
REMARK  11 active torsions:
REMARK  status: ('A' for Active; 'I' for Inactive)
REMARK    1  A    between atoms: C_3  and  O_18
REMARK    2  A    between atoms: C_6  and  C_7
REMARK    3  A    between atoms: C_7  and  C_9
REMARK    4  A    between atoms: C_7  and  C_11
REMARK    5  A    between atoms: C_9  and  N_10
REMARK    6  A    between atoms: C_11  and  O_17
REMARK    7  A    between atoms: O_18  and  C_19
REMARK    8  A    between atoms: C_21  and  O_35
REMARK    9  A    between atoms: C_23  and  O_34
REMARK   10  A    between atoms: C_25  and  O_33
REMARK   11  A    between atoms: C_27  and  C_30
REMARK                            x       y       z     vdW  Elec       q    Type
REMARK                         _______ _______ _______ _____ _____    ______ ____
ROOT
ATOM      1  C   UNL     1      -0.038   0.804  -0.475  0.00  0.00    +0.007 A 
ATOM      2  C   UNL     1       1.193   1.402  -0.661  0.00  0.00    +0.046 A 
ATOM      3  C   UNL     1       1.331   2.771  -0.484  0.00  0.00    +0.124 A 
ATOM      4  C   UNL     1       0.232   3.536  -0.122  0.00  0.00    +0.046 A 
ATOM      5  C   UNL     1      -0.997   2.933   0.062  0.00  0.00    +0.007 A 
ATOM      6  C   UNL     1      -1.134   1.569  -0.120  0.00  0.00    -0.043 A 
ENDROOT
BRANCH   6   7
ATOM      7  C   UNL     1      -2.477   0.914   0.075  0.00  0.00    +0.033 C 
BRANCH   7   8
ATOM      8  C   UNL     1      -3.355   1.178  -1.150  0.00  0.00    +0.071 C 
ATOM      9  C   UNL     1      -2.614   0.737  -2.413  0.00  0.00    +0.035 C 
ATOM     10  C   UNL     1      -3.492   1.000  -3.638  0.00  0.00    +0.003 C 
ATOM     11  C   UNL     1      -3.808   2.495  -3.727  0.00  0.00    +0.000 C 
ATOM     12  C   UNL     1      -4.549   2.936  -2.463  0.00  0.00    +0.003 C 
ATOM     13  C   UNL     1      -3.671   2.672  -1.239  0.00  0.00    +0.035 C 
BRANCH   8  14
ATOM     14  O   UNL     1      -4.573   0.440  -1.030  0.00  0.00    -0.388 OA
ATOM     15  H   UNL     1      -5.335   0.504  -1.821  0.00  0.00    +0.210 HD
ENDBRANCH   8  14
ENDBRANCH   7   8
BRANCH   7  16
ATOM     16  C   UNL     1      -3.151   1.494   1.320  0.00  0.00    -0.076 C 
BRANCH  16  17
ATOM     17  N   UNL     1      -4.394   0.759   1.592  0.00  0.00    +0.379 N 
ATOM     18  H   UNL     1      -4.878   1.176   2.487  0.00  0.00    -0.090 HD
ATOM     19  H   UNL     1      -4.162  -0.303   1.761  0.00  0.00    -0.090 HD
ATOM     20  H   UNL     1      -5.071   0.854   0.730  0.00  0.00    -0.090 HD
ENDBRANCH  16  17
ENDBRANCH   7  16
ENDBRANCH   6   7
BRANCH   3  21
ATOM     21  O   UNL     1       2.541   3.363  -0.666  0.00  0.00    -0.461 OA
BRANCH  21  22
ATOM     22  C   UNL     1       2.609   4.776  -0.468  0.00  0.00    +0.340 C 
ATOM     23  C   UNL     1       4.062   5.240  -0.593  0.00  0.00    +0.214 C 
ATOM     24  C   UNL     1       4.119   6.763  -0.439  0.00  0.00    +0.180 C 
ATOM     25  C   UNL     1       3.211   7.406  -1.491  0.00  0.00    +0.186 C 
ATOM     26  C   UNL     1       1.790   6.859  -1.330  0.00  0.00    +0.266 C 
ATOM     27  O   UNL     1       1.813   5.435  -1.454  0.00  0.00    -0.322 OA
BRANCH  26  28
ATOM     28  C   UNL     1       0.903   7.442  -2.400  0.00  0.00    +0.387 C 
ATOM     29  O   UNL     1       0.418   6.723  -3.241  0.00  0.00    -0.243 OA
ATOM     30  O   UNL     1       0.650   8.760  -2.417  0.00  0.00    -0.243 OA
ENDBRANCH  26  28
BRANCH  25  31
ATOM     31  O   UNL     1       3.199   8.824  -1.310  0.00  0.00    -0.386 OA
ATOM     32  H   UNL     1       2.598   9.459  -1.977  0.00  0.00    +0.210 HD
ENDBRANCH  25  31
BRANCH  24  33
ATOM     33  O   UNL     1       3.672   7.128   0.869  0.00  0.00    -0.386 OA
ATOM     34  H   UNL     1       3.644   8.187   1.164  0.00  0.00    +0.210 HD
ENDBRANCH  24  33
BRANCH  23  35
ATOM     35  O   UNL     1       4.573   4.870  -1.876  0.00  0.00    -0.383 OA
ATOM     36  H   UNL     1       5.608   5.121  -2.149  0.00  0.00    +0.210 HD
ENDBRANCH  23  35
ENDBRANCH  21  22
ENDBRANCH   3  21
TORSDOF 11
