REMARK  Name = ZINC02285344
REMARK  15 active torsions:
REMARK  status: ('A' for Active; 'I' for Inactive)
REMARK    1  A    between atoms: C_1  and  C_2
REMARK    2  A    between atoms: C_5  and  N_22
REMARK    3  A    between atoms: C_6  and  C_8
REMARK    4  A    between atoms: C_8  and  C_10
REMARK    5  A    between atoms: C_8  and  N_16
REMARK    6  A    between atoms: N_16  and  C_17
REMARK    7  A    between atoms: C_17  and  C_18
REMARK    8  A    between atoms: N_20  and  N_21
REMARK    9  A    between atoms: C_23  and  C_25
REMARK   10  A    between atoms: C_27  and  O_35
REMARK   11  A    between atoms: C_28  and  O_33
REMARK   12  A    between atoms: C_29  and  O_31
REMARK   13  A    between atoms: O_31  and  C_32
REMARK   14  A    between atoms: O_33  and  C_34
REMARK   15  A    between atoms: O_35  and  C_36
REMARK                            x       y       z     vdW  Elec       q    Type
REMARK                         _______ _______ _______ _____ _____    ______ ____
ROOT
ATOM      1  C   UNL     1      -0.059   1.502  -0.009  0.00  0.00    +0.044 C 
ATOM      2  C   UNL     1      -0.028  -0.004  -0.012  0.00  0.00    -0.050 A 
ATOM      3  C   UNL     1      -0.022  -0.692  -1.212  0.00  0.00    +0.005 A 
ATOM      4  C   UNL     1       0.007  -2.072  -1.218  0.00  0.00    +0.024 A 
ATOM      5  C   UNL     1       0.030  -2.771  -0.018  0.00  0.00    +0.036 A 
ATOM      6  C   UNL     1       0.024  -2.078   1.185  0.00  0.00    -0.036 A 
ATOM      7  C   UNL     1       0.000  -0.697   1.185  0.00  0.00    +0.007 A 
ENDROOT
BRANCH   5   8
ATOM      8  N   UNL     1       0.059  -4.169  -0.021  0.00  0.00    -0.281 N 
ATOM      9  C   UNL     1       0.555  -4.831  -1.085  0.00  0.00    +0.248 C 
ATOM     10  O   UNL     1       1.070  -4.214  -1.998  0.00  0.00    -0.270 OA
ATOM     11  H   UNL     1      -0.279  -4.663   0.743  0.00  0.00    +0.155 HD
BRANCH   9  12
ATOM     12  C   UNL     1       0.474  -6.303  -1.142  0.00  0.00    +0.044 A 
ATOM     13  C   UNL     1      -0.122  -7.012  -0.096  0.00  0.00    +0.062 A 
ATOM     14  C   UNL     1      -0.196  -8.391  -0.152  0.00  0.00    +0.166 A 
ATOM     15  C   UNL     1       0.323  -9.074  -1.249  0.00  0.00    +0.204 A 
ATOM     16  C   UNL     1       0.917  -8.370  -2.292  0.00  0.00    +0.166 A 
ATOM     17  C   UNL     1       0.989  -6.990  -2.244  0.00  0.00    +0.062 A 
BRANCH  16  18
ATOM     18  O   UNL     1       1.423  -9.039  -3.363  0.00  0.00    -0.491 OA
ATOM     19  C   UNL     1       2.019  -8.254  -4.397  0.00  0.00    +0.277 C 
ENDBRANCH  16  18
BRANCH  15  20
ATOM     20  O   UNL     1       0.249 -10.430  -1.301  0.00  0.00    -0.488 OA
ATOM     21  C   UNL     1      -0.914 -10.993  -1.911  0.00  0.00    +0.277 C 
ENDBRANCH  15  20
BRANCH  14  22
ATOM     22  O   UNL     1      -0.775  -9.082   0.866  0.00  0.00    -0.491 OA
ATOM     23  C   UNL     1      -1.286  -8.318   1.961  0.00  0.00    +0.277 C 
ENDBRANCH  14  22
ENDBRANCH   9  12
ENDBRANCH   5   8
BRANCH   6  24
ATOM     24  C   UNL     1       0.049  -2.831   2.490  0.00  0.00    -0.008 C 
BRANCH  24  25
ATOM     25  C   UNL     1       1.474  -3.160   2.853  0.00  0.00    -0.057 A 
ATOM     26  C   UNL     1       2.278  -2.200   3.439  0.00  0.00    +0.002 A 
ATOM     27  C   UNL     1       3.585  -2.502   3.772  0.00  0.00    +0.000 A 
ATOM     28  C   UNL     1       4.088  -3.765   3.520  0.00  0.00    +0.000 A 
ATOM     29  C   UNL     1       3.284  -4.726   2.935  0.00  0.00    +0.000 A 
ATOM     30  C   UNL     1       1.975  -4.425   2.606  0.00  0.00    +0.002 A 
ENDBRANCH  24  25
BRANCH  24  31
ATOM     31  N   UNL     1      -0.546  -2.001   3.546  0.00  0.00    +0.392 N 
ATOM     32  H   UNL     1       0.029  -1.186   3.698  0.00  0.00    -0.084 HD
ATOM     33  H   UNL     1      -1.472  -1.712   3.266  0.00  0.00    -0.084 HD
BRANCH  31  34
ATOM     34  C   UNL     1      -0.632  -2.778   4.790  0.00  0.00    +0.017 C 
BRANCH  34  35
ATOM     35  C   UNL     1      -1.242  -1.927   5.873  0.00  0.00    +0.209 C 
ATOM     36  O   UNL     1      -1.573  -0.785   5.633  0.00  0.00    -0.277 OA
ATOM     37  N   UNL     1      -1.420  -2.434   7.109  0.00  0.00    -0.255 N 
ATOM     38  H   UNL     1      -1.155  -3.347   7.301  0.00  0.00    +0.169 HD
BRANCH  37  39
ATOM     39  N   UNL     1      -1.974  -1.663   8.091  0.00  0.00    -0.254 NA
ATOM     40  H   UNL     1      -2.043  -2.175   8.957  0.00  0.00    +0.140 HD
ATOM     41  H   UNL     1      -1.451  -0.808   8.217  0.00  0.00    +0.140 HD
ENDBRANCH  37  39
ENDBRANCH  34  35
ENDBRANCH  31  34
ENDBRANCH  24  31
ENDBRANCH   6  24
TORSDOF 11
