REMARK  Name = ZINC55132972
REMARK  7 active torsions:
REMARK  status: ('A' for Active; 'I' for Inactive)
REMARK    1  A    between atoms: C_1  and  C_2
REMARK    2  A    between atoms: C_2  and  C_3
REMARK    3  A    between atoms: C_6  and  C_9
REMARK    4  A    between atoms: C_9  and  N_10
REMARK    5  A    between atoms: C_11  and  C_13
REMARK    6  A    between atoms: C_17  and  N_23
REMARK    7  A    between atoms: C_20  and  C_22
REMARK                            x       y       z     vdW  Elec       q    Type
REMARK                         _______ _______ _______ _____ _____    ______ ____
ROOT
ATOM      1  N   UNL     1       1.588  -4.125   4.898  0.00  0.00    -0.315 N 
ATOM      2  C   UNL     1       2.190  -4.796   5.899  0.00  0.00    +0.216 C 
ATOM      3  O   UNL     1       2.716  -4.188   6.807  0.00  0.00    -0.276 OA
ATOM      4  H   UNL     1       1.168  -4.612   4.171  0.00  0.00    +0.149 HD
ENDROOT
BRANCH   2   5
ATOM      5  C   UNL     1       2.211  -6.303   5.891  0.00  0.00    +0.078 C 
ATOM      6  C   UNL     1       0.775  -6.833   5.902  0.00  0.00    +0.011 C 
ATOM      7  C   UNL     1       0.796  -8.363   5.893  0.00  0.00    -0.016 C 
ATOM      8  C   UNL     1       1.536  -8.869   7.133  0.00  0.00    -0.075 C 
ATOM      9  C   UNL     1       2.972  -8.340   7.122  0.00  0.00    -0.012 C 
ATOM     10  C   UNL     1       2.951  -6.810   7.130  0.00  0.00    -0.004 C 
ATOM     11  C   UNL     1       2.235  -6.316   8.389  0.00  0.00    +0.008 C 
BRANCH   8  12
ATOM     12  N   UNL     1       1.556 -10.338   7.125  0.00  0.00    +0.380 N 
ATOM     13  H   UNL     1       2.028 -10.664   6.295  0.00  0.00    -0.090 HD
ATOM     14  H   UNL     1       2.044 -10.672   7.942  0.00  0.00    -0.090 HD
ATOM     15  H   UNL     1       0.610 -10.688   7.132  0.00  0.00    -0.090 HD
ENDBRANCH   8  12
ENDBRANCH   2   5
BRANCH   1  16
ATOM     16  C   UNL     1       1.568  -2.660   4.906  0.00  0.00    +0.107 C 
BRANCH  16  20
ATOM     17  C   UNL     1       0.742  -0.511   1.242  0.00  0.00    -0.011 C 
ATOM     18  C   UNL     1      -0.042  -0.124   2.497  0.00  0.00    +0.004 C 
ATOM     19  C   UNL     1       0.698  -0.630   3.737  0.00  0.00    +0.005 C 
ATOM     20  C   UNL     1       0.828  -2.153   3.666  0.00  0.00    +0.006 C 
ATOM     21  C   UNL     1       1.612  -2.541   2.410  0.00  0.00    +0.005 C 
ATOM     22  C   UNL     1       0.872  -2.034   1.171  0.00  0.00    +0.004 C 
BRANCH  17  24
ATOM     23  C   UNL     1      -0.019   1.526   0.010  0.00  0.00    +0.004 C 
ATOM     24  C   UNL     1       0.002  -0.004   0.002  0.00  0.00    -0.000 C 
ENDBRANCH  17  24
ENDBRANCH  16  20
ENDBRANCH   1  16
TORSDOF 5
