REMARK  Name = ZINC63526608
REMARK  5 active torsions:
REMARK  status: ('A' for Active; 'I' for Inactive)
REMARK    1  A    between atoms: C_1  and  O_2
REMARK    2  A    between atoms: O_2  and  C_3
REMARK    3  A    between atoms: C_10  and  C_30
REMARK    4  A    between atoms: C_18  and  C_20
REMARK    5  A    between atoms: C_34  and  N_36
REMARK                            x       y       z     vdW  Elec       q    Type
REMARK                         _______ _______ _______ _____ _____    ______ ____
ROOT
ATOM      1  C   UNL     1      -0.734  -0.664  -1.885  0.00  0.00    +0.121 A 
ATOM      2  C   UNL     1      -0.052   0.159  -2.798  0.00  0.00    +0.047 A 
ATOM      3  C   UNL     1       0.841  -0.326  -3.686  0.00  0.00    +0.029 A 
ATOM      4  C   UNL     1       1.129  -1.763  -3.720  0.00  0.00    +0.043 A 
ATOM      5  N   UNL     1       1.923  -2.479  -4.482  0.00  0.00    -0.375 N 
ATOM      6  C   UNL     1       1.875  -3.867  -4.026  0.00  0.00    +0.131 C 
ATOM      7  C   UNL     1       1.449  -4.822  -5.147  0.00  0.00    +0.133 C 
ATOM      8  N   UNL     1       1.040  -6.091  -4.527  0.00  0.00    -0.291 N 
ATOM      9  C   UNL     1      -0.064  -6.130  -3.562  0.00  0.00    +0.113 C 
ATOM     10  C   UNL     1       0.259  -5.194  -2.382  0.00  0.00    +0.052 C 
ATOM     11  C   UNL     1       0.795  -3.903  -2.957  0.00  0.00    -0.035 C 
ATOM     12  C   UNL     1       0.406  -2.636  -2.761  0.00  0.00    +0.003 A 
ATOM     13  C   UNL     1      -0.538  -2.003  -1.833  0.00  0.00    +0.055 A 
ATOM     14  C   UNL     1       1.684  -7.230  -4.850  0.00  0.00    +0.222 C 
ATOM     15  O   UNL     1       2.661  -7.192  -5.567  0.00  0.00    -0.275 OA
ATOM     16  H   UNL     1       2.452  -2.144  -5.222  0.00  0.00    +0.160 HD
ENDROOT
BRANCH  14  17
ATOM     17  C   UNL     1       1.190  -8.552  -4.319  0.00  0.00    +0.048 C 
ATOM     18  C   UNL     1       1.345  -8.580  -2.797  0.00  0.00    +0.019 C 
ATOM     19  C   UNL     1       0.843  -9.921  -2.259  0.00  0.00    -0.009 C 
ATOM     20  C   UNL     1       1.663 -11.057  -2.875  0.00  0.00    +0.007 C 
ATOM     21  C   UNL     1       1.508 -11.029  -4.397  0.00  0.00    -0.009 C 
ATOM     22  C   UNL     1       2.009  -9.687  -4.936  0.00  0.00    +0.019 C 
ATOM     23  C   UNL     1       0.033 -11.206  -4.764  0.00  0.00    +0.007 C 
ATOM     24  C   UNL     1      -0.786 -10.071  -4.147  0.00  0.00    -0.009 C 
ATOM     25  C   UNL     1      -0.631 -10.099  -2.625  0.00  0.00    +0.007 C 
ATOM     26  C   UNL     1      -0.285  -8.729  -4.686  0.00  0.00    +0.019 C 
ENDBRANCH  14  17
BRANCH   7  27
ATOM     27  C   UNL     1       0.293  -4.229  -5.911  0.00  0.00    -0.023 A 
ATOM     28  C   UNL     1      -0.893  -3.945  -5.258  0.00  0.00    +0.007 A 
ATOM     29  C   UNL     1      -1.953  -3.401  -5.958  0.00  0.00    +0.022 A 
ATOM     30  C   UNL     1      -1.829  -3.141  -7.311  0.00  0.00    +0.071 A 
ATOM     31  C   UNL     1      -0.643  -3.426  -7.963  0.00  0.00    +0.145 A 
ATOM     32  C   UNL     1       0.419  -3.965  -7.261  0.00  0.00    +0.039 A 
ATOM     33 CL   UNL     1      -3.161  -2.459  -8.190  0.00  0.00    -0.081 Cl
BRANCH  31  34
ATOM     34  N   UNL     1      -0.509  -3.149  -9.411  0.00  0.00    +0.058 N 
ATOM     35  O   UNL     1       0.528  -3.398  -9.981  0.00  0.00    -0.126 OA
ATOM     36  O   UNL     1      -1.436  -2.673 -10.024  0.00  0.00    -0.126 OA
ENDBRANCH  31  34
ENDBRANCH   7  27
BRANCH   1  38
ATOM     37  C   UNL     1      -1.791   1.319  -1.110  0.00  0.00    +0.277 C 
ATOM     38  O   UNL     1      -1.616  -0.096  -1.020  0.00  0.00    -0.495 OA
ENDBRANCH   1  38
TORSDOF 4
