REMARK  Name = ZINC15015515
REMARK  4 active torsions:
REMARK  status: ('A' for Active; 'I' for Inactive)
REMARK    1  A    between atoms: N_6  and  C_7
REMARK    2  A    between atoms: C_7  and  C_9
REMARK    3  A    between atoms: C_7  and  C_17
REMARK    4  A    between atoms: C_26  and  O_27
REMARK                            x       y       z     vdW  Elec       q    Type
REMARK                         _______ _______ _______ _____ _____    ______ ____
ROOT
ATOM      1  C   UNL     1       1.016   5.986   0.025  0.00  0.00    +0.137 C 
ENDROOT
BRANCH   1   2
ATOM      2  C   UNL     1       0.600   7.334  -0.505  0.00  0.00    +0.021 A 
ATOM      3  C   UNL     1       0.491   8.411   0.371  0.00  0.00    +0.010 A 
ATOM      4  C   UNL     1       0.118   9.642  -0.076  0.00  0.00    +0.010 A 
ATOM      5  C   UNL     1      -0.161   9.833  -1.439  0.00  0.00    +0.004 A 
ATOM      6  C   UNL     1      -0.549  11.091  -1.938  0.00  0.00    +0.011 A 
ATOM      7  C   UNL     1      -0.804  11.203  -3.275  0.00  0.00    +0.020 A 
ATOM      8  C   UNL     1      -0.677  10.088  -4.103  0.00  0.00    +0.111 A 
ATOM      9  N   UNL     1      -0.315   8.919  -3.634  0.00  0.00    -0.251 NA
ATOM     10  C   UNL     1      -0.051   8.742  -2.336  0.00  0.00    +0.113 A 
ATOM     11  C   UNL     1       0.343   7.483  -1.838  0.00  0.00    +0.148 A 
BRANCH  11  12
ATOM     12  O   UNL     1       0.461   6.422  -2.679  0.00  0.00    -0.504 OA
ATOM     13  H   UNL     1      -0.353   5.909  -2.781  0.00  0.00    +0.292 HD
ENDBRANCH  11  12
ENDBRANCH   1   2
BRANCH   1  19
ATOM     14  C   UNL     1       1.426   1.814  -0.147  0.00  0.00    +0.005 A 
ATOM     15  C   UNL     1       0.287   1.024  -0.072  0.00  0.00    +0.018 A 
ATOM     16  C   UNL     1      -0.948   1.627   0.050  0.00  0.00    +0.084 A 
ATOM     17  C   UNL     1       0.006   3.729   0.040  0.00  0.00    +0.097 A 
ATOM     18  C   UNL     1       1.281   3.188  -0.089  0.00  0.00    +0.041 A 
ATOM     19  N   UNL     1      -0.155   5.109   0.099  0.00  0.00    -0.320 N 
ATOM     20  H   UNL     1      -1.042   5.490   0.189  0.00  0.00    +0.148 HD
ATOM     21  N   UNL     1      -1.128   2.974   0.115  0.00  0.00    -0.350 N 
ATOM     22  H   UNL     1      -2.059   3.396   0.214  0.00  0.00    +0.166 HD
ENDBRANCH   1  19
BRANCH   1  23
ATOM     23  C   UNL     1       1.610   6.148   1.400  0.00  0.00    -0.003 A 
ATOM     24  C   UNL     1       0.824   5.954   2.520  0.00  0.00    +0.007 A 
ATOM     25  C   UNL     1       1.368   6.102   3.782  0.00  0.00    +0.002 A 
ATOM     26  C   UNL     1       2.700   6.445   3.925  0.00  0.00    +0.021 A 
ATOM     27  C   UNL     1       3.488   6.640   2.806  0.00  0.00    +0.060 A 
ATOM     28  C   UNL     1       2.944   6.485   1.542  0.00  0.00    +0.064 A 
ATOM     29 CL   UNL     1       3.934   6.721   0.135  0.00  0.00    -0.082 Cl
ATOM     30 CL   UNL     1       5.160   7.071   2.985  0.00  0.00    -0.082 Cl
ENDBRANCH   1  23
TORSDOF 4
