REMARK  Name = ZINC34775847
REMARK  11 active torsions:
REMARK  status: ('A' for Active; 'I' for Inactive)
REMARK    1  A    between atoms: C_1  and  C_2
REMARK    2  A    between atoms: C_2  and  O_3
REMARK    3  A    between atoms: O_3  and  C_4
REMARK    4  A    between atoms: C_4  and  C_6
REMARK    5  A    between atoms: C_7  and  C_32
REMARK    6  A    between atoms: N_11  and  C_28
REMARK    7  A    between atoms: N_14  and  C_17
REMARK    8  A    between atoms: C_17  and  C_18
REMARK    9  A    between atoms: N_20  and  C_21
REMARK   10  A    between atoms: C_28  and  C_29
REMARK   11  A    between atoms: C_29  and  C_31
REMARK                            x       y       z     vdW  Elec       q    Type
REMARK                         _______ _______ _______ _____ _____    ______ ____
ROOT
ATOM      1  C   UNL     1       1.425  -2.353  -2.524  0.00  0.00    +0.102 A 
ATOM      2  C   UNL     1       1.634  -3.659  -2.864  0.00  0.00    -0.015 A 
ATOM      3  C   UNL     1       2.321  -3.905  -4.058  0.00  0.00    +0.074 A 
ATOM      4  C   UNL     1       2.684  -5.209  -4.666  0.00  0.00    +0.265 A 
ATOM      5  O   UNL     1       2.378  -6.251  -4.117  0.00  0.00    -0.267 OA
ATOM      6  N   UNL     1       3.353  -5.225  -5.832  0.00  0.00    -0.256 N 
ATOM      7  C   UNL     1       3.705  -4.093  -6.462  0.00  0.00    +0.334 A 
ATOM      8  O   UNL     1       4.310  -4.162  -7.514  0.00  0.00    -0.246 OA
ATOM      9  N   UNL     1       3.401  -2.883  -5.956  0.00  0.00    -0.278 N 
ATOM     10  C   UNL     1       2.723  -2.769  -4.776  0.00  0.00    +0.098 A 
ATOM     11  S   UNL     1       2.183  -1.470  -3.873  0.00  0.00    -0.063 S 
ATOM     12  C   UNL     1       1.144  -4.786  -1.992  0.00  0.00    +0.046 C 
ENDROOT
BRANCH   1  13
ATOM     13  C   UNL     1       0.744  -1.812  -1.347  0.00  0.00    +0.346 C 
ATOM     14  O   UNL     1       0.279  -2.567  -0.514  0.00  0.00    -0.244 OA
BRANCH  13  15
ATOM     15  O   UNL     1       0.631  -0.478  -1.186  0.00  0.00    -0.461 OA
BRANCH  15  17
ATOM     16  C   UNL     1      -0.074   1.509  -0.005  0.00  0.00    +0.048 C 
ATOM     17  C   UNL     1      -0.046  -0.020  -0.014  0.00  0.00    +0.229 C 
ENDBRANCH  15  17
ENDBRANCH  13  15
ENDBRANCH   1  13
BRANCH   9  18
ATOM     18  C   UNL     1       3.805  -1.674  -6.679  0.00  0.00    +0.223 C 
BRANCH  18  19
ATOM     19  C   UNL     1       2.711  -1.272  -7.635  0.00  0.00    +0.237 C 
ATOM     20  O   UNL     1       1.695  -1.931  -7.705  0.00  0.00    -0.274 OA
ATOM     21  N   UNL     1       2.862  -0.181  -8.411  0.00  0.00    -0.284 N 
ATOM     22  H   UNL     1       3.644   0.383  -8.308  0.00  0.00    +0.155 HD
BRANCH  21  23
ATOM     23  C   UNL     1       1.891   0.138  -9.367  0.00  0.00    +0.034 A 
ATOM     24  C   UNL     1       2.267   0.701 -10.580  0.00  0.00    +0.024 A 
ATOM     25  C   UNL     1       1.306   1.014 -11.521  0.00  0.00    +0.017 A 
ATOM     26  C   UNL     1      -0.029   0.767 -11.258  0.00  0.00    +0.018 A 
ATOM     27  C   UNL     1      -0.406   0.206 -10.050  0.00  0.00    +0.017 A 
ATOM     28  C   UNL     1       0.550  -0.114  -9.107  0.00  0.00    +0.024 A 
ATOM     29 BR   UNL     1      -1.342   1.197 -12.549  0.00  0.00    -0.050 Br
ENDBRANCH  21  23
ENDBRANCH  18  19
ENDBRANCH   9  18
BRANCH   6  30
ATOM     30  C   UNL     1       3.710  -6.514  -6.431  0.00  0.00    +0.160 C 
BRANCH  30  31
ATOM     31  C   UNL     1       2.601  -6.968  -7.344  0.00  0.00    -0.060 C 
ATOM     32  C   UNL     1       2.661  -6.709  -8.627  0.00  0.00    +0.009 C 
ATOM     33  C   UNL     1       1.422  -7.719  -6.781  0.00  0.00    +0.040 C 
ENDBRANCH  30  31
ENDBRANCH   6  30
TORSDOF 8
