REMARK  Name = ZINC20548947
REMARK  5 active torsions:
REMARK  status: ('A' for Active; 'I' for Inactive)
REMARK    1  A    between atoms: C_5  and  C_7
REMARK    2  A    between atoms: C_12  and  O_31
REMARK    3  A    between atoms: N_20  and  C_23
REMARK    4  A    between atoms: C_23  and  C_24
REMARK    5  A    between atoms: C_24  and  N_25
REMARK                            x       y       z     vdW  Elec       q    Type
REMARK                         _______ _______ _______ _____ _____    ______ ____
ROOT
ATOM      1  C   UNL     1      -4.518   2.824   7.048  0.00  0.00    +0.093 C 
ATOM      2  C   UNL     1      -5.153   3.776   8.026  0.00  0.00    +0.007 A 
ATOM      3  C   UNL     1      -6.489   3.626   8.353  0.00  0.00    +0.012 A 
ATOM      4  C   UNL     1      -7.087   4.491   9.248  0.00  0.00    +0.046 A 
ATOM      5  C   UNL     1      -6.347   5.514   9.824  0.00  0.00    +0.120 A 
ATOM      6  C   UNL     1      -5.009   5.667   9.498  0.00  0.00    +0.092 A 
ATOM      7  C   UNL     1      -4.409   4.796   8.597  0.00  0.00    +0.138 A 
ATOM      8  O   UNL     1      -3.100   4.957   8.289  0.00  0.00    -0.437 OA
ATOM      9  C   UNL     1      -2.595   4.416   7.160  0.00  0.00    +0.229 A 
ATOM     10  C   UNL     1      -3.230   3.393   6.524  0.00  0.00    +0.066 A 
ATOM     11  C   UNL     1      -2.660   2.863   5.342  0.00  0.00    +0.115 A 
ATOM     12  N   UNL     1      -3.245   1.878   4.693  0.00  0.00    -0.384 N 
ATOM     13  N   UNL     1      -1.473   3.403   4.889  0.00  0.00    -0.317 N 
ATOM     14  C   UNL     1      -0.901   4.423   5.578  0.00  0.00    +0.204 A 
ATOM     15  N   UNL     1      -1.442   4.901   6.660  0.00  0.00    -0.202 NA
ATOM     16  H   UNL     1      -2.790   1.476   3.776  0.00  0.00    +0.157 HD
ATOM     17  H   UNL     1      -4.189   1.456   5.069  0.00  0.00    +0.157 HD
ENDROOT
BRANCH   1  22
ATOM     18  C   UNL     1      -3.145   0.273   9.470  0.00  0.00    +0.000 A 
ATOM     19  C   UNL     1      -3.726  -0.891   9.005  0.00  0.00    +0.001 A 
ATOM     20  C   UNL     1      -4.564  -0.855   7.906  0.00  0.00    +0.020 A 
ATOM     21  C   UNL     1      -4.821   0.348   7.272  0.00  0.00    +0.045 A 
ATOM     22  C   UNL     1      -4.239   1.513   7.739  0.00  0.00    -0.017 A 
ATOM     23  C   UNL     1      -3.397   1.474   8.834  0.00  0.00    +0.006 A 
ATOM     24 CL   UNL     1      -5.873   0.395   5.892  0.00  0.00    -0.083 Cl
ENDBRANCH   1  22
BRANCH   5  25
ATOM     25  O   UNL     1      -6.934   6.365  10.706  0.00  0.00    -0.507 OA
ATOM     26  H   UNL     1      -6.346   7.176  11.162  0.00  0.00    +0.292 HD
ENDBRANCH   5  25
BRANCH  13  27
ATOM     27  C   UNL     1      -0.840   2.885   3.674  0.00  0.00    +0.140 C 
BRANCH  27  28
ATOM     28  C   UNL     1      -1.451   3.568   2.449  0.00  0.00    +0.106 C 
BRANCH  28  29
ATOM     29  N   UNL     1      -0.817   3.048   1.230  0.00  0.00    -0.296 NA
ATOM     30  C   UNL     1      -0.731   1.580   1.266  0.00  0.00    +0.112 C 
ATOM     31  C   UNL     1      -0.013   1.086   0.008  0.00  0.00    +0.175 C 
ATOM     32  O   UNL     1      -0.706   1.560  -1.149  0.00  0.00    -0.377 OA
ATOM     33  C   UNL     1      -0.807   2.985  -1.216  0.00  0.00    +0.175 C 
ATOM     34  C   UNL     1      -1.534   3.499   0.029  0.00  0.00    +0.112 C 
ENDBRANCH  28  29
ENDBRANCH  27  28
ENDBRANCH  13  27
TORSDOF 5
