REMARK  Name = ZINC59206246
REMARK  7 active torsions:
REMARK  status: ('A' for Active; 'I' for Inactive)
REMARK    1  A    between atoms: C_3  and  C_24
REMARK    2  A    between atoms: N_5  and  C_6
REMARK    3  A    between atoms: C_8  and  O_22
REMARK    4  A    between atoms: C_10  and  O_21
REMARK    5  A    between atoms: C_12  and  C_15
REMARK    6  A    between atoms: C_15  and  O_16
REMARK    7  A    between atoms: O_16  and  P_17
REMARK                            x       y       z     vdW  Elec       q    Type
REMARK                         _______ _______ _______ _____ _____    ______ ____
ROOT
ATOM      1  C   UNL     1      -1.587   3.238   0.043  0.00  0.00    +0.244 C 
ATOM      2  C   UNL     1      -0.918   3.932   1.256  0.00  0.00    +0.193 C 
ATOM      3  C   UNL     1      -1.825   5.168   1.465  0.00  0.00    +0.178 C 
ATOM      4  C   UNL     1      -3.147   4.789   0.769  0.00  0.00    +0.178 C 
ATOM      5  O   UNL     1      -2.998   3.449   0.267  0.00  0.00    -0.347 OA
ENDROOT
BRANCH   1  10
ATOM      6  C   UNL     1      -1.605   0.924   1.020  0.00  0.00    +0.162 C 
ATOM      7  N   UNL     1      -1.223  -0.280   0.778  0.00  0.00    -0.362 N 
ATOM      8  C   UNL     1      -0.534  -0.290  -0.522  0.00  0.00    +0.228 C 
ATOM      9  C   UNL     1      -0.598   1.155  -0.978  0.00  0.00    +0.107 C 
ATOM     10  N   UNL     1      -1.275   1.806   0.030  0.00  0.00    -0.252 N 
ATOM     11  N   UNL     1      -0.127   1.661  -2.070  0.00  0.00    -0.388 N 
ATOM     12  H   UNL     1       0.395   1.111  -2.674  0.00  0.00    +0.157 HD
ATOM     13  H   UNL     1      -0.295   2.592  -2.285  0.00  0.00    +0.157 HD
ATOM     14  H   UNL     1      -1.364  -1.048   1.353  0.00  0.00    +0.161 HD
BRANCH   8  15
ATOM     15  C   UNL     1       0.898  -0.730  -0.357  0.00  0.00    +0.240 C 
ATOM     16  O   UNL     1       1.423  -0.690   0.735  0.00  0.00    -0.273 OA
ATOM     17  N   UNL     1       1.596  -1.167  -1.425  0.00  0.00    -0.327 N 
ATOM     18  H   UNL     1       1.176  -1.198  -2.299  0.00  0.00    +0.145 HD
ATOM     19  H   UNL     1       2.518  -1.450  -1.319  0.00  0.00    +0.145 HD
ENDBRANCH   8  15
ENDBRANCH   1  10
BRANCH   3  20
ATOM     20  O   UNL     1      -2.039   5.403   2.858  0.00  0.00    -0.386 OA
ATOM     21  H   UNL     1      -1.231   5.590   3.354  0.00  0.00    +0.210 HD
ENDBRANCH   3  20
BRANCH   2  22
ATOM     22  O   UNL     1       0.420   4.326   0.944  0.00  0.00    -0.385 OA
ATOM     23  H   UNL     1       0.881   4.765   1.672  0.00  0.00    +0.210 HD
ENDBRANCH   2  22
BRANCH   4  24
ATOM     24  C   UNL     1      -4.299   4.849   1.773  0.00  0.00    +0.206 C 
BRANCH  24  25
ATOM     25  O   UNL     1      -5.534   4.610   1.096  0.00  0.00    -0.281 OA
BRANCH  25  26
ATOM     26  P   UNL     1      -6.958   4.599   1.846  0.00  0.00    +0.532 P 
ATOM     27  O   UNL     1      -6.917   3.574   3.031  0.00  0.00    -0.222 OA
ATOM     28  O   UNL     1      -7.265   6.030   2.405  0.00  0.00    -0.115 OA
ATOM     29  O   UNL     1      -8.079   4.182   0.834  0.00  0.00    -0.115 OA
ENDBRANCH  25  26
ENDBRANCH  24  25
ENDBRANCH   4  24
TORSDOF 7
