REMARK  Name = ZINC20230941
REMARK  4 active torsions:
REMARK  status: ('A' for Active; 'I' for Inactive)
REMARK    1  A    between atoms: C_2  and  C_18
REMARK    2  A    between atoms: C_4  and  S_11
REMARK    3  A    between atoms: C_6  and  C_7
REMARK    4  A    between atoms: S_11  and  N_14
REMARK                            x       y       z     vdW  Elec       q    Type
REMARK                         _______ _______ _______ _____ _____    ______ ____
ROOT
ATOM      1  C   UNL     1       0.002  -0.004   0.002  0.00  0.00    +0.024 A 
ATOM      2  C   UNL     1      -0.017   1.378   0.010  0.00  0.00    +0.057 A 
ATOM      3  C   UNL     1       1.171   2.086   0.002  0.00  0.00    +0.041 A 
ATOM      4  C   UNL     1       2.377   1.411  -0.015  0.00  0.00    +0.114 A 
ATOM      5  C   UNL     1       2.396   0.029  -0.022  0.00  0.00    +0.041 A 
ATOM      6  C   UNL     1       1.208  -0.679  -0.013  0.00  0.00    +0.057 A 
ENDROOT
BRANCH   6   7
ATOM      7  C   UNL     1       1.229  -2.186  -0.021  0.00  0.00    +0.417 C 
ATOM      8  F   UNL     1      -0.084  -2.670  -0.011  0.00  0.00    -0.166 F 
ATOM      9  F   UNL     1       1.883  -2.637  -1.172  0.00  0.00    -0.166 F 
ATOM     10  F   UNL     1       1.906  -2.649   1.112  0.00  0.00    -0.166 F 
ENDBRANCH   6   7
BRANCH   2  11
ATOM     11  C   UNL     1      -1.332   2.114   0.020  0.00  0.00    +0.417 C 
ATOM     12  F   UNL     1      -2.383   1.190   0.020  0.00  0.00    -0.166 F 
ATOM     13  F   UNL     1      -1.411   2.911   1.167  0.00  0.00    -0.166 F 
ATOM     14  F   UNL     1      -1.422   2.923  -1.118  0.00  0.00    -0.166 F 
ENDBRANCH   2  11
BRANCH   4  15
ATOM     15  S   UNL     1       3.891   2.312  -0.026  0.00  0.00    +0.102 S 
ATOM     16  O   UNL     1       3.608   3.588   0.534  0.00  0.00    -0.146 OA
ATOM     17  O   UNL     1       4.883   1.448   0.511  0.00  0.00    -0.146 OA
BRANCH  15  18
ATOM     18  N   UNL     1       4.296   2.570  -1.611  0.00  0.00    -0.093 NA
ATOM     19  C   UNL     1       3.497   3.359  -2.405  0.00  0.00    +0.212 C 
ATOM     20  N   UNL     1       2.422   3.904  -1.910  0.00  0.00    -0.369 N 
ATOM     21  N   UNL     1       3.834   3.574  -3.720  0.00  0.00    -0.369 N 
ATOM     22  H   UNL     1       1.783   4.535  -2.545  0.00  0.00    +0.159 HD
ATOM     23  H   UNL     1       3.195   4.205  -4.356  0.00  0.00    +0.159 HD
ATOM     24  H   UNL     1       4.742   3.114  -4.138  0.00  0.00    +0.159 HD
ATOM     25  H   UNL     1       2.153   3.733  -0.857  0.00  0.00    +0.159 HD
ENDBRANCH  15  18
ENDBRANCH   4  15
TORSDOF 4
