REMARK  Name = ZINC20902860
REMARK  9 active torsions:
REMARK  status: ('A' for Active; 'I' for Inactive)
REMARK    1  A    between atoms: C_1  and  C_2
REMARK    2  A    between atoms: C_7  and  C_37
REMARK    3  A    between atoms: N_9  and  C_10
REMARK    4  A    between atoms: C_10  and  C_11
REMARK    5  A    between atoms: C_11  and  C_12
REMARK    6  A    between atoms: C_12  and  N_13
REMARK    7  A    between atoms: C_26  and  C_27
REMARK    8  A    between atoms: C_26  and  C_28
REMARK    9  A    between atoms: N_30  and  C_31
REMARK                            x       y       z     vdW  Elec       q    Type
REMARK                         _______ _______ _______ _____ _____    ______ ____
ROOT
ATOM      1  N   UNL     1       5.832   2.009  -0.783  0.00  0.00    -0.281 N 
ATOM      2  C   UNL     1       5.326   0.818  -1.179  0.00  0.00    +0.264 C 
ATOM      3  O   UNL     1       6.031  -0.165  -1.314  0.00  0.00    -0.268 OA
ATOM      4  C   UNL     1       3.875   0.775  -1.440  0.00  0.00    +0.106 A 
ATOM      5  C   UNL     1       3.066  -0.276  -1.667  0.00  0.00    +0.041 A 
ATOM      6  C   UNL     1       1.750   0.226  -1.839  0.00  0.00    +0.001 A 
ATOM      7  C   UNL     1       0.517  -0.387  -2.095  0.00  0.00    +0.010 A 
ATOM      8  C   UNL     1      -0.611   0.372  -2.204  0.00  0.00    +0.001 A 
ATOM      9  C   UNL     1      -0.549   1.753  -2.064  0.00  0.00    +0.002 A 
ATOM     10  C   UNL     1       0.651   2.380  -1.815  0.00  0.00    +0.026 A 
ATOM     11  C   UNL     1       1.818   1.629  -1.701  0.00  0.00    +0.050 A 
ATOM     12  N   UNL     1       3.126   1.950  -1.471  0.00  0.00    -0.334 N 
ATOM     13  C   UNL     1       3.748   3.265  -1.288  0.00  0.00    +0.157 C 
ATOM     14  C   UNL     1       4.974   3.119  -0.388  0.00  0.00    +0.128 C 
ATOM     15  C   UNL     1       5.784   4.416  -0.446  0.00  0.00    +0.043 C 
ENDROOT
BRANCH  14  16
ATOM     16  C   UNL     1       4.513   2.898   1.030  0.00  0.00    +0.238 C 
ATOM     17  O   UNL     1       4.364   3.844   1.774  0.00  0.00    -0.273 OA
ATOM     18  N   UNL     1       4.267   1.648   1.471  0.00  0.00    -0.311 N 
ATOM     19  H   UNL     1       4.402   0.790   0.796  0.00  0.00    +0.149 HD
BRANCH  18  20
ATOM     20  C   UNL     1       3.819   1.433   2.849  0.00  0.00    +0.073 C 
ATOM     21  C   UNL     1       5.035   1.363   3.776  0.00  0.00    +0.022 C 
ATOM     22  C   UNL     1       4.567   1.138   5.215  0.00  0.00    +0.002 C 
ATOM     23  C   UNL     1       3.786  -0.175   5.298  0.00  0.00    +0.000 C 
ATOM     24  C   UNL     1       2.570  -0.105   4.372  0.00  0.00    +0.002 C 
ATOM     25  C   UNL     1       3.038   0.120   2.932  0.00  0.00    +0.022 C 
ENDBRANCH  18  20
ENDBRANCH  14  16
BRANCH   1  26
ATOM     26  C   UNL     1       7.286   2.188  -0.750  0.00  0.00    +0.107 C 
BRANCH  26  27
ATOM     27  C   UNL     1       7.766   2.716  -2.103  0.00  0.00    +0.000 C 
BRANCH  27  28
ATOM     28  C   UNL     1       9.284   2.902  -2.068  0.00  0.00    -0.077 C 
BRANCH  28  35
ATOM     29  C   UNL     1      11.683   1.820  -3.064  0.00  0.00    -0.013 C 
ATOM     30  C   UNL     1      11.224   3.218  -3.482  0.00  0.00    -0.071 C 
ATOM     31  C   UNL     1      11.672   3.494  -4.919  0.00  0.00    -0.016 C 
ATOM     32  C   UNL     1      11.193   4.886  -5.340  0.00  0.00    -0.003 C 
ATOM     33  C   UNL     1       9.670   4.957  -5.200  0.00  0.00    -0.016 C 
ATOM     34  C   UNL     1       9.280   4.639  -3.755  0.00  0.00    -0.071 C 
ATOM     35  N   UNL     1       9.759   3.297  -3.401  0.00  0.00    +0.383 N 
ATOM     36  C   UNL     1       9.912   5.670  -2.817  0.00  0.00    -0.013 C 
ATOM     37  H   UNL     1       9.345   2.589  -4.133  0.00  0.00    -0.081 HD
ENDBRANCH  28  35
ENDBRANCH  27  28
ENDBRANCH  26  27
ENDBRANCH   1  26
TORSDOF 6
