REMARK  Name = ZINC39746390
REMARK  10 active torsions:
REMARK  status: ('A' for Active; 'I' for Inactive)
REMARK    1  A    between atoms: C_1  and  C_2
REMARK    2  A    between atoms: C_6  and  N_12
REMARK    3  A    between atoms: C_9  and  C_11
REMARK    4  A    between atoms: C_13  and  C_15
REMARK    5  A    between atoms: C_15  and  O_16
REMARK    6  A    between atoms: O_16  and  C_17
REMARK    7  A    between atoms: C_17  and  C_19
REMARK    8  A    between atoms: C_19  and  C_20
REMARK    9  A    between atoms: C_20  and  C_25
REMARK   10  A    between atoms: C_25  and  C_26
REMARK                            x       y       z     vdW  Elec       q    Type
REMARK                         _______ _______ _______ _____ _____    ______ ____
ROOT
ATOM      1  O   UNL     1       6.323  -3.594  -4.178  0.00  0.00    -0.455 OA
ENDROOT
BRANCH   1   2
ATOM      2  C   UNL     1       7.221  -4.591  -4.221  0.00  0.00    +0.308 C 
ATOM      3  O   UNL     1       7.116  -5.531  -3.469  0.00  0.00    -0.251 OA
BRANCH   2   4
ATOM      4  C   UNL     1       8.361  -4.537  -5.206  0.00  0.00    +0.127 C 
BRANCH   4   5
ATOM      5  C   UNL     1       9.299  -5.721  -4.965  0.00  0.00    -0.017 C 
ATOM      6  C   UNL     1      10.564  -5.579  -5.837  0.00  0.00    +0.007 C 
ATOM      7  C   UNL     1      11.600  -4.915  -4.897  0.00  0.00    +0.001 C 
ATOM      8  C   UNL     1      11.309  -5.592  -3.534  0.00  0.00    +0.001 C 
ATOM      9  C   UNL     1       9.773  -5.730  -3.501  0.00  0.00    +0.007 C 
BRANCH   5  10
ATOM     10  C   UNL     1       8.581  -7.032  -5.292  0.00  0.00    +0.041 C 
BRANCH  10  11
ATOM     11  C   UNL     1       8.131  -7.017  -6.754  0.00  0.00    +0.134 C 
ATOM     12  N   UNL     1       7.403  -8.247  -7.096  0.00  0.00    -0.331 N 
ATOM     13  C   UNL     1       7.950  -9.067  -8.081  0.00  0.00    +0.042 A 
ATOM     14  C   UNL     1       7.398 -10.277  -8.538  0.00  0.00    +0.024 A 
ATOM     15  C   UNL     1       8.018 -11.017  -9.519  0.00  0.00    +0.002 A 
ATOM     16  C   UNL     1       9.205 -10.596 -10.089  0.00  0.00    +0.001 A 
ATOM     17  C   UNL     1       9.771  -9.408  -9.658  0.00  0.00    +0.016 A 
ATOM     18  C   UNL     1       9.150  -8.668  -8.677  0.00  0.00    +0.030 A 
ATOM     19  S   UNL     1       9.571  -7.128  -7.890  0.00  0.00    -0.101 S 
ATOM     20  H   UNL     1       6.573  -8.479  -6.652  0.00  0.00    +0.147 HD
ENDBRANCH  10  11
ENDBRANCH   5  10
ENDBRANCH   4   5
ENDBRANCH   2   4
ENDBRANCH   1   2
BRANCH   1  21
ATOM     21  C   UNL     1       5.269  -3.711  -3.220  0.00  0.00    +0.327 C 
BRANCH  21  23
ATOM     22  N   UNL     1       3.296  -2.401  -2.505  0.00  0.00    -0.283 N 
ATOM     23  C   UNL     1       4.366  -2.509  -3.318  0.00  0.00    +0.253 C 
ATOM     24  O   UNL     1       4.601  -1.638  -4.129  0.00  0.00    -0.272 OA
ATOM     25  H   UNL     1       3.108  -3.098  -1.857  0.00  0.00    +0.152 HD
BRANCH  22  30
ATOM     26  C   UNL     1      -0.055   1.495  -0.013  0.00  0.00    +0.030 C 
ATOM     27  C   UNL     1      -0.032  -0.034  -0.026  0.00  0.00    +0.099 C 
ATOM     28  C   UNL     1       0.685  -0.517  -1.258  0.00  0.00    -0.011 C 
ATOM     29  C   UNL     1       2.002  -0.786  -1.235  0.00  0.00    +0.065 C 
ATOM     30  C   UNL     1       2.418  -1.233  -2.600  0.00  0.00    +0.243 C 
ATOM     31  O   UNL     1       1.196  -1.580  -3.288  0.00  0.00    -0.347 OA
ATOM     32  C   UNL     1       0.179  -0.784  -2.642  0.00  0.00    +0.146 C 
ATOM     33  C   UNL     1      -0.017   0.534  -3.395  0.00  0.00    +0.043 C 
ATOM     34  C   UNL     1       2.764  -0.628   0.013  0.00  0.00    +0.258 C 
ATOM     35  O   UNL     1       3.977  -0.719   0.046  0.00  0.00    -0.269 OA
ATOM     36  N   UNL     1       2.030  -0.376   1.126  0.00  0.00    -0.247 N 
ATOM     37  N   UNL     1       0.679  -0.526   1.162  0.00  0.00    -0.233 NA
ATOM     38  H   UNL     1       2.487  -0.076   1.927  0.00  0.00    +0.169 HD
ATOM     39  H   UNL     1       0.291  -0.130   2.005  0.00  0.00    +0.145 HD
ENDBRANCH  22  30
ENDBRANCH  21  23
ENDBRANCH   1  21
TORSDOF 8
