REMARK  Name = ZINC39357400
REMARK  7 active torsions:
REMARK  status: ('A' for Active; 'I' for Inactive)
REMARK    1  A    between atoms: C_4  and  C_7
REMARK    2  A    between atoms: C_7  and  N_8
REMARK    3  A    between atoms: C_12  and  N_13
REMARK    4  A    between atoms: N_13  and  C_14
REMARK    5  A    between atoms: C_14  and  C_15
REMARK    6  A    between atoms: C_15  and  C_16
REMARK    7  A    between atoms: C_19  and  O_25
REMARK                            x       y       z     vdW  Elec       q    Type
REMARK                         _______ _______ _______ _____ _____    ______ ____
ROOT
ATOM      1  N   UNL     1       3.602  -0.566   1.619  0.00  0.00    -0.217 N 
ATOM      2  C   UNL     1       4.528   0.246   2.169  0.00  0.00    +0.261 C 
ATOM      3  O   UNL     1       4.817   1.307   1.648  0.00  0.00    -0.269 OA
ATOM      4  C   UNL     1       5.180  -0.186   3.418  0.00  0.00    +0.113 C 
ATOM      5  C   UNL     1       6.138   0.593   4.040  0.00  0.00    +0.085 C 
ATOM      6  C   UNL     1       4.766  -1.486   3.976  0.00  0.00    +0.258 C 
ATOM      7  O   UNL     1       5.258  -1.910   5.005  0.00  0.00    -0.270 OA
ATOM      8  N   UNL     1       3.825  -2.193   3.316  0.00  0.00    -0.235 N 
ATOM      9  C   UNL     1       3.271  -1.735   2.185  0.00  0.00    +0.316 C 
ATOM     10  O   UNL     1       2.425  -2.418   1.641  0.00  0.00    -0.252 OA
ATOM     11  H   UNL     1       3.542  -3.050   3.669  0.00  0.00    +0.159 HD
ENDROOT
BRANCH   5  12
ATOM     12  N   UNL     1       6.613   1.695   3.425  0.00  0.00    -0.349 N 
ATOM     13  H   UNL     1       6.344   1.897   2.515  0.00  0.00    +0.146 HD
BRANCH  12  14
ATOM     14  C   UNL     1       7.536   2.587   4.131  0.00  0.00    +0.105 C 
BRANCH  14  15
ATOM     15  C   UNL     1       7.920   3.751   3.215  0.00  0.00    +0.052 C 
BRANCH  15  16
ATOM     16  C   UNL     1       8.869   4.669   3.942  0.00  0.00    -0.040 C 
ATOM     17  C   UNL     1      10.220   4.655   3.880  0.00  0.00    +0.002 A 
ATOM     18  C   UNL     1      11.175   3.814   3.149  0.00  0.00    +0.055 A 
ATOM     19  C   UNL     1      12.503   4.039   3.288  0.00  0.00    +0.118 A 
ATOM     20  C   UNL     1      13.011   5.057   4.113  0.00  0.00    +0.047 A 
ATOM     21  C   UNL     1      12.212   5.881   4.825  0.00  0.00    +0.029 A 
ATOM     22  C   UNL     1      10.756   5.728   4.750  0.00  0.00    +0.043 A 
ATOM     23  N   UNL     1       9.776   6.378   5.325  0.00  0.00    -0.380 N 
ATOM     24  C   UNL     1       8.504   5.797   4.881  0.00  0.00    +0.144 C 
ATOM     25  H   UNL     1       9.874   7.123   5.939  0.00  0.00    +0.160 HD
BRANCH  19  26
ATOM     26  O   UNL     1      13.376   3.252   2.605  0.00  0.00    -0.507 OA
ATOM     27  H   UNL     1      13.604   3.587   1.727  0.00  0.00    +0.292 HD
ENDBRANCH  19  26
ENDBRANCH  15  16
ENDBRANCH  14  15
ENDBRANCH  12  14
ENDBRANCH   5  12
BRANCH   1  28
ATOM     28  C   UNL     1       2.940  -0.159   0.377  0.00  0.00    +0.153 C 
BRANCH  28  32
ATOM     29  C   UNL     1      -0.573   2.087   1.306  0.00  0.00    +0.000 A 
ATOM     30  C   UNL     1       0.639   2.734   1.146  0.00  0.00    +0.000 A 
ATOM     31  C   UNL     1       1.775   2.007   0.845  0.00  0.00    +0.005 A 
ATOM     32  C   UNL     1       1.701   0.634   0.706  0.00  0.00    -0.030 A 
ATOM     33  C   UNL     1       0.490  -0.013   0.867  0.00  0.00    +0.005 A 
ATOM     34  C   UNL     1      -0.647   0.714   1.167  0.00  0.00    +0.000 A 
ENDBRANCH  28  32
ENDBRANCH   1  28
TORSDOF 7
