REMARK  Name = ZINC35664409
REMARK  10 active torsions:
REMARK  status: ('A' for Active; 'I' for Inactive)
REMARK    1  A    between atoms: C_1  and  C_2
REMARK    2  A    between atoms: C_2  and  N_3
REMARK    3  A    between atoms: C_4  and  C_21
REMARK    4  A    between atoms: C_5  and  C_16
REMARK    5  A    between atoms: C_6  and  C_11
REMARK    6  A    between atoms: C_16  and  O_18
REMARK    7  A    between atoms: O_18  and  C_19
REMARK    8  A    between atoms: C_19  and  C_20
REMARK    9  A    between atoms: C_21  and  N_22
REMARK   10  A    between atoms: C_29  and  C_31
REMARK                            x       y       z     vdW  Elec       q    Type
REMARK                         _______ _______ _______ _____ _____    ______ ____
ROOT
ATOM      1  N   UNL     1       0.830  -0.429  -2.106  0.00  0.00    -0.261 N 
ATOM      2  C   UNL     1      -0.146  -1.338  -2.400  0.00  0.00    +0.010 C 
ATOM      3  C   UNL     1       0.163  -2.559  -2.888  0.00  0.00    +0.076 C 
ATOM      4  C   UNL     1       1.628  -2.885  -3.097  0.00  0.00    +0.144 C 
ATOM      5  N   UNL     1       2.601  -1.836  -2.749  0.00  0.00    -0.288 N 
ATOM      6  C   UNL     1       2.137  -0.662  -2.276  0.00  0.00    +0.307 C 
ATOM      7  O   UNL     1       2.932   0.211  -1.990  0.00  0.00    -0.252 OA
ATOM      8  H   UNL     1       3.553  -1.985  -2.862  0.00  0.00    +0.151 HD
ENDROOT
BRANCH   4   9
ATOM      9  C   UNL     1       1.953  -4.109  -2.280  0.00  0.00    -0.015 A 
ATOM     10  C   UNL     1       2.023  -5.353  -2.878  0.00  0.00    +0.013 A 
ATOM     11  C   UNL     1       2.318  -6.434  -2.115  0.00  0.00    +0.045 A 
ATOM     12  S   UNL     1       2.508  -5.702  -0.497  0.00  0.00    -0.105 S 
ATOM     13  C   UNL     1       2.187  -4.005  -0.949  0.00  0.00    +0.051 A 
ENDBRANCH   4   9
BRANCH   1  15
ATOM     14  C   UNL     1       0.057   1.802  -2.741  0.00  0.00    +0.025 C 
ATOM     15  C   UNL     1       0.423   0.876  -1.580  0.00  0.00    +0.111 C 
ENDBRANCH   1  15
BRANCH   3  16
ATOM     16  C   UNL     1      -0.847  -3.502  -3.192  0.00  0.00    +0.339 C 
ATOM     17  O   UNL     1      -2.019  -3.205  -3.051  0.00  0.00    -0.245 OA
BRANCH  16  18
ATOM     18  O   UNL     1      -0.511  -4.730  -3.639  0.00  0.00    -0.462 OA
BRANCH  18  19
ATOM     19  C   UNL     1      -1.582  -5.631  -3.927  0.00  0.00    +0.229 C 
ATOM     20  C   UNL     1      -1.010  -6.963  -4.417  0.00  0.00    +0.048 C 
ENDBRANCH  18  19
ENDBRANCH  16  18
ENDBRANCH   3  16
BRANCH   2  21
ATOM     21  C   UNL     1      -1.591  -0.973  -2.176  0.00  0.00    -0.026 C 
BRANCH  21  22
ATOM     22  N   UNL     1      -2.066  -1.595  -0.933  0.00  0.00    +0.384 N 
ATOM     23  C   UNL     1      -3.521  -1.468  -0.881  0.00  0.00    -0.077 C 
ATOM     24  C   UNL     1      -4.096  -2.627  -0.099  0.00  0.00    +0.000 C 
ATOM     25  C   UNL     1      -4.261  -2.219   1.377  0.00  0.00    +0.106 C 
ATOM     26  N   UNL     1      -3.114  -1.408   1.834  0.00  0.00    -0.299 N 
ATOM     27  C   UNL     1      -1.748  -1.722   1.471  0.00  0.00    +0.089 C 
ATOM     28  C   UNL     1      -1.378  -1.007   0.151  0.00  0.00    -0.059 C 
ATOM     29  C   UNL     1      -3.348  -0.336   2.617  0.00  0.00    +0.249 C 
ATOM     30  O   UNL     1      -2.430   0.393   2.940  0.00  0.00    -0.270 OA
ATOM     31  H   UNL     1      -1.836  -2.577  -0.962  0.00  0.00    -0.081 HD
BRANCH  29  32
ATOM     32  C   UNL     1      -4.720  -0.047   3.083  0.00  0.00    +0.072 A 
ATOM     33  C   UNL     1      -5.436  -1.010   3.798  0.00  0.00    +0.016 A 
ATOM     34  C   UNL     1      -6.715  -0.733   4.230  0.00  0.00    +0.001 A 
ATOM     35  C   UNL     1      -7.293   0.495   3.958  0.00  0.00    +0.003 A 
ATOM     36  C   UNL     1      -6.593   1.454   3.251  0.00  0.00    +0.039 A 
ATOM     37  C   UNL     1      -5.306   1.194   2.816  0.00  0.00    +0.135 A 
ATOM     38  F   UNL     1      -4.619   2.134   2.129  0.00  0.00    -0.205 F 
ENDBRANCH  29  32
ENDBRANCH  21  22
ENDBRANCH   2  21
TORSDOF 8
