REMARK  Name = ZINC51927122
REMARK  7 active torsions:
REMARK  status: ('A' for Active; 'I' for Inactive)
REMARK    1  A    between atoms: C_1  and  C_2
REMARK    2  A    between atoms: C_3  and  C_15
REMARK    3  A    between atoms: N_4  and  C_7
REMARK    4  A    between atoms: C_7  and  C_8
REMARK    5  A    between atoms: C_8  and  C_10
REMARK    6  A    between atoms: C_8  and  C_11
REMARK    7  A    between atoms: N_12  and  O_13
REMARK                            x       y       z     vdW  Elec       q    Type
REMARK                         _______ _______ _______ _____ _____    ______ ____
ROOT
ATOM      1  C   UNL     1       0.041  -3.288  -1.484  0.00  0.00    +0.133 C 
ENDROOT
BRANCH   1   5
ATOM      2  C   UNL     1      -0.018   1.503   0.010  0.00  0.00    +0.065 C 
ATOM      3  C   UNL     1       0.002  -0.004   0.002  0.00  0.00    +0.033 A 
ATOM      4  C   UNL     1       0.008  -0.789  -1.092  0.00  0.00    +0.036 A 
ATOM      5  N   UNL     1       0.028  -2.085  -0.650  0.00  0.00    -0.335 N 
ATOM      6  C   UNL     1       0.034  -2.046   0.700  0.00  0.00    +0.174 A 
ATOM      7  N   UNL     1       0.024  -0.798   1.083  0.00  0.00    -0.350 N 
ATOM      8  C   UNL     1      -0.006  -0.331  -2.527  0.00  0.00    +0.065 C 
ATOM      9  H   UNL     1       0.029  -0.493   2.004  0.00  0.00    +0.166 HD
ENDBRANCH   1   5
BRANCH   1  10
ATOM     10  C   UNL     1       1.481  -3.615  -1.885  0.00  0.00    +0.072 C 
ATOM     11  C   UNL     1       2.029  -2.499  -2.777  0.00  0.00    +0.017 C 
BRANCH  10  12
ATOM     12  C   UNL     1       1.508  -4.920  -2.640  0.00  0.00    +0.136 C 
ATOM     13  N   UNL     1       1.475  -4.919  -3.932  0.00  0.00    -0.076 NA
ATOM     14  N   UNL     1       1.569  -6.112  -1.953  0.00  0.00    -0.344 N 
ATOM     15  H   UNL     1       1.593  -6.112  -0.984  0.00  0.00    +0.144 HD
ATOM     16  H   UNL     1       1.586  -6.951  -2.439  0.00  0.00    +0.144 HD
BRANCH  13  17
ATOM     17  O   UNL     1       1.501  -6.144  -4.641  0.00  0.00    -0.408 OA
ATOM     18  H   UNL     1       1.473  -6.043  -5.602  0.00  0.00    +0.328 HD
ENDBRANCH  13  17
ENDBRANCH  10  12
ENDBRANCH   1  10
TORSDOF 4
