REMARK  Name = ZINC42812714
REMARK  5 active torsions:
REMARK  status: ('A' for Active; 'I' for Inactive)
REMARK    1  A    between atoms: C_5  and  O_17
REMARK    2  A    between atoms: C_6  and  C_7
REMARK    3  A    between atoms: C_7  and  N_8
REMARK    4  A    between atoms: N_8  and  C_9
REMARK    5  A    between atoms: C_9  and  C_10
REMARK                            x       y       z     vdW  Elec       q    Type
REMARK                         _______ _______ _______ _____ _____    ______ ____
ROOT
ATOM      1  C   UNL     1      -1.292  -0.776   0.011  0.00  0.00    -0.043 C 
ENDROOT
BRANCH   1   7
ATOM      2  C   UNL     1      -0.017   1.377   0.010  0.00  0.00    +0.025 A 
ATOM      3  C   UNL     1       1.171   2.087   0.002  0.00  0.00    +0.043 A 
ATOM      4  C   UNL     1       2.381   1.415  -0.013  0.00  0.00    +0.043 A 
ATOM      5  C   UNL     1       2.404   0.032  -0.021  0.00  0.00    +0.084 A 
ATOM      6  C   UNL     1       1.213  -0.680  -0.013  0.00  0.00    +0.136 A 
ATOM      7  C   UNL     1       0.002  -0.004   0.002  0.00  0.00    -0.020 A 
ATOM      8 CL   UNL     1       3.921  -0.811  -0.040  0.00  0.00    -0.080 Cl
ATOM      9 CL   UNL     1       1.145   3.822   0.011  0.00  0.00    -0.083 Cl
BRANCH   6  10
ATOM     10  O   UNL     1       1.233  -2.040  -0.021  0.00  0.00    -0.505 OA
ATOM     11  H   UNL     1       1.248  -2.438   0.860  0.00  0.00    +0.292 HD
ENDBRANCH   6  10
ENDBRANCH   1   7
BRANCH   1  12
ATOM     12  N   UNL     1      -1.576  -1.240   1.375  0.00  0.00    +0.383 N 
ATOM     13  H   UNL     1      -0.827  -1.838   1.690  0.00  0.00    -0.085 HD
ATOM     14  H   UNL     1      -1.654  -0.445   1.992  0.00  0.00    -0.085 HD
BRANCH  12  15
ATOM     15  C   UNL     1      -2.838  -1.992   1.384  0.00  0.00    -0.050 C 
BRANCH  15  16
ATOM     16  C   UNL     1      -3.134  -2.476   2.805  0.00  0.00    +0.101 C 
ATOM     17  C   UNL     1      -4.449  -3.260   2.814  0.00  0.00    +0.030 C 
ATOM     18  C   UNL     1      -4.707  -3.792   4.227  0.00  0.00    +0.005 C 
ATOM     19  C   UNL     1      -3.515  -4.650   4.663  0.00  0.00    +0.028 C 
ATOM     20  C   UNL     1      -2.237  -3.812   4.583  0.00  0.00    +0.160 C 
ATOM     21  O   UNL     1      -2.072  -3.323   3.250  0.00  0.00    -0.378 OA
ENDBRANCH  15  16
ENDBRANCH  12  15
ENDBRANCH   1  12
TORSDOF 5
