REMARK  Name = ZINC38971848
REMARK  5 active torsions:
REMARK  status: ('A' for Active; 'I' for Inactive)
REMARK    1  A    between atoms: C_1  and  C_2
REMARK    2  A    between atoms: C_7  and  N_8
REMARK    3  A    between atoms: N_8  and  C_9
REMARK    4  A    between atoms: N_12  and  S_13
REMARK    5  A    between atoms: S_13  and  C_16
REMARK                            x       y       z     vdW  Elec       q    Type
REMARK                         _______ _______ _______ _____ _____    ______ ____
ROOT
ATOM      1  C   UNL     1      -0.063  -0.754   3.677  0.00  0.00    +0.237 C 
ATOM      2  C   UNL     1      -1.222  -0.186   4.464  0.00  0.00    +0.192 C 
ATOM      3  N   UNL     1      -2.421  -0.178   3.960  0.00  0.00    -0.110 NA
ATOM      4  N   UNL     1      -0.996   0.310   5.691  0.00  0.00    -0.226 NA
ATOM      5  C   UNL     1       0.208   0.313   6.223  0.00  0.00    +0.089 A 
ATOM      6  C   UNL     1       0.411   0.846   7.522  0.00  0.00    +0.030 A 
ATOM      7  C   UNL     1       1.645   0.852   8.073  0.00  0.00    +0.002 A 
ATOM      8  C   UNL     1       2.775   0.344   7.410  0.00  0.00    +0.002 A 
ATOM      9  C   UNL     1       2.693  -0.185   6.170  0.00  0.00    +0.027 A 
ATOM     10  C   UNL     1       1.385  -0.230   5.500  0.00  0.00    +0.063 A 
ATOM     11  N   UNL     1       1.268  -0.733   4.304  0.00  0.00    -0.359 N 
ATOM     12  H   UNL     1       2.042  -1.087   3.838  0.00  0.00    +0.162 HD
ENDROOT
BRANCH   3  13
ATOM     13  S   UNL     1      -3.682   0.448   4.833  0.00  0.00    +0.102 S 
ATOM     14  O   UNL     1      -3.862  -0.405   5.955  0.00  0.00    -0.146 OA
ATOM     15  O   UNL     1      -3.432   1.840   4.967  0.00  0.00    -0.146 OA
BRANCH  13  16
ATOM     16  C   UNL     1      -5.130   0.289   3.842  0.00  0.00    +0.132 A 
ATOM     17  C   UNL     1      -6.163  -0.533   4.254  0.00  0.00    +0.050 A 
ATOM     18  C   UNL     1      -7.300  -0.657   3.476  0.00  0.00    +0.043 A 
ATOM     19  C   UNL     1      -7.404   0.041   2.286  0.00  0.00    +0.021 A 
ATOM     20  C   UNL     1      -6.372   0.862   1.874  0.00  0.00    +0.023 A 
ATOM     21  C   UNL     1      -5.237   0.991   2.655  0.00  0.00    +0.068 A 
ATOM     22 CL   UNL     1      -3.943   2.029   2.142  0.00  0.00    -0.082 Cl
ATOM     23 CL   UNL     1      -8.596  -1.690   3.993  0.00  0.00    -0.083 Cl
ENDBRANCH  13  16
ENDBRANCH   3  13
BRANCH   1  24
ATOM     24  N   UNL     1       0.026  -0.016   2.415  0.00  0.00    -0.318 N 
ATOM     25  H   UNL     1       0.050   0.954   2.421  0.00  0.00    +0.148 HD
BRANCH  24  32
ATOM     26  C   UNL     1      -0.096   1.490   0.005  0.00  0.00    +0.045 C 
ATOM     27  C   UNL     1       0.019  -0.013   0.002  0.00  0.00    -0.029 A 
ATOM     28  C   UNL     1       0.075  -0.699  -1.196  0.00  0.00    +0.006 A 
ATOM     29  C   UNL     1       0.181  -2.077  -1.200  0.00  0.00    +0.020 A 
ATOM     30  C   UNL     1       0.232  -2.774  -0.005  0.00  0.00    +0.043 A 
ATOM     31  C   UNL     1       0.176  -2.093   1.196  0.00  0.00    +0.043 A 
ATOM     32  C   UNL     1       0.076  -0.708   1.203  0.00  0.00    +0.033 A 
ATOM     33 CL   UNL     1       0.365  -4.505  -0.015  0.00  0.00    -0.083 Cl
ENDBRANCH  24  32
ENDBRANCH   1  24
TORSDOF 4
