REMARK  Name = ZINC20102606
REMARK  12 active torsions:
REMARK  status: ('A' for Active; 'I' for Inactive)
REMARK    1  A    between atoms: C_1  and  O_2
REMARK    2  A    between atoms: O_2  and  C_3
REMARK    3  A    between atoms: C_6  and  C_10
REMARK    4  A    between atoms: C_8  and  O_9
REMARK    5  A    between atoms: C_17  and  O_18
REMARK    6  A    between atoms: C_25  and  C_28
REMARK    7  A    between atoms: C_30  and  O_38
REMARK    8  A    between atoms: C_31  and  O_36
REMARK    9  A    between atoms: C_32  and  O_34
REMARK   10  A    between atoms: O_34  and  C_35
REMARK   11  A    between atoms: O_36  and  C_37
REMARK   12  A    between atoms: O_38  and  C_39
REMARK                            x       y       z     vdW  Elec       q    Type
REMARK                         _______ _______ _______ _____ _____    ______ ____
ROOT
ATOM      1  C   UNL     1       2.507  -2.501  -4.386  0.00  0.00    +0.092 C 
ATOM      2  C   UNL     1       1.813  -2.094  -5.655  0.00  0.00    +0.067 A 
ATOM      3  C   UNL     1       2.369  -1.216  -6.547  0.00  0.00    +0.126 A 
ATOM      4  N   UNL     1       1.502  -1.060  -7.565  0.00  0.00    -0.260 N 
ATOM      5  H   UNL     1       1.628  -0.493  -8.342  0.00  0.00    +0.190 HD
ATOM      6  N   UNL     1       0.381  -1.863  -7.299  0.00  0.00    -0.134 NA
ATOM      7  C   UNL     1       0.573  -2.480  -6.154  0.00  0.00    +0.237 A 
ATOM      8  N   UNL     1       3.623  -0.657  -6.327  0.00  0.00    -0.303 N 
ATOM      9  C   UNL     1       4.430  -1.217  -5.369  0.00  0.00    +0.017 C 
ATOM     10  C   UNL     1       3.960  -2.079  -4.443  0.00  0.00    +0.024 C 
ATOM     11  C   UNL     1       4.815  -2.628  -3.471  0.00  0.00    +0.162 C 
ATOM     12  O   UNL     1       4.364  -3.407  -2.654  0.00  0.00    -0.292 OA
ATOM     13  C   UNL     1       6.275  -2.275  -3.419  0.00  0.00    +0.088 C 
ATOM     14  C   UNL     1       6.463  -0.862  -3.983  0.00  0.00    +0.032 C 
ATOM     15  C   UNL     1       5.892  -0.833  -5.398  0.00  0.00    +0.059 C 
ATOM     16  H   UNL     1       3.920   0.111  -6.840  0.00  0.00    +0.153 HD
ENDROOT
BRANCH   1  20
ATOM     17  C   UNL     1       0.606  -0.608  -1.056  0.00  0.00    +0.161 A 
ATOM     18  C   UNL     1       1.173   0.159  -2.062  0.00  0.00    +0.050 A 
ATOM     19  C   UNL     1       1.787  -0.456  -3.137  0.00  0.00    +0.008 A 
ATOM     20  C   UNL     1       1.837  -1.836  -3.212  0.00  0.00    -0.032 A 
ATOM     21  C   UNL     1       1.273  -2.606  -2.212  0.00  0.00    +0.053 A 
ATOM     22  C   UNL     1       0.662  -1.996  -1.129  0.00  0.00    +0.159 A 
BRANCH  17  24
ATOM     23  C   UNL     1      -0.017   1.425   0.010  0.00  0.00    +0.277 C 
ATOM     24  O   UNL     1       0.002  -0.004   0.002  0.00  0.00    -0.491 OA
ENDBRANCH  17  24
BRANCH  22  25
ATOM     25  O   UNL     1       0.112  -2.753  -0.142  0.00  0.00    -0.503 OA
ATOM     26  H   UNL     1      -0.816  -2.979  -0.291  0.00  0.00    +0.292 HD
ENDBRANCH  22  25
ENDBRANCH   1  20
BRANCH  14  27
ATOM     27  C   UNL     1       7.930  -0.520  -4.019  0.00  0.00    -0.036 A 
ATOM     28  C   UNL     1       8.799  -1.290  -4.769  0.00  0.00    +0.053 A 
ATOM     29  C   UNL     1      10.150  -0.978  -4.804  0.00  0.00    +0.165 A 
ATOM     30  C   UNL     1      10.629   0.110  -4.084  0.00  0.00    +0.204 A 
ATOM     31  C   UNL     1       9.752   0.881  -3.332  0.00  0.00    +0.165 A 
ATOM     32  C   UNL     1       8.402   0.566  -3.306  0.00  0.00    +0.053 A 
BRANCH  31  33
ATOM     33  O   UNL     1      10.216   1.947  -2.625  0.00  0.00    -0.491 OA
ATOM     34  C   UNL     1       9.257   2.695  -1.875  0.00  0.00    +0.277 C 
ENDBRANCH  31  33
BRANCH  30  35
ATOM     35  O   UNL     1      11.954   0.418  -4.115  0.00  0.00    -0.488 OA
ATOM     36  C   UNL     1      12.387   1.319  -5.137  0.00  0.00    +0.277 C 
ENDBRANCH  30  35
BRANCH  29  37
ATOM     37  O   UNL     1      11.005  -1.737  -5.541  0.00  0.00    -0.491 OA
ATOM     38  C   UNL     1      10.442  -2.840  -6.255  0.00  0.00    +0.277 C 
ENDBRANCH  29  37
ENDBRANCH  14  27
BRANCH   7  39
ATOM     39  O   UNL     1      -0.291  -3.346  -5.560  0.00  0.00    -0.491 OA
ATOM     40  H   UNL     1      -0.923  -2.924  -4.962  0.00  0.00    +0.294 HD
ENDBRANCH   7  39
TORSDOF 8
