REMARK  Name = ZINC52565987
REMARK  6 active torsions:
REMARK  status: ('A' for Active; 'I' for Inactive)
REMARK    1  A    between atoms: C_4  and  O_7
REMARK    2  A    between atoms: O_7  and  C_8
REMARK    3  A    between atoms: C_13  and  N_14
REMARK    4  A    between atoms: N_17  and  C_18
REMARK    5  A    between atoms: C_22  and  C_24
REMARK    6  A    between atoms: C_27  and  C_33
REMARK                            x       y       z     vdW  Elec       q    Type
REMARK                         _______ _______ _______ _____ _____    ______ ____
ROOT
ATOM      1  C   UNL     1       9.440  -2.728  -0.154  0.00  0.00    +0.035 A 
ATOM      2  C   UNL     1       9.349  -4.112  -0.262  0.00  0.00    +0.023 A 
ATOM      3  C   UNL     1      10.494  -4.881  -0.368  0.00  0.00    +0.002 A 
ATOM      4  C   UNL     1      11.736  -4.284  -0.368  0.00  0.00    +0.008 A 
ATOM      5  C   UNL     1      11.841  -2.889  -0.260  0.00  0.00    -0.018 A 
ATOM      6  C   UNL     1      10.679  -2.111  -0.158  0.00  0.00    +0.031 A 
ENDROOT
BRANCH   5   7
ATOM      7  C   UNL     1      13.157  -2.249  -0.259  0.00  0.00    -0.011 C 
ATOM      8  C   UNL     1      13.541  -1.119   0.452  0.00  0.00    +0.023 A 
ATOM      9  C   UNL     1      12.849  -0.273   1.342  0.00  0.00    +0.023 A 
ATOM     10  C   UNL     1      13.541   0.799   1.897  0.00  0.00    +0.015 A 
ATOM     11  C   UNL     1      14.896   1.014   1.563  0.00  0.00    +0.122 A 
ATOM     12  N   UNL     1      15.544   0.238   0.741  0.00  0.00    -0.237 NA
ATOM     13  C   UNL     1      14.957  -0.829   0.152  0.00  0.00    +0.135 A 
ATOM     14  N   UNL     1      15.435  -1.715  -0.690  0.00  0.00    -0.365 N 
ATOM     15  C   UNL     1      14.386  -2.682  -1.026  0.00  0.00    +0.151 C 
ATOM     16  H   UNL     1      16.342  -1.730  -1.033  0.00  0.00    +0.161 HD
BRANCH  10  17
ATOM     17  C   UNL     1      12.862   1.707   2.828  0.00  0.00    +0.054 C 
ATOM     18  N   UNL     1      11.624   1.634   3.233  0.00  0.00    -0.259 NA
ATOM     19  C   UNL     1      11.286   2.615   4.093  0.00  0.00    +0.107 C 
ATOM     20  C   UNL     1      12.297   3.446   4.340  0.00  0.00    -0.001 C 
ATOM     21  C   UNL     1      13.460   2.917   3.521  0.00  0.00    +0.084 C 
ENDBRANCH  10  17
ENDBRANCH   5   7
BRANCH   1  25
ATOM     22  N   UNL     1       6.051  -1.746   0.628  0.00  0.00    -0.266 N 
ATOM     23  C   UNL     1       7.210  -2.436   0.623  0.00  0.00    +0.308 C 
ATOM     24  O   UNL     1       7.292  -3.490   1.224  0.00  0.00    -0.252 OA
ATOM     25  N   UNL     1       8.276  -1.957  -0.048  0.00  0.00    -0.269 N 
ATOM     26  H   UNL     1       6.003  -0.877   0.201  0.00  0.00    +0.156 HD
ATOM     27  H   UNL     1       8.237  -1.078  -0.457  0.00  0.00    +0.156 HD
BRANCH  22  33
ATOM     28  C   UNL     1       3.650  -2.041   0.725  0.00  0.00    +0.150 A 
ATOM     29  C   UNL     1       2.533  -2.583   1.341  0.00  0.00    +0.048 A 
ATOM     30  C   UNL     1       2.677  -3.359   2.476  0.00  0.00    +0.004 A 
ATOM     31  C   UNL     1       3.934  -3.598   3.000  0.00  0.00    +0.002 A 
ATOM     32  C   UNL     1       5.053  -3.061   2.392  0.00  0.00    +0.027 A 
ATOM     33  C   UNL     1       4.918  -2.286   1.250  0.00  0.00    +0.077 A 
BRANCH  28  34
ATOM     34  O   UNL     1       3.511  -1.278  -0.391  0.00  0.00    -0.454 OA
BRANCH  34  38
ATOM     35  C   UNL     1      -0.311  -0.354  -1.640  0.00  0.00    +0.000 A 
ATOM     36  C   UNL     1       0.165   0.150  -0.444  0.00  0.00    +0.004 A 
ATOM     37  C   UNL     1       1.444  -0.158  -0.023  0.00  0.00    +0.046 A 
ATOM     38  C   UNL     1       2.252  -0.974  -0.802  0.00  0.00    +0.129 A 
ATOM     39  C   UNL     1       1.772  -1.478  -2.003  0.00  0.00    +0.046 A 
ATOM     40  C   UNL     1       0.492  -1.167  -2.419  0.00  0.00    +0.004 A 
ENDBRANCH  34  38
ENDBRANCH  28  34
ENDBRANCH  22  33
ENDBRANCH   1  25
TORSDOF 6
