REMARK  Name = ZINC35666532
REMARK  13 active torsions:
REMARK  status: ('A' for Active; 'I' for Inactive)
REMARK    1  A    between atoms: C_1  and  C_2
REMARK    2  A    between atoms: C_2  and  C_3
REMARK    3  A    between atoms: C_2  and  C_4
REMARK    4  A    between atoms: C_4  and  C_6
REMARK    5  A    between atoms: C_4  and  N_28
REMARK    6  A    between atoms: C_10  and  O_26
REMARK    7  A    between atoms: C_11  and  O_24
REMARK    8  A    between atoms: N_19  and  C_20
REMARK    9  A    between atoms: C_20  and  C_21
REMARK   10  A    between atoms: C_20  and  C_22
REMARK   11  A    between atoms: C_20  and  C_23
REMARK   12  A    between atoms: O_24  and  C_25
REMARK   13  A    between atoms: O_26  and  C_27
REMARK                            x       y       z     vdW  Elec       q    Type
REMARK                         _______ _______ _______ _____ _____    ______ ____
ROOT
ATOM      1  C   UNL     1       0.022   0.181  -2.745  0.00  0.00    +0.094 C 
ATOM      2  C   UNL     1      -1.326  -0.492  -2.664  0.00  0.00    -0.022 A 
ATOM      3  C   UNL     1      -2.204  -0.063  -1.678  0.00  0.00    +0.055 A 
ATOM      4  C   UNL     1      -3.450  -0.646  -1.545  0.00  0.00    +0.162 A 
ATOM      5  C   UNL     1      -3.824  -1.673  -2.408  0.00  0.00    +0.162 A 
ATOM      6  C   UNL     1      -2.948  -2.093  -3.390  0.00  0.00    +0.053 A 
ATOM      7  C   UNL     1      -1.698  -1.500  -3.525  0.00  0.00    -0.037 A 
ATOM      8  C   UNL     1      -0.809  -1.994  -4.637  0.00  0.00    +0.054 C 
ATOM      9  C   UNL     1       0.649  -1.622  -4.374  0.00  0.00    +0.114 C 
ATOM     10  N   UNL     1       0.691  -0.202  -3.992  0.00  0.00    -0.280 N 
ATOM     11  C   UNL     1       1.321   0.711  -4.759  0.00  0.00    +0.303 C 
ATOM     12  O   UNL     1       1.439   1.856  -4.367  0.00  0.00    -0.253 OA
ATOM     13  N   UNL     1       1.820   0.354  -5.959  0.00  0.00    -0.294 N 
ATOM     14  H   UNL     1       1.666  -0.541  -6.301  0.00  0.00    +0.151 HD
ENDROOT
BRANCH  13  15
ATOM     15  C   UNL     1       2.594   1.317  -6.746  0.00  0.00    +0.028 C 
ATOM     16  C   UNL     1       3.825   1.754  -5.949  0.00  0.00    +0.031 C 
ATOM     17  C   UNL     1       3.040   0.663  -8.056  0.00  0.00    +0.031 C 
ATOM     18  C   UNL     1       1.726   2.538  -7.055  0.00  0.00    +0.031 C 
ENDBRANCH  13  15
BRANCH   5  19
ATOM     19  O   UNL     1      -5.045  -2.259  -2.284  0.00  0.00    -0.491 OA
ATOM     20  C   UNL     1      -5.358  -3.306  -3.205  0.00  0.00    +0.277 C 
ENDBRANCH   5  19
BRANCH   4  21
ATOM     21  O   UNL     1      -4.306  -0.221  -0.577  0.00  0.00    -0.491 OA
ATOM     22  C   UNL     1      -3.898   0.908   0.199  0.00  0.00    +0.277 C 
ENDBRANCH   4  21
BRANCH   1  23
ATOM     23  C   UNL     1       0.879  -0.251  -1.553  0.00  0.00    -0.047 C 
BRANCH  23  24
ATOM     24  N   UNL     1       1.239  -1.668  -1.698  0.00  0.00    +0.382 N 
ATOM     25  H   UNL     1       1.476  -2.049  -0.794  0.00  0.00    -0.090 HD
ATOM     26  H   UNL     1       0.457  -2.176  -2.083  0.00  0.00    -0.090 HD
ATOM     27  H   UNL     1       2.032  -1.752  -2.317  0.00  0.00    -0.090 HD
ENDBRANCH  23  24
BRANCH  23  29
ATOM     28  C   UNL     1       3.068   0.206  -2.667  0.00  0.00    +0.005 C 
ATOM     29  C   UNL     1       2.151   0.597  -1.506  0.00  0.00    -0.030 C 
ATOM     30  C   UNL     1       1.783   2.077  -1.623  0.00  0.00    +0.005 C 
ENDBRANCH  23  29
ENDBRANCH   1  23
TORSDOF 6
