REMARK  Name = ZINC00881836
REMARK  9 active torsions:
REMARK  status: ('A' for Active; 'I' for Inactive)
REMARK    1  A    between atoms: C_1  and  C_2
REMARK    2  A    between atoms: C_4  and  O_29
REMARK    3  A    between atoms: C_8  and  C_21
REMARK    4  A    between atoms: C_14  and  C_19
REMARK    5  A    between atoms: C_14  and  C_20
REMARK    6  A    between atoms: C_24  and  O_27
REMARK    7  A    between atoms: O_27  and  C_28
REMARK    8  A    between atoms: O_29  and  C_30
REMARK    9  A    between atoms: C_30  and  C_32
REMARK                            x       y       z     vdW  Elec       q    Type
REMARK                         _______ _______ _______ _____ _____    ______ ____
ROOT
ATOM      1  C   UNL     1      -1.310   0.193   1.610  0.00  0.00    +0.044 C 
ATOM      2  C   UNL     1      -2.750   0.563   1.853  0.00  0.00    -0.040 A 
ATOM      3  C   UNL     1      -3.254   0.551   3.139  0.00  0.00    +0.050 A 
ATOM      4  C   UNL     1      -4.580   0.892   3.366  0.00  0.00    +0.135 A 
ATOM      5  C   UNL     1      -5.392   1.242   2.302  0.00  0.00    +0.092 A 
ATOM      6  C   UNL     1      -4.883   1.256   1.009  0.00  0.00    +0.131 A 
ATOM      7  C   UNL     1      -3.560   0.914   0.786  0.00  0.00    +0.005 A 
ATOM      8  C   UNL     1      -2.971   0.910  -0.602  0.00  0.00    +0.058 C 
ATOM      9  C   UNL     1      -3.864   1.721  -1.544  0.00  0.00    +0.081 C 
ATOM     10  C   UNL     1      -5.315   1.270  -1.337  0.00  0.00    +0.180 C 
ATOM     11  O   UNL     1      -5.711   1.610  -0.009  0.00  0.00    -0.468 OA
ATOM     12  C   UNL     1      -5.410  -0.245  -1.532  0.00  0.00    +0.094 C 
ATOM     13  C   UNL     1      -6.883  -0.658  -1.431  0.00  0.00    +0.033 C 
ATOM     14  N   UNL     1      -7.665   0.115  -2.397  0.00  0.00    -0.321 N 
ATOM     15  C   UNL     1      -7.291   1.347  -2.773  0.00  0.00    +0.133 C 
ATOM     16  S   UNL     1      -8.267   2.196  -3.894  0.00  0.00    -0.019 S 
ATOM     17  N   UNL     1      -6.183   1.940  -2.304  0.00  0.00    -0.289 N 
ATOM     18  C   UNL     1      -7.018  -2.150  -1.741  0.00  0.00    +0.031 C 
ATOM     19  C   UNL     1      -7.396  -0.380  -0.017  0.00  0.00    +0.031 C 
ATOM     20  H   UNL     1      -8.471  -0.272  -2.772  0.00  0.00    +0.148 HD
ATOM     21  H   UNL     1      -5.952   2.830  -2.613  0.00  0.00    +0.151 HD
ENDROOT
BRANCH   8  22
ATOM     22  C   UNL     1      -1.595   1.524  -0.564  0.00  0.00    -0.039 A 
ATOM     23  C   UNL     1      -1.410   2.767   0.012  0.00  0.00    +0.008 A 
ATOM     24  C   UNL     1      -0.149   3.330   0.053  0.00  0.00    +0.046 A 
ATOM     25  C   UNL     1       0.931   2.649  -0.489  0.00  0.00    +0.120 A 
ATOM     26  C   UNL     1       0.742   1.404  -1.071  0.00  0.00    +0.046 A 
ATOM     27  C   UNL     1      -0.521   0.846  -1.110  0.00  0.00    +0.008 A 
BRANCH  25  28
ATOM     28  O   UNL     1       2.173   3.200  -0.450  0.00  0.00    -0.495 OA
ATOM     29  C   UNL     1       3.238   2.442  -1.028  0.00  0.00    +0.277 C 
ENDBRANCH  25  28
ENDBRANCH   8  22
BRANCH   4  30
ATOM     30  O   UNL     1      -5.080   0.880   4.630  0.00  0.00    -0.426 OA
BRANCH  30  31
ATOM     31  C   UNL     1      -5.874  -0.150   4.962  0.00  0.00    +0.309 C 
ATOM     32  O   UNL     1      -6.188  -0.965   4.126  0.00  0.00    -0.251 OA
ATOM     33  C   UNL     1      -6.374  -0.291   6.376  0.00  0.00    +0.136 C 
ENDBRANCH  30  31
ENDBRANCH   4  30
TORSDOF 4
