REMARK  Name = ZINC65426137
REMARK  6 active torsions:
REMARK  status: ('A' for Active; 'I' for Inactive)
REMARK    1  A    between atoms: C_6  and  C_7
REMARK    2  A    between atoms: N_11  and  C_16
REMARK    3  A    between atoms: C_13  and  O_15
REMARK    4  A    between atoms: C_16  and  C_17
REMARK    5  A    between atoms: C_20  and  C_22
REMARK    6  A    between atoms: C_22  and  O_23
REMARK                            x       y       z     vdW  Elec       q    Type
REMARK                         _______ _______ _______ _____ _____    ______ ____
ROOT
ATOM      1  C   UNL     1      -1.294  -0.774   0.010  0.00  0.00    +0.044 C 
ATOM      2  C   UNL     1      -2.116  -0.405  -1.228  0.00  0.00    -0.008 C 
ATOM      3  C   UNL     1      -3.463  -1.129  -1.173  0.00  0.00    -0.077 C 
ATOM      4  N   UNL     1      -4.190  -0.726   0.037  0.00  0.00    +0.386 N 
ATOM      5  C   UNL     1      -3.441  -1.140   1.229  0.00  0.00    -0.046 C 
ATOM      6  C   UNL     1      -2.092  -0.418   1.268  0.00  0.00    +0.105 C 
ATOM      7  H   UNL     1      -4.301   0.277   0.043  0.00  0.00    -0.081 HD
ENDROOT
BRANCH   1  13
ATOM      8  C   UNL     1      -0.017   1.378   0.010  0.00  0.00    +0.008 A 
ATOM      9  C   UNL     1       1.170   2.088   0.002  0.00  0.00    +0.050 A 
ATOM     10  C   UNL     1       2.380   1.416  -0.013  0.00  0.00    +0.166 A 
ATOM     11  C   UNL     1       2.399   0.023  -0.021  0.00  0.00    +0.166 A 
ATOM     12  C   UNL     1       1.207  -0.682  -0.014  0.00  0.00    +0.053 A 
ATOM     13  C   UNL     1       0.002  -0.004   0.002  0.00  0.00    -0.038 A 
ATOM     14  O   UNL     1       3.698  -0.395  -0.036  0.00  0.00    -0.453 OA
ATOM     15  C   UNL     1       4.466   0.750  -0.450  0.00  0.00    +0.466 C 
ATOM     16  O   UNL     1       3.668   1.870  -0.024  0.00  0.00    -0.453 OA
ENDBRANCH   1  13
BRANCH   6  17
ATOM     17  O   UNL     1      -1.363  -0.827   2.427  0.00  0.00    -0.393 OA
ATOM     18  H   UNL     1      -1.811  -0.632   3.262  0.00  0.00    +0.210 HD
ENDBRANCH   6  17
BRANCH   4  19
ATOM     19  C   UNL     1      -5.514  -1.363   0.046  0.00  0.00    -0.003 C 
BRANCH  19  20
ATOM     20  C   UNL     1      -6.332  -0.837  -1.105  0.00  0.00    +0.089 A 
ATOM     21  C   UNL     1      -6.382  -1.367  -2.341  0.00  0.00    +0.043 A 
ATOM     22  C   UNL     1      -7.267  -0.562  -3.095  0.00  0.00    +0.047 A 
ATOM     23  C   UNL     1      -7.704   0.411  -2.276  0.00  0.00    +0.130 A 
ATOM     24  O   UNL     1      -7.139   0.236  -1.070  0.00  0.00    -0.464 OA
BRANCH  23  25
ATOM     25  C   UNL     1      -8.669   1.508  -2.646  0.00  0.00    +0.230 C 
BRANCH  25  26
ATOM     26  O   UNL     1     -10.005   1.074  -2.387  0.00  0.00    -0.387 OA
ATOM     27  H   UNL     1     -10.681   1.731  -2.603  0.00  0.00    +0.210 HD
ENDBRANCH  25  26
ENDBRANCH  23  25
ENDBRANCH  19  20
ENDBRANCH   4  19
TORSDOF 6
