REMARK  Name = ZINC42736861
REMARK  11 active torsions:
REMARK  status: ('A' for Active; 'I' for Inactive)
REMARK    1  A    between atoms: C_1  and  C_2
REMARK    2  A    between atoms: C_2  and  C_4
REMARK    3  A    between atoms: C_2  and  N_8
REMARK    4  A    between atoms: C_4  and  C_5
REMARK    5  A    between atoms: C_4  and  C_6
REMARK    6  A    between atoms: C_4  and  C_7
REMARK    7  A    between atoms: N_8  and  C_9
REMARK    8  A    between atoms: N_8  and  C_10
REMARK    9  A    between atoms: C_10  and  C_11
REMARK   10  A    between atoms: N_13  and  C_14
REMARK   11  A    between atoms: C_17  and  N_21
REMARK                            x       y       z     vdW  Elec       q    Type
REMARK                         _______ _______ _______ _____ _____    ______ ____
ROOT
ATOM      1  C   UNL     1       2.047  -1.318  -3.030  0.00  0.00    +0.201 C 
ATOM      2  O   UNL     1       2.634  -0.358  -3.485  0.00  0.00    -0.278 OA
ATOM      3  N   UNL     1       2.430  -2.565  -3.369  0.00  0.00    -0.285 N 
ATOM      4  H   UNL     1       1.936  -3.331  -3.037  0.00  0.00    +0.155 HD
ENDROOT
BRANCH   3   5
ATOM      5  C   UNL     1       3.543  -2.755  -4.201  0.00  0.00    +0.070 A 
ATOM      6  C   UNL     1       4.707  -2.028  -3.982  0.00  0.00    +0.065 A 
ATOM      7  C   UNL     1       5.803  -2.215  -4.802  0.00  0.00    +0.044 A 
ATOM      8  C   UNL     1       5.742  -3.130  -5.845  0.00  0.00    +0.027 A 
ATOM      9  C   UNL     1       4.579  -3.857  -6.064  0.00  0.00    +0.044 A 
ATOM     10  C   UNL     1       3.484  -3.674  -5.241  0.00  0.00    +0.065 A 
ATOM     11 CL   UNL     1       2.033  -4.588  -5.510  0.00  0.00    -0.082 Cl
ATOM     12 CL   UNL     1       4.783  -0.884  -2.679  0.00  0.00    -0.082 Cl
BRANCH   8  13
ATOM     13  N   UNL     1       6.852  -3.320  -6.675  0.00  0.00    -0.358 N 
ATOM     14  H   UNL     1       7.664  -2.812  -6.522  0.00  0.00    +0.142 HD
ATOM     15  H   UNL     1       6.809  -3.959  -7.404  0.00  0.00    +0.142 HD
ENDBRANCH   8  13
ENDBRANCH   3   5
BRANCH   1  16
ATOM     16  C   UNL     1       0.890  -1.115  -2.086  0.00  0.00    +0.019 C 
BRANCH  16  17
ATOM     17  N   UNL     1       0.673   0.323  -1.879  0.00  0.00    +0.386 N 
ATOM     18  C   UNL     1      -0.088   0.872  -3.009  0.00  0.00    -0.095 C 
ATOM     19  H   UNL     1       1.565   0.791  -1.814  0.00  0.00    -0.081 HD
BRANCH  17  21
ATOM     20  C   UNL     1       0.870   0.419   0.561  0.00  0.00    -0.013 C 
ATOM     21  C   UNL     1      -0.079   0.530  -0.634  0.00  0.00    -0.066 C 
BRANCH  21  22
ATOM     22  C   UNL     1      -1.173  -0.534  -0.517  0.00  0.00    -0.050 C 
ATOM     23  C   UNL     1      -2.114  -0.173   0.634  0.00  0.00    +0.009 C 
ATOM     24  C   UNL     1      -1.966  -0.596  -1.824  0.00  0.00    +0.009 C 
ATOM     25  C   UNL     1      -0.532  -1.896  -0.244  0.00  0.00    +0.009 C 
ENDBRANCH  21  22
ENDBRANCH  17  21
ENDBRANCH  16  17
ENDBRANCH   1  16
TORSDOF 6
