REMARK  Name = ZINC38741611
REMARK  6 active torsions:
REMARK  status: ('A' for Active; 'I' for Inactive)
REMARK    1  A    between atoms: C_1  and  C_2
REMARK    2  A    between atoms: N_15  and  C_18
REMARK    3  A    between atoms: C_18  and  C_19
REMARK    4  A    between atoms: N_21  and  C_22
REMARK    5  A    between atoms: C_25  and  C_33
REMARK    6  A    between atoms: C_26  and  C_27
REMARK                            x       y       z     vdW  Elec       q    Type
REMARK                         _______ _______ _______ _____ _____    ______ ____
ROOT
ATOM      1  C   UNL     1       3.256  -7.160  -1.240  0.00  0.00    +0.019 C 
ENDROOT
BRANCH   1  16
ATOM      2  C   UNL     1       0.039   1.570  -0.151  0.00  0.00    +0.044 C 
ATOM      3  C   UNL     1       0.049   0.063  -0.137  0.00  0.00    -0.050 A 
ATOM      4  C   UNL     1       0.053  -0.639  -1.332  0.00  0.00    +0.007 A 
ATOM      5  C   UNL     1       0.057  -2.019  -1.339  0.00  0.00    +0.046 A 
ATOM      6  C   UNL     1       0.059  -2.721  -0.141  0.00  0.00    +0.132 A 
ATOM      7  C   UNL     1       0.062  -2.009   1.069  0.00  0.00    +0.059 A 
ATOM      8  C   UNL     1       0.058  -0.613   1.064  0.00  0.00    +0.018 A 
ATOM      9  C   UNL     1       0.081  -2.757   2.339  0.00  0.00    +0.170 C 
ATOM     10  O   UNL     1       0.300  -2.210   3.399  0.00  0.00    -0.292 OA
ATOM     11  C   UNL     1      -0.189  -4.249   2.251  0.00  0.00    +0.127 C 
ATOM     12  C   UNL     1       0.534  -4.768   1.000  0.00  0.00    +0.114 C 
ATOM     13  O   UNL     1       0.055  -4.074  -0.150  0.00  0.00    -0.485 OA
ATOM     14  C   UNL     1       0.267  -6.267   0.847  0.00  0.00    +0.030 C 
ATOM     15  C   UNL     1       1.060  -6.801  -0.348  0.00  0.00    -0.074 C 
ATOM     16  N   UNL     1       2.494  -6.576  -0.128  0.00  0.00    +0.386 N 
ATOM     17  C   UNL     1       2.766  -5.135  -0.054  0.00  0.00    -0.074 C 
ATOM     18  C   UNL     1       2.040  -4.537   1.152  0.00  0.00    +0.030 C 
ATOM     19  H   UNL     1       2.774  -7.015   0.736  0.00  0.00    -0.081 HD
ENDBRANCH   1  16
BRANCH   1  20
ATOM     20  C   UNL     1       4.731  -7.038  -0.956  0.00  0.00    +0.201 C 
ATOM     21  O   UNL     1       5.111  -6.516   0.071  0.00  0.00    -0.278 OA
ATOM     22  N   UNL     1       5.630  -7.510  -1.844  0.00  0.00    -0.286 N 
ATOM     23  H   UNL     1       5.328  -7.997  -2.627  0.00  0.00    +0.155 HD
BRANCH  22  24
ATOM     24  C   UNL     1       7.003  -7.296  -1.635  0.00  0.00    +0.049 A 
ATOM     25  C   UNL     1       7.455  -6.728  -0.490  0.00  0.00    +0.069 A 
ATOM     26  S   UNL     1       9.220  -6.692  -0.738  0.00  0.00    -0.090 S 
ATOM     27  C   UNL     1       9.288  -7.436  -2.357  0.00  0.00    +0.102 A 
ATOM     28  C   UNL     1       7.972  -7.679  -2.627  0.00  0.00    +0.022 A 
BRANCH  28  29
ATOM     29  C   UNL     1       7.555  -8.311  -3.903  0.00  0.00    -0.015 A 
ATOM     30  C   UNL     1       6.949  -9.566  -3.896  0.00  0.00    +0.008 A 
ATOM     31  C   UNL     1       6.562 -10.149  -5.086  0.00  0.00    +0.001 A 
ATOM     32  C   UNL     1       6.776  -9.491  -6.283  0.00  0.00    +0.000 A 
ATOM     33  C   UNL     1       7.377  -8.245  -6.296  0.00  0.00    +0.001 A 
ATOM     34  C   UNL     1       7.763  -7.650  -5.112  0.00  0.00    +0.008 A 
ENDBRANCH  28  29
BRANCH  27  35
ATOM     35  C   UNL     1      10.496  -7.728  -3.210  0.00  0.00    +0.424 C 
ATOM     36  F   UNL     1      10.769  -6.625  -4.025  0.00  0.00    -0.165 F 
ATOM     37  F   UNL     1      11.598  -7.983  -2.386  0.00  0.00    -0.165 F 
ATOM     38  F   UNL     1      10.242  -8.848  -4.009  0.00  0.00    -0.165 F 
ENDBRANCH  27  35
ENDBRANCH  22  24
ENDBRANCH   1  20
TORSDOF 5
