REMARK  Name = ZINC33267004
REMARK  12 active torsions:
REMARK  status: ('A' for Active; 'I' for Inactive)
REMARK    1  A    between atoms: C_1  and  C_2
REMARK    2  A    between atoms: C_2  and  C_3
REMARK    3  A    between atoms: C_6  and  C_9
REMARK    4  A    between atoms: C_18  and  C_27
REMARK    5  A    between atoms: N_20  and  C_21
REMARK    6  A    between atoms: C_27  and  C_28
REMARK    7  A    between atoms: N_33  and  C_34
REMARK    8  A    between atoms: C_34  and  C_35
REMARK    9  A    between atoms: C_35  and  C_36
REMARK   10  A    between atoms: C_36  and  O_38
REMARK   11  A    between atoms: O_38  and  C_39
REMARK   12  A    between atoms: C_39  and  C_40
REMARK                            x       y       z     vdW  Elec       q    Type
REMARK                         _______ _______ _______ _____ _____    ______ ____
ROOT
ATOM      1  C   UNL     1      -2.600   3.231   4.655  0.00  0.00    +0.155 C 
ATOM      2  C   UNL     1      -2.633   4.731   4.680  0.00  0.00    +0.050 A 
ATOM      3  C   UNL     1      -2.237   5.568   5.651  0.00  0.00    +0.025 A 
ATOM      4  C   UNL     1      -2.406   6.885   5.170  0.00  0.00    +0.020 A 
ATOM      5  C   UNL     1      -2.922   6.800   3.923  0.00  0.00    +0.093 A 
ATOM      6  N   UNL     1      -3.099   5.489   3.635  0.00  0.00    -0.303 N 
ATOM      7  C   UNL     1      -3.679   4.874   2.520  0.00  0.00    +0.146 A 
ATOM      8  C   UNL     1      -4.547   3.831   2.676  0.00  0.00    +0.036 A 
ATOM      9  C   UNL     1      -4.860   3.353   1.408  0.00  0.00    +0.070 A 
ATOM     10  N   UNL     1      -4.236   4.093   0.521  0.00  0.00    -0.169 NA
ATOM     11  N   UNL     1      -3.498   5.076   1.202  0.00  0.00    -0.215 N 
ATOM     12  C   UNL     1      -5.030   3.356   4.015  0.00  0.00    +0.151 C 
ATOM     13  N   UNL     1      -3.960   2.652   4.761  0.00  0.00    -0.269 N 
ATOM     14  C   UNL     1      -4.210   1.550   5.495  0.00  0.00    +0.303 C 
ATOM     15  O   UNL     1      -3.306   1.000   6.094  0.00  0.00    -0.253 OA
ATOM     16  N   UNL     1      -5.463   1.057   5.565  0.00  0.00    -0.299 N 
ATOM     17  H   UNL     1      -6.281   1.554   5.023  0.00  0.00    +0.150 HD
ENDROOT
BRANCH   1  21
ATOM     18  C   UNL     1      -0.817   1.936   0.995  0.00  0.00    -0.048 A 
ATOM     19  C   UNL     1      -1.903   1.256   1.514  0.00  0.00    +0.004 A 
ATOM     20  C   UNL     1      -2.477   1.672   2.700  0.00  0.00    +0.006 A 
ATOM     21  C   UNL     1      -1.971   2.774   3.364  0.00  0.00    -0.021 A 
ATOM     22  C   UNL     1      -0.889   3.458   2.843  0.00  0.00    +0.006 A 
ATOM     23  C   UNL     1      -0.312   3.039   1.658  0.00  0.00    +0.004 A 
BRANCH  18  25
ATOM     24  C   UNL     1       0.921   0.470   0.006  0.00  0.00    +0.009 C 
ATOM     25  C   UNL     1      -0.188   1.480  -0.296  0.00  0.00    +0.032 C 
ENDBRANCH  18  25
ENDBRANCH   1  21
BRANCH  11  26
ATOM     26  C   UNL     1      -2.717   6.081   0.616  0.00  0.00    +0.068 A 
ATOM     27  C   UNL     1      -3.174   6.747  -0.514  0.00  0.00    +0.028 A 
ATOM     28  C   UNL     1      -2.404   7.741  -1.086  0.00  0.00    +0.002 A 
ATOM     29  C   UNL     1      -1.175   8.066  -0.541  0.00  0.00    +0.000 A 
ATOM     30  C   UNL     1      -0.716   7.401   0.581  0.00  0.00    +0.002 A 
ATOM     31  C   UNL     1      -1.483   6.410   1.161  0.00  0.00    +0.028 A 
ENDBRANCH  11  26
BRANCH   9  32
ATOM     32  C   UNL     1      -5.762   2.185   1.104  0.00  0.00    +0.054 C 
ATOM     33  C   UNL     1      -7.201   2.679   0.946  0.00  0.00    +0.010 C 
ENDBRANCH   9  32
BRANCH  16  34
ATOM     34  C   UNL     1      -5.734  -0.142   6.363  0.00  0.00    +0.117 C 
BRANCH  34  35
ATOM     35  C   UNL     1      -7.222  -0.487   6.273  0.00  0.00    +0.139 C 
BRANCH  35  36
ATOM     36  C   UNL     1      -7.502  -1.720   7.094  0.00  0.00    +0.309 C 
ATOM     37  O   UNL     1      -6.604  -2.266   7.689  0.00  0.00    -0.251 OA
BRANCH  36  38
ATOM     38  O   UNL     1      -8.749  -2.211   7.163  0.00  0.00    -0.465 OA
BRANCH  38  39
ATOM     39  C   UNL     1      -8.945  -3.401   7.972  0.00  0.00    +0.229 C 
ATOM     40  C   UNL     1     -10.419  -3.809   7.931  0.00  0.00    +0.048 C 
ENDBRANCH  38  39
ENDBRANCH  36  38
ENDBRANCH  35  36
ENDBRANCH  34  35
ENDBRANCH  16  34
TORSDOF 9
