REMARK  Name = ZINC37822304
REMARK  5 active torsions:
REMARK  status: ('A' for Active; 'I' for Inactive)
REMARK    1  A    between atoms: C_6  and  C_7
REMARK    2  A    between atoms: C_7  and  N_8
REMARK    3  A    between atoms: N_8  and  C_9
REMARK    4  A    between atoms: C_9  and  C_10
REMARK    5  A    between atoms: C_13  and  C_15
REMARK                            x       y       z     vdW  Elec       q    Type
REMARK                         _______ _______ _______ _____ _____    ______ ____
ROOT
ATOM      1  N   UNL     1      -2.063  -1.127  -1.210  0.00  0.00    -0.290 N 
ATOM      2  C   UNL     1      -2.505  -0.123  -1.994  0.00  0.00    +0.202 C 
ATOM      3  O   UNL     1      -2.484   1.019  -1.585  0.00  0.00    -0.277 OA
ENDROOT
BRANCH   2   4
ATOM      4  C   UNL     1      -3.025  -0.419  -3.377  0.00  0.00    +0.016 C 
ATOM      5  C   UNL     1      -1.851  -0.746  -4.303  0.00  0.00    -0.007 C 
ATOM      6  C   UNL     1      -2.384  -1.047  -5.707  0.00  0.00    -0.003 C 
ATOM      7  C   UNL     1      -3.197   0.153  -6.201  0.00  0.00    -0.019 C 
ATOM      8  C   UNL     1      -4.321   0.447  -5.205  0.00  0.00    -0.082 C 
ATOM      9  N   UNL     1      -3.745   0.752  -3.889  0.00  0.00    +0.387 N 
ATOM     10  H   UNL     1      -4.485   0.998  -3.249  0.00  0.00    -0.085 HD
ATOM     11  H   UNL     1      -3.105   1.528  -3.975  0.00  0.00    -0.085 HD
ENDBRANCH   2   4
BRANCH   1  12
ATOM     12  C   UNL     1      -1.654  -0.854   0.170  0.00  0.00    +0.143 C 
BRANCH  12  18
ATOM     13  C   UNL     1       0.230   0.791   0.063  0.00  0.00    +0.006 A 
ATOM     14  C   UNL     1       1.577   1.098   0.091  0.00  0.00    +0.015 A 
ATOM     15  C   UNL     1       2.511   0.092   0.258  0.00  0.00    +0.018 A 
ATOM     16  C   UNL     1       2.097  -1.221   0.397  0.00  0.00    +0.015 A 
ATOM     17  C   UNL     1       0.749  -1.526   0.368  0.00  0.00    +0.006 A 
ATOM     18  C   UNL     1      -0.184  -0.520   0.201  0.00  0.00    -0.030 A 
ATOM     19 BR   UNL     1       4.355   0.510   0.297  0.00  0.00    -0.050 Br
ENDBRANCH  12  18
ENDBRANCH   1  12
BRANCH   1  20
ATOM     20  C   UNL     1      -1.992  -2.492  -1.739  0.00  0.00    +0.203 C 
BRANCH  20  21
ATOM     21  C   UNL     1      -3.240  -3.245  -1.353  0.00  0.00    +0.228 C 
ATOM     22  O   UNL     1      -4.102  -2.696  -0.701  0.00  0.00    -0.274 OA
ATOM     23  N   UNL     1      -3.396  -4.529  -1.732  0.00  0.00    -0.328 N 
ATOM     24  H   UNL     1      -2.706  -4.968  -2.254  0.00  0.00    +0.145 HD
ATOM     25  H   UNL     1      -4.199  -5.013  -1.484  0.00  0.00    +0.145 HD
ENDBRANCH  20  21
ENDBRANCH   1  20
TORSDOF 5
