REMARK  Name = ZINC38547550
REMARK  10 active torsions:
REMARK  status: ('A' for Active; 'I' for Inactive)
REMARK    1  A    between atoms: C_1  and  C_2
REMARK    2  A    between atoms: N_8  and  C_9
REMARK    3  A    between atoms: C_9  and  C_11
REMARK    4  A    between atoms: C_9  and  C_19
REMARK    5  A    between atoms: C_15  and  O_17
REMARK    6  A    between atoms: O_17  and  C_18
REMARK    7  A    between atoms: C_20  and  C_33
REMARK    8  A    between atoms: C_21  and  C_32
REMARK    9  A    between atoms: C_23  and  N_24
REMARK   10  A    between atoms: C_25  and  C_27
REMARK                            x       y       z     vdW  Elec       q    Type
REMARK                         _______ _______ _______ _____ _____    ______ ____
ROOT
ATOM      1  C   UNL     1       0.068  -2.143   3.631  0.00  0.00    +0.135 C 
ENDROOT
BRANCH   1   9
ATOM      2  C   UNL     1       0.943   1.071  -0.263  0.00  0.00    +0.044 C 
ATOM      3  C   UNL     1       0.761  -0.419  -0.131  0.00  0.00    -0.046 A 
ATOM      4  C   UNL     1       0.820  -1.243  -1.247  0.00  0.00    +0.021 A 
ATOM      5  C   UNL     1       0.650  -2.604  -1.092  0.00  0.00    +0.084 A 
ATOM      6  N   UNL     1       0.434  -3.128   0.100  0.00  0.00    -0.350 N 
ATOM      7  C   UNL     1       0.370  -2.376   1.188  0.00  0.00    +0.097 A 
ATOM      8  C   UNL     1       0.538  -0.997   1.106  0.00  0.00    +0.045 A 
ATOM      9  N   UNL     1       0.140  -2.969   2.423  0.00  0.00    -0.320 N 
ATOM     10  H   UNL     1       0.026  -3.931   2.486  0.00  0.00    +0.148 HD
ATOM     11  H   UNL     1       0.318  -4.087   0.181  0.00  0.00    +0.166 HD
ENDBRANCH   1   9
BRANCH   1  12
ATOM     12  C   UNL     1      -0.621  -2.914   4.727  0.00  0.00    +0.009 A 
ATOM     13  C   UNL     1      -1.615  -2.323   5.486  0.00  0.00    -0.033 A 
ATOM     14  C   UNL     1      -2.214  -3.045   6.463  0.00  0.00    -0.008 A 
ATOM     15  S   UNL     1      -1.374  -4.615   6.336  0.00  0.00    -0.078 S 
ATOM     16  C   UNL     1      -0.281  -4.208   4.985  0.00  0.00    +0.078 A 
ATOM     17  C   UNL     1      -3.308  -2.630   7.413  0.00  0.00    +0.052 C 
ATOM     18  C   UNL     1      -2.024  -0.896   5.230  0.00  0.00    +0.045 C 
BRANCH  16  19
ATOM     19  N   UNL     1       0.676  -5.008   4.356  0.00  0.00    -0.273 N 
ATOM     20  C   UNL     1       0.943  -6.240   4.833  0.00  0.00    +0.284 C 
ATOM     21  O   UNL     1       0.350  -6.656   5.811  0.00  0.00    -0.266 OA
ATOM     22  H   UNL     1       1.149  -4.677   3.576  0.00  0.00    +0.156 HD
BRANCH  20  23
ATOM     23  C   UNL     1       1.948  -7.080   4.173  0.00  0.00    +0.189 A 
ATOM     24  C   UNL     1       2.309  -8.342   4.546  0.00  0.00    +0.054 A 
ATOM     25  C   UNL     1       3.295  -8.765   3.641  0.00  0.00    +0.042 A 
ATOM     26  C   UNL     1       3.490  -7.754   2.765  0.00  0.00    +0.196 A 
ATOM     27  O   UNL     1       2.672  -6.742   3.086  0.00  0.00    -0.458 OA
ENDBRANCH  20  23
ENDBRANCH  16  19
ENDBRANCH   1  12
BRANCH   1  28
ATOM     28  C   UNL     1       1.462  -1.779   4.073  0.00  0.00    -0.019 A 
ATOM     29  C   UNL     1       2.514  -2.640   3.822  0.00  0.00    +0.006 A 
ATOM     30  C   UNL     1       3.794  -2.308   4.226  0.00  0.00    +0.004 A 
ATOM     31  C   UNL     1       4.024  -1.115   4.883  0.00  0.00    +0.045 A 
ATOM     32  C   UNL     1       2.971  -0.250   5.137  0.00  0.00    +0.120 A 
ATOM     33  C   UNL     1       1.688  -0.582   4.725  0.00  0.00    +0.051 A 
BRANCH  32  34
ATOM     34  O   UNL     1       3.195   0.925   5.784  0.00  0.00    -0.495 OA
ATOM     35  C   UNL     1       4.541   1.204   6.173  0.00  0.00    +0.277 C 
ENDBRANCH  32  34
ENDBRANCH   1  28
TORSDOF 6
