REMARK  Name = ZINC15708095
REMARK  6 active torsions:
REMARK  status: ('A' for Active; 'I' for Inactive)
REMARK    1  A    between atoms: C_4  and  N_7
REMARK    2  A    between atoms: C_8  and  C_10
REMARK    3  A    between atoms: C_10  and  C_11
REMARK    4  A    between atoms: C_11  and  C_12
REMARK    5  A    between atoms: C_21  and  N_24
REMARK    6  A    between atoms: N_27  and  C_28
REMARK                            x       y       z     vdW  Elec       q    Type
REMARK                         _______ _______ _______ _____ _____    ______ ____
ROOT
ATOM      1  C   UNL     1      -5.058   0.672   2.139  0.00  0.00    -0.050 C 
ATOM      2  C   UNL     1      -5.405  -0.730   2.659  0.00  0.00    +0.089 C 
ATOM      3  N   UNL     1      -5.922  -1.594   1.605  0.00  0.00    -0.318 N 
ATOM      4  C   UNL     1      -5.903  -1.294   0.292  0.00  0.00    +0.200 C 
ATOM      5  O   UNL     1      -6.255  -2.113  -0.530  0.00  0.00    -0.278 OA
ATOM      6  C   UNL     1      -5.444   0.060  -0.137  0.00  0.00    +0.021 C 
ATOM      7  C   UNL     1      -3.829   1.692   0.204  0.00  0.00    -0.055 C 
ATOM      8  C   UNL     1      -3.659   1.247  -1.275  0.00  0.00    +0.057 C 
ATOM      9  C   UNL     1      -4.707   0.120  -1.478  0.00  0.00    +0.014 C 
ATOM     10  H   UNL     1      -6.307  -2.445   1.868  0.00  0.00    +0.149 HD
ATOM     11  N   UNL     1      -4.429   0.473   0.784  0.00  0.00    +0.391 N 
ATOM     12  H   UNL     1      -3.705  -0.251   0.863  0.00  0.00    -0.080 HD
ENDROOT
BRANCH   8  13
ATOM     13  N   UNL     1      -2.307   0.732  -1.501  0.00  0.00    -0.298 N 
ATOM     14  C   UNL     1      -1.313   1.575  -1.844  0.00  0.00    +0.304 C 
ATOM     15  O   UNL     1      -1.540   2.764  -1.968  0.00  0.00    -0.253 OA
ATOM     16  N   UNL     1      -0.068   1.101  -2.052  0.00  0.00    -0.269 N 
ATOM     17  H   UNL     1      -2.126  -0.216  -1.402  0.00  0.00    +0.150 HD
ATOM     18  H   UNL     1       0.098   0.146  -2.023  0.00  0.00    +0.156 HD
BRANCH  16  19
ATOM     19  C   UNL     1       0.990   1.993  -2.315  0.00  0.00    +0.042 A 
ATOM     20  C   UNL     1       2.274   1.711  -1.878  0.00  0.00    +0.031 A 
ATOM     21  C   UNL     1       3.269   2.589  -2.153  0.00  0.00    +0.047 A 
ATOM     22  S   UNL     1       2.400   3.869  -3.043  0.00  0.00    -0.103 S 
ATOM     23  C   UNL     1       0.768   3.147  -2.997  0.00  0.00    +0.068 A 
ENDBRANCH  16  19
ENDBRANCH   8  13
BRANCH   1  24
ATOM     24  C   UNL     1      -4.099   1.365   3.109  0.00  0.00    -0.005 C 
BRANCH  24  25
ATOM     25  C   UNL     1      -4.818   1.635   4.432  0.00  0.00    +0.094 C 
BRANCH  25  27
ATOM     26  N   UNL     1      -4.257   2.535   6.667  0.00  0.00    -0.285 N 
ATOM     27  C   UNL     1      -3.844   2.216   5.425  0.00  0.00    +0.217 C 
ATOM     28  O   UNL     1      -2.688   2.395   5.105  0.00  0.00    -0.275 OA
ATOM     29  H   UNL     1      -5.162   2.325   6.946  0.00  0.00    +0.155 HD
BRANCH  26  33
ATOM     30  C   UNL     1      -1.648   4.423   9.310  0.00  0.00    +0.000 A 
ATOM     31  C   UNL     1      -1.568   4.687   7.955  0.00  0.00    +0.002 A 
ATOM     32  C   UNL     1      -2.432   4.062   7.077  0.00  0.00    +0.023 A 
ATOM     33  C   UNL     1      -3.381   3.169   7.555  0.00  0.00    +0.033 A 
ATOM     34  C   UNL     1      -3.462   2.910   8.917  0.00  0.00    +0.023 A 
ATOM     35  C   UNL     1      -2.592   3.534   9.790  0.00  0.00    +0.002 A 
ENDBRANCH  26  33
ENDBRANCH  25  27
ENDBRANCH  24  25
ENDBRANCH   1  24
TORSDOF 6
