REMARK  Name = ZINC43698913
REMARK  6 active torsions:
REMARK  status: ('A' for Active; 'I' for Inactive)
REMARK    1  A    between atoms: C_1  and  N_2
REMARK    2  A    between atoms: C_3  and  N_36
REMARK    3  A    between atoms: C_4  and  C_22
REMARK    4  A    between atoms: C_8  and  C_16
REMARK    5  A    between atoms: N_9  and  C_10
REMARK    6  A    between atoms: N_28  and  C_29
REMARK                            x       y       z     vdW  Elec       q    Type
REMARK                         _______ _______ _______ _____ _____    ______ ____
ROOT
ATOM      1  C   UNL     1      -1.757   0.609   0.182  0.00  0.00    +0.152 C 
ATOM      2  N   UNL     1      -1.756  -0.820   0.505  0.00  0.00    -0.314 N 
ATOM      3  C   UNL     1      -2.273  -1.674  -0.354  0.00  0.00    +0.115 A 
ATOM      4  C   UNL     1      -2.237  -3.014   0.019  0.00  0.00    +0.097 A 
ATOM      5  S   UNL     1      -1.441  -2.893   1.612  0.00  0.00    -0.049 S 
ATOM      6  C   UNL     1      -1.234  -1.223   1.646  0.00  0.00    +0.146 A 
ATOM      7  N   UNL     1      -0.654  -0.454   2.639  0.00  0.00    -0.279 N 
ATOM      8  C   UNL     1      -0.027  -1.064   3.705  0.00  0.00    +0.132 C 
ATOM      9  N   UNL     1      -0.074  -0.514   4.895  0.00  0.00    -0.232 NA
ATOM     10  H   UNL     1      -0.689   0.513   2.585  0.00  0.00    +0.155 HD
ENDROOT
BRANCH   4  11
ATOM     11  C   UNL     1      -2.721  -4.199  -0.698  0.00  0.00    +0.177 A 
ATOM     12  N   UNL     1      -3.385  -4.060  -1.849  0.00  0.00    -0.194 NA
ATOM     13  C   UNL     1      -3.821  -5.134  -2.496  0.00  0.00    +0.217 A 
ATOM     14  N   UNL     1      -3.600  -6.348  -1.998  0.00  0.00    -0.181 NA
ATOM     15  C   UNL     1      -2.941  -6.489  -0.852  0.00  0.00    +0.224 A 
ATOM     16  N   UNL     1      -2.496  -5.419  -0.203  0.00  0.00    -0.194 NA
ATOM     17  N   UNL     1      -2.713  -7.752  -0.338  0.00  0.00    -0.283 N 
ATOM     18  N   UNL     1      -4.507  -4.992  -3.686  0.00  0.00    -0.327 N 
ATOM     19  H   UNL     1      -2.301  -7.853   0.534  0.00  0.00    +0.155 HD
ATOM     20  H   UNL     1      -4.669  -4.107  -4.049  0.00  0.00    +0.145 HD
ATOM     21  H   UNL     1      -4.826  -5.776  -4.158  0.00  0.00    +0.145 HD
BRANCH  17  22
ATOM     22  C   UNL     1      -3.076  -8.883  -1.075  0.00  0.00    +0.034 A 
ATOM     23  C   UNL     1      -2.994  -8.866  -2.462  0.00  0.00    +0.023 A 
ATOM     24  C   UNL     1      -3.354  -9.985  -3.187  0.00  0.00    +0.002 A 
ATOM     25  C   UNL     1      -3.795 -11.121  -2.535  0.00  0.00    +0.000 A 
ATOM     26  C   UNL     1      -3.878 -11.142  -1.155  0.00  0.00    +0.002 A 
ATOM     27  C   UNL     1      -3.514 -10.028  -0.423  0.00  0.00    +0.023 A 
ENDBRANCH  17  22
ENDBRANCH   4  11
BRANCH   9  28
ATOM     28  C   UNL     1      -0.701   0.689   5.069  0.00  0.00    +0.066 A 
ATOM     29  C   UNL     1      -0.308   1.799   4.316  0.00  0.00    +0.028 A 
ATOM     30  C   UNL     1      -0.945   3.010   4.496  0.00  0.00    +0.002 A 
ATOM     31  C   UNL     1      -1.969   3.126   5.419  0.00  0.00    +0.000 A 
ATOM     32  C   UNL     1      -2.363   2.031   6.168  0.00  0.00    +0.002 A 
ATOM     33  C   UNL     1      -1.740   0.813   5.994  0.00  0.00    +0.028 A 
ENDBRANCH   9  28
BRANCH   8  34
ATOM     34  C   UNL     1       0.698  -2.336   3.507  0.00  0.00    +0.015 A 
ATOM     35  C   UNL     1       1.083  -2.732   2.225  0.00  0.00    +0.011 A 
ATOM     36  C   UNL     1       1.759  -3.921   2.047  0.00  0.00    +0.001 A 
ATOM     37  C   UNL     1       2.056  -4.721   3.136  0.00  0.00    +0.000 A 
ATOM     38  C   UNL     1       1.677  -4.335   4.410  0.00  0.00    +0.001 A 
ATOM     39  C   UNL     1       1.006  -3.145   4.603  0.00  0.00    +0.011 A 
ENDBRANCH   8  34
BRANCH   3  40
ATOM     40  N   UNL     1      -2.823  -1.260  -1.564  0.00  0.00    -0.343 N 
ATOM     41  H   UNL     1      -2.833  -0.318  -1.796  0.00  0.00    +0.144 HD
ATOM     42  H   UNL     1      -3.196  -1.914  -2.176  0.00  0.00    +0.144 HD
ENDBRANCH   3  40
TORSDOF 5
