REMARK  Name = ZINC60377223
REMARK  10 active torsions:
REMARK  status: ('A' for Active; 'I' for Inactive)
REMARK    1  A    between atoms: C_1  and  C_2
REMARK    2  A    between atoms: C_2  and  C_4
REMARK    3  A    between atoms: C_2  and  N_14
REMARK    4  A    between atoms: C_8  and  S_10
REMARK    5  A    between atoms: S_10  and  N_13
REMARK    6  A    between atoms: N_14  and  C_15
REMARK    7  A    between atoms: N_14  and  C_16
REMARK    8  A    between atoms: C_16  and  C_17
REMARK    9  A    between atoms: N_22  and  C_23
REMARK   10  A    between atoms: C_23  and  C_24
REMARK                            x       y       z     vdW  Elec       q    Type
REMARK                         _______ _______ _______ _____ _____    ______ ____
ROOT
ATOM      1  N   UNL     1      -1.376  -0.512   0.012  0.00  0.00    +0.388 N 
ATOM      2  C   UNL     1      -1.356  -1.981   0.004  0.00  0.00    -0.095 C 
ATOM      3  H   UNL     1      -1.864  -0.178  -0.805  0.00  0.00    -0.081 HD
ENDROOT
BRANCH   1   5
ATOM      4  C   UNL     1      -0.019   1.526   0.010  0.00  0.00    -0.008 C 
ATOM      5  C   UNL     1       0.002  -0.004   0.002  0.00  0.00    -0.040 C 
BRANCH   5   6
ATOM      6  C   UNL     1       0.707  -0.490  -1.238  0.00  0.00    -0.059 A 
ATOM      7  C   UNL     1       0.037  -0.522  -2.447  0.00  0.00    +0.002 A 
ATOM      8  C   UNL     1       0.684  -0.967  -3.584  0.00  0.00    +0.002 A 
ATOM      9  C   UNL     1       2.002  -1.381  -3.513  0.00  0.00    +0.028 A 
ATOM     10  C   UNL     1       2.672  -1.349  -2.304  0.00  0.00    +0.105 A 
ATOM     11  C   UNL     1       2.026  -0.899  -1.167  0.00  0.00    +0.030 A 
BRANCH  10  12
ATOM     12  S   UNL     1       4.350  -1.877  -2.213  0.00  0.00    +0.056 S 
ATOM     13  O   UNL     1       4.582  -2.263  -0.865  0.00  0.00    -0.153 OA
ATOM     14  O   UNL     1       4.558  -2.762  -3.306  0.00  0.00    -0.153 OA
BRANCH  12  15
ATOM     15  N   UNL     1       5.298  -0.548  -2.494  0.00  0.00    -0.204 NA
ATOM     16  H   UNL     1       6.176  -0.483  -2.087  0.00  0.00    +0.144 HD
ATOM     17  H   UNL     1       4.974   0.166  -3.065  0.00  0.00    +0.144 HD
ENDBRANCH  12  15
ENDBRANCH  10  12
ENDBRANCH   5   6
ENDBRANCH   1   5
BRANCH   1  18
ATOM     18  C   UNL     1      -2.064  -0.039   1.221  0.00  0.00    +0.019 C 
BRANCH  18  19
ATOM     19  C   UNL     1      -3.511  -0.457   1.172  0.00  0.00    +0.204 C 
ATOM     20  O   UNL     1      -3.928  -1.087   0.224  0.00  0.00    -0.277 OA
ATOM     21  N   UNL     1      -4.341  -0.130   2.182  0.00  0.00    -0.242 N 
ATOM     22  C   UNL     1      -5.635  -0.504   2.139  0.00  0.00    +0.306 C 
ATOM     23  O   UNL     1      -6.053  -1.136   1.188  0.00  0.00    -0.252 OA
ATOM     24  N   UNL     1      -6.465  -0.177   3.149  0.00  0.00    -0.294 N 
ATOM     25  H   UNL     1      -4.007   0.374   2.941  0.00  0.00    +0.159 HD
ATOM     26  H   UNL     1      -6.132   0.327   3.907  0.00  0.00    +0.151 HD
BRANCH  24  27
ATOM     27  C   UNL     1      -7.872  -0.584   3.101  0.00  0.00    +0.148 C 
BRANCH  27  28
ATOM     28  C   UNL     1      -8.578  -0.098   4.341  0.00  0.00    +0.007 A 
ATOM     29  C   UNL     1      -9.225   1.075   4.551  0.00  0.00    +0.013 A 
ATOM     30  C   UNL     1      -9.806   1.308   5.783  0.00  0.00    +0.008 A 
ATOM     31  C   UNL     1      -9.711   0.358   6.745  0.00  0.00    +0.045 A 
ATOM     32  S   UNL     1      -8.784  -0.920   5.913  0.00  0.00    -0.100 S 
ENDBRANCH  27  28
ENDBRANCH  24  27
ENDBRANCH  18  19
ENDBRANCH   1  18
TORSDOF 8
