REMARK  Name = ZINC53603059
REMARK  11 active torsions:
REMARK  status: ('A' for Active; 'I' for Inactive)
REMARK    1  A    between atoms: C_1  and  N_2
REMARK    2  A    between atoms: N_2  and  C_3
REMARK    3  A    between atoms: N_2  and  C_14
REMARK    4  A    between atoms: C_3  and  C_4
REMARK    5  A    between atoms: C_7  and  O_12
REMARK    6  A    between atoms: C_8  and  O_10
REMARK    7  A    between atoms: O_10  and  C_11
REMARK    8  A    between atoms: O_12  and  C_13
REMARK    9  A    between atoms: C_14  and  C_15
REMARK   10  A    between atoms: C_18  and  C_20
REMARK   11  A    between atoms: C_23  and  C_26
REMARK                            x       y       z     vdW  Elec       q    Type
REMARK                         _______ _______ _______ _____ _____    ______ ____
ROOT
ATOM      1  C   UNL     1      -2.067  -0.116  -1.267  0.00  0.00    +0.033 A 
ATOM      2  C   UNL     1      -2.107  -0.981  -2.317  0.00  0.00    +0.068 A 
ATOM      3  S   UNL     1      -3.019  -0.010  -3.510  0.00  0.00    -0.075 S 
ATOM      4  C   UNL     1      -3.248   1.436  -2.483  0.00  0.00    +0.108 A 
ATOM      5  N   UNL     1      -2.637   1.060  -1.368  0.00  0.00    -0.246 NA
ENDROOT
BRANCH   4   6
ATOM      6  C   UNL     1      -3.936   2.706  -2.793  0.00  0.00    +0.007 A 
ATOM      7  C   UNL     1      -3.993   3.721  -1.834  0.00  0.00    +0.011 A 
ATOM      8  C   UNL     1      -4.634   4.904  -2.122  0.00  0.00    +0.014 A 
ATOM      9  C   UNL     1      -5.229   5.090  -3.373  0.00  0.00    +0.037 A 
ATOM     10  C   UNL     1      -5.172   4.075  -4.332  0.00  0.00    +0.014 A 
ATOM     11  C   UNL     1      -4.526   2.894  -4.045  0.00  0.00    +0.011 A 
BRANCH   9  12
ATOM     12  C   UNL     1      -5.917   6.360  -3.683  0.00  0.00    +0.242 C 
ATOM     13  O   UNL     1      -5.967   7.243  -2.849  0.00  0.00    -0.270 OA
ATOM     14  N   UNL     1      -6.490   6.539  -4.889  0.00  0.00    -0.325 N 
ATOM     15  H   UNL     1      -6.450   5.834  -5.555  0.00  0.00    +0.145 HD
ATOM     16  H   UNL     1      -6.942   7.373  -5.092  0.00  0.00    +0.145 HD
ENDBRANCH   9  12
ENDBRANCH   4   6
BRANCH   1  17
ATOM     17  C   UNL     1      -1.376  -0.512   0.012  0.00  0.00    -0.022 C 
BRANCH  17  19
ATOM     18  C   UNL     1      -0.018   1.465   0.010  0.00  0.00    -0.095 C 
ATOM     19  N   UNL     1       0.002  -0.004   0.002  0.00  0.00    +0.384 N 
ATOM     20  H   UNL     1       0.474  -0.330  -0.828  0.00  0.00    -0.081 HD
BRANCH  19  21
ATOM     21  C   UNL     1       0.713  -0.491   1.192  0.00  0.00    -0.043 C 
BRANCH  21  22
ATOM     22  C   UNL     1       2.158  -0.072   1.120  0.00  0.00    -0.060 A 
ATOM     23  C   UNL     1       3.085  -0.895   0.507  0.00  0.00    +0.005 A 
ATOM     24  C   UNL     1       4.413  -0.515   0.439  0.00  0.00    +0.049 A 
ATOM     25  C   UNL     1       4.817   0.693   0.985  0.00  0.00    +0.161 A 
ATOM     26  C   UNL     1       3.884   1.521   1.601  0.00  0.00    +0.162 A 
ATOM     27  C   UNL     1       2.554   1.137   1.662  0.00  0.00    +0.051 A 
BRANCH  26  28
ATOM     28  O   UNL     1       4.276   2.707   2.138  0.00  0.00    -0.491 OA
ATOM     29  C   UNL     1       3.264   3.506   2.755  0.00  0.00    +0.277 C 
ENDBRANCH  26  28
BRANCH  25  30
ATOM     30  O   UNL     1       6.123   1.067   0.918  0.00  0.00    -0.491 OA
ATOM     31  C   UNL     1       7.024   0.167   0.272  0.00  0.00    +0.277 C 
ENDBRANCH  25  30
ENDBRANCH  21  22
ENDBRANCH  19  21
ENDBRANCH  17  19
ENDBRANCH   1  17
TORSDOF 8
