REMARK  Name = ZINC09323252
REMARK  11 active torsions:
REMARK  status: ('A' for Active; 'I' for Inactive)
REMARK    1  A    between atoms: C_1  and  C_2
REMARK    2  A    between atoms: C_7  and  C_8
REMARK    3  A    between atoms: N_12  and  C_13
REMARK    4  A    between atoms: C_13  and  C_14
REMARK    5  A    between atoms: C_14  and  N_63
REMARK    6  A    between atoms: C_15  and  N_63
REMARK    7  A    between atoms: C_16  and  N_63
REMARK    8  A    between atoms: C_17  and  C_19
REMARK    9  A    between atoms: C_22  and  N_25
REMARK   10  A    between atoms: N_25  and  S_26
REMARK   11  A    between atoms: S_26  and  C_29
REMARK                            x       y       z     vdW  Elec       q    Type
REMARK                         _______ _______ _______ _____ _____    ______ ____
ROOT
ATOM      1  C   UNL     1      -0.110  -1.503   3.101  0.00  0.00    +0.044 C 
ATOM      2  C   UNL     1      -1.252  -0.562   2.815  0.00  0.00    -0.045 A 
ATOM      3  C   UNL     1      -1.737   0.229   3.824  0.00  0.00    +0.032 A 
ATOM      4  C   UNL     1      -2.807   1.123   3.591  0.00  0.00    +0.081 A 
ATOM      5  C   UNL     1      -3.328   1.143   2.276  0.00  0.00    +0.041 A 
ATOM      6  C   UNL     1      -2.833   0.351   1.271  0.00  0.00    +0.021 A 
ATOM      7  C   UNL     1      -1.788  -0.516   1.537  0.00  0.00    -0.046 A 
ATOM      8  C   UNL     1      -1.235  -1.397   0.447  0.00  0.00    +0.044 C 
ATOM      9  S   UNL     1      -4.618   2.359   2.399  0.00  0.00    -0.052 S 
ATOM     10  C   UNL     1      -4.392   2.751   4.128  0.00  0.00    +0.168 A 
ATOM     11  N   UNL     1      -3.398   1.964   4.467  0.00  0.00    -0.224 NA
ATOM     12  N   UNL     1      -5.088   3.656   4.911  0.00  0.00    -0.248 N 
ATOM     13  C   UNL     1      -4.765   3.812   6.210  0.00  0.00    +0.252 C 
ATOM     14  O   UNL     1      -3.949   3.073   6.727  0.00  0.00    -0.270 OA
ENDROOT
BRANCH  13  15
ATOM     15  C   UNL     1      -5.401   4.878   7.006  0.00  0.00    +0.037 A 
ATOM     16  C   UNL     1      -6.702   5.295   6.706  0.00  0.00    +0.015 A 
ATOM     17  C   UNL     1      -7.294   6.287   7.454  0.00  0.00    +0.025 A 
ATOM     18  C   UNL     1      -6.596   6.883   8.500  0.00  0.00    +0.048 A 
ATOM     19  C   UNL     1      -5.298   6.475   8.797  0.00  0.00    +0.025 A 
ATOM     20  C   UNL     1      -4.702   5.479   8.057  0.00  0.00    +0.015 A 
BRANCH  18  21
ATOM     21  N   UNL     1      -7.195   7.889   9.250  0.00  0.00    -0.216 N 
ATOM     22  H   UNL     1      -7.140   7.870  10.218  0.00  0.00    +0.174 HD
BRANCH  21  23
ATOM     23  S   UNL     1      -8.002   9.119   8.489  0.00  0.00    +0.072 S 
ATOM     24  O   UNL     1      -8.933   8.509   7.606  0.00  0.00    -0.150 OA
ATOM     25  O   UNL     1      -8.399  10.032   9.503  0.00  0.00    -0.150 OA
BRANCH  23  26
ATOM     26  C   UNL     1      -6.831   9.966   7.481  0.00  0.00    +0.108 A 
ATOM     27  C   UNL     1      -6.043  10.963   8.025  0.00  0.00    +0.029 A 
ATOM     28  C   UNL     1      -5.121  11.624   7.236  0.00  0.00    +0.002 A 
ATOM     29  C   UNL     1      -4.993  11.294   5.899  0.00  0.00    +0.000 A 
ATOM     30  C   UNL     1      -5.785  10.301   5.354  0.00  0.00    +0.002 A 
ATOM     31  C   UNL     1      -6.703   9.636   6.145  0.00  0.00    +0.029 A 
ENDBRANCH  23  26
ENDBRANCH  21  23
ENDBRANCH  18  21
ENDBRANCH  13  15
BRANCH  12  32
ATOM     32  C   UNL     1      -6.176   4.444   4.328  0.00  0.00    +0.097 C 
BRANCH  32  33
ATOM     33  C   UNL     1      -7.441   3.587   4.247  0.00  0.00    -0.060 C 
BRANCH  33  36
ATOM     34  C   UNL     1      -9.671   3.483   3.308  0.00  0.00    -0.097 C 
ATOM     35  C   UNL     1      -8.854   5.553   4.263  0.00  0.00    -0.097 C 
ATOM     36  N   UNL     1      -8.481   4.337   3.511  0.00  0.00    +0.377 N 
ATOM     37  H   UNL     1      -8.108   4.612   2.595  0.00  0.00    -0.083 HD
ENDBRANCH  33  36
ENDBRANCH  32  33
ENDBRANCH  12  32
TORSDOF 7
