REMARK  Name = ZINC49560679
REMARK  4 active torsions:
REMARK  status: ('A' for Active; 'I' for Inactive)
REMARK    1  A    between atoms: C_3  and  S_8
REMARK    2  A    between atoms: C_5  and  C_6
REMARK    3  A    between atoms: C_6  and  N_7
REMARK    4  A    between atoms: S_8  and  N_11
REMARK                            x       y       z     vdW  Elec       q    Type
REMARK                         _______ _______ _______ _____ _____    ______ ____
ROOT
ATOM      1  S   UNL     1       4.001   1.932  -0.026  0.00  0.00    +0.107 S 
ATOM      2  O   UNL     1       4.799   0.900  -0.590  0.00  0.00    -0.146 OA
ATOM      3  O   UNL     1       3.957   3.244  -0.570  0.00  0.00    -0.146 OA
ENDROOT
BRANCH   1   4
ATOM      4  N   UNL     1       4.477   2.089   1.552  0.00  0.00    -0.103 NA
ATOM      5  C   UNL     1       5.682   2.520   1.833  0.00  0.00    +0.192 A 
ATOM      6  N   UNL     1       6.694   2.897   0.982  0.00  0.00    -0.336 N 
ATOM      7  C   UNL     1       7.898   3.324   1.500  0.00  0.00    +0.028 A 
ATOM      8  C   UNL     1       8.023   3.350   2.832  0.00  0.00    +0.012 A 
ATOM      9  S   UNL     1       6.450   2.783   3.425  0.00  0.00    -0.053 S 
ATOM     10  C   UNL     1       9.213   3.768   3.635  0.00  0.00    +0.044 C 
ATOM     11  C   UNL     1      10.432   3.829   2.703  0.00  0.00    +0.006 C 
ATOM     12  C   UNL     1      10.037   4.592   1.435  0.00  0.00    +0.006 C 
ATOM     13  C   UNL     1       9.061   3.755   0.608  0.00  0.00    +0.054 C 
ATOM     14  H   UNL     1       6.561   2.862   0.022  0.00  0.00    +0.168 HD
ENDBRANCH   1   4
BRANCH   1  17
ATOM     15  C   UNL     1      -0.016   1.351   0.009  0.00  0.00    +0.011 A 
ATOM     16  C   UNL     1       1.183   2.038   0.002  0.00  0.00    +0.037 A 
ATOM     17  C   UNL     1       2.343   1.336  -0.013  0.00  0.00    +0.150 A 
ATOM     18  S   UNL     1       1.754  -0.349  -0.017  0.00  0.00    -0.075 S 
ATOM     19  C   UNL     1       0.002  -0.004   0.002  0.00  0.00    -0.026 A 
BRANCH  19  20
ATOM     20  C   UNL     1      -1.155  -0.969   0.008  0.00  0.00    -0.043 C 
BRANCH  20  21
ATOM     21  N   UNL     1      -1.545  -1.275  -1.375  0.00  0.00    +0.381 N 
ATOM     22  H   UNL     1      -2.321  -1.921  -1.370  0.00  0.00    -0.090 HD
ATOM     23  H   UNL     1      -1.819  -0.424  -1.843  0.00  0.00    -0.090 HD
ATOM     24  H   UNL     1      -0.764  -1.690  -1.860  0.00  0.00    -0.090 HD
ENDBRANCH  20  21
ENDBRANCH  19  20
ENDBRANCH   1  17
TORSDOF 4
