REMARK  Name = ZINC66938996
REMARK  8 active torsions:
REMARK  status: ('A' for Active; 'I' for Inactive)
REMARK    1  A    between atoms: C_1  and  C_2
REMARK    2  A    between atoms: C_5  and  C_29
REMARK    3  A    between atoms: N_6  and  C_7
REMARK    4  A    between atoms: C_10  and  C_13
REMARK    5  A    between atoms: N_15  and  N_16
REMARK    6  A    between atoms: N_16  and  C_17
REMARK    7  A    between atoms: C_17  and  C_19
REMARK    8  A    between atoms: C_17  and  C_26
REMARK                            x       y       z     vdW  Elec       q    Type
REMARK                         _______ _______ _______ _____ _____    ______ ____
ROOT
ATOM      1  C   UNL     1      -1.073   0.933   5.832  0.00  0.00    +0.258 C 
ATOM      2  O   UNL     1       0.088   1.281   5.927  0.00  0.00    -0.269 OA
ATOM      3  N   UNL     1      -1.836   0.824   6.937  0.00  0.00    -0.246 N 
ATOM      4  H   UNL     1      -2.763   0.546   6.861  0.00  0.00    +0.169 HD
ENDROOT
BRANCH   1   8
ATOM      5  C   UNL     1      -2.723   0.063   2.016  0.00  0.00    +0.047 A 
ATOM      6  C   UNL     1      -1.395   0.461   2.123  0.00  0.00    +0.027 A 
ATOM      7  C   UNL     1      -0.857   0.744   3.358  0.00  0.00    +0.015 A 
ATOM      8  C   UNL     1      -1.647   0.631   4.505  0.00  0.00    +0.038 A 
ATOM      9  C   UNL     1      -2.981   0.231   4.394  0.00  0.00    +0.015 A 
ATOM     10  C   UNL     1      -3.514  -0.045   3.155  0.00  0.00    +0.027 A 
BRANCH   5  16
ATOM     11  C   UNL     1      -3.079   2.135  -0.217  0.00  0.00    +0.064 C 
ATOM     12  C   UNL     1      -3.439   0.672  -0.257  0.00  0.00    +0.021 A 
ATOM     13  C   UNL     1      -3.983   0.021  -1.305  0.00  0.00    +0.023 A 
ATOM     14  C   UNL     1      -4.158  -1.325  -0.922  0.00  0.00    +0.023 A 
ATOM     15  C   UNL     1      -3.716  -1.446   0.346  0.00  0.00    +0.021 A 
ATOM     16  N   UNL     1      -3.266  -0.224   0.760  0.00  0.00    -0.318 N 
ATOM     17  C   UNL     1      -3.711  -2.712   1.163  0.00  0.00    +0.064 C 
ENDBRANCH   5  16
ENDBRANCH   1   8
BRANCH   3  18
ATOM     18  N   UNL     1      -1.305   1.103   8.164  0.00  0.00    -0.224 NA
ATOM     19  H   UNL     1      -1.008   2.066   8.219  0.00  0.00    +0.145 HD
BRANCH  18  20
ATOM     20  C   UNL     1      -2.259   0.785   9.235  0.00  0.00    +0.188 C 
BRANCH  20  21
ATOM     21  C   UNL     1      -2.435  -0.709   9.324  0.00  0.00    -0.020 A 
ATOM     22  C   UNL     1      -2.063  -1.381  10.474  0.00  0.00    +0.008 A 
ATOM     23  C   UNL     1      -2.224  -2.751  10.556  0.00  0.00    +0.038 A 
ATOM     24  C   UNL     1      -2.758  -3.451   9.487  0.00  0.00    +0.123 A 
ATOM     25  C   UNL     1      -3.129  -2.777   8.336  0.00  0.00    +0.038 A 
ATOM     26  C   UNL     1      -2.972  -1.406   8.258  0.00  0.00    +0.008 A 
ATOM     27  F   UNL     1      -2.915  -4.790   9.567  0.00  0.00    -0.205 F 
ENDBRANCH  20  21
BRANCH  20  28
ATOM     28  C   UNL     1      -3.587   1.430   8.933  0.00  0.00    +0.234 C 
ATOM     29  O   UNL     1      -3.726   2.089   7.925  0.00  0.00    -0.274 OA
ATOM     30  N   UNL     1      -4.621   1.273   9.783  0.00  0.00    -0.328 N 
ATOM     31  H   UNL     1      -4.511   0.746  10.589  0.00  0.00    +0.145 HD
ATOM     32  H   UNL     1      -5.476   1.688   9.589  0.00  0.00    +0.145 HD
ENDBRANCH  20  28
ENDBRANCH  18  20
ENDBRANCH   3  18
TORSDOF 6
