REMARK  Name = ZINC19984784
REMARK  8 active torsions:
REMARK  status: ('A' for Active; 'I' for Inactive)
REMARK    1  A    between atoms: C_1  and  C_2
REMARK    2  A    between atoms: C_5  and  C_28
REMARK    3  A    between atoms: C_6  and  N_8
REMARK    4  A    between atoms: C_9  and  C_11
REMARK    5  A    between atoms: C_11  and  C_13
REMARK    6  A    between atoms: C_11  and  N_14
REMARK    7  A    between atoms: C_21  and  C_27
REMARK    8  A    between atoms: C_22  and  C_24
REMARK                            x       y       z     vdW  Elec       q    Type
REMARK                         _______ _______ _______ _____ _____    ______ ____
ROOT
ATOM      1  N   UNL     1      -3.516   2.116   0.127  0.00  0.00    -0.287 N 
ATOM      2  C   UNL     1      -3.628   2.927  -0.954  0.00  0.00    +0.204 A 
ATOM      3  N   UNL     1      -4.534   3.865  -1.021  0.00  0.00    -0.230 NA
ATOM      4  C   UNL     1      -5.394   4.074  -0.032  0.00  0.00    +0.116 A 
ATOM      5  C   UNL     1      -5.378   3.295   1.147  0.00  0.00    +0.076 A 
ATOM      6  C   UNL     1      -4.341   2.238   1.184  0.00  0.00    +0.263 A 
ATOM      7  O   UNL     1      -4.235   1.501   2.148  0.00  0.00    -0.267 OA
ATOM      8  C   UNL     1      -6.338   3.623   2.106  0.00  0.00    -0.017 A 
ATOM      9  C   UNL     1      -7.214   4.642   1.869  0.00  0.00    +0.079 A 
ATOM     10  S   UNL     1      -6.728   5.211   0.249  0.00  0.00    -0.064 S 
ATOM     11  C   UNL     1      -6.408   2.853   3.400  0.00  0.00    +0.046 C 
ENDROOT
BRANCH   9  12
ATOM     12  C   UNL     1      -8.288   5.145   2.731  0.00  0.00    +0.248 C 
ATOM     13  O   UNL     1      -8.485   4.635   3.819  0.00  0.00    -0.270 OA
ATOM     14  N   UNL     1      -9.058   6.172   2.320  0.00  0.00    -0.325 N 
ATOM     15  H   UNL     1      -9.864   6.549   2.966  0.00  0.00    +0.145 HD
ATOM     16  H   UNL     1      -8.880   6.633   1.337  0.00  0.00    +0.145 HD
ENDBRANCH   9  12
BRANCH   1  17
ATOM     17  C   UNL     1      -2.478   1.082   0.141  0.00  0.00    +0.174 C 
ATOM     18  C   UNL     1      -2.697   0.123  -1.031  0.00  0.00    +0.041 C 
BRANCH  17  20
ATOM     19  N   UNL     1      -0.011   0.966   0.007  0.00  0.00    -0.284 N 
ATOM     20  C   UNL     1      -1.123   1.728   0.016  0.00  0.00    +0.240 C 
ATOM     21  O   UNL     1      -1.032   2.934  -0.076  0.00  0.00    -0.273 OA
ATOM     22  H   UNL     1      -0.096  -0.131   0.022  0.00  0.00    +0.155 HD
BRANCH  19  28
ATOM     23  C   UNL     1       2.892   4.637  -1.498  0.00  0.00    +0.044 C 
ATOM     24  C   UNL     1       2.686   3.349  -0.742  0.00  0.00    -0.049 A 
ATOM     25  C   UNL     1       3.747   2.763  -0.075  0.00  0.00    +0.004 A 
ATOM     26  C   UNL     1       3.562   1.582   0.620  0.00  0.00    +0.005 A 
ATOM     27  C   UNL     1       2.317   0.984   0.649  0.00  0.00    -0.029 A 
ATOM     28  C   UNL     1       1.251   1.569  -0.020  0.00  0.00    +0.037 A 
ATOM     29  C   UNL     1       1.441   2.753  -0.722  0.00  0.00    +0.027 A 
ATOM     30  C   UNL     1       2.117  -0.304   1.405  0.00  0.00    +0.045 C 
ENDBRANCH  19  28
ENDBRANCH  17  20
ENDBRANCH   1  17
TORSDOF 4
