REMARK  Name = ZINC12496732
REMARK  7 active torsions:
REMARK  status: ('A' for Active; 'I' for Inactive)
REMARK    1  A    between atoms: C_1  and  O_2
REMARK    2  A    between atoms: O_2  and  C_3
REMARK    3  A    between atoms: C_6  and  C_10
REMARK    4  A    between atoms: N_12  and  C_13
REMARK    5  A    between atoms: C_13  and  N_15
REMARK    6  A    between atoms: N_15  and  C_16
REMARK    7  A    between atoms: C_17  and  C_25
REMARK                            x       y       z     vdW  Elec       q    Type
REMARK                         _______ _______ _______ _____ _____    ______ ____
ROOT
ATOM      1  N   UNL     1      -6.012   3.153   0.077  0.00  0.00    -0.291 N 
ATOM      2  H   UNL     1      -6.001   2.183   0.072  0.00  0.00    +0.154 HD
ENDROOT
BRANCH   1   3
ATOM      3  C   UNL     1      -7.220   3.832   0.092  0.00  0.00    +0.084 A 
ATOM      4  C   UNL     1      -8.505   3.307   0.097  0.00  0.00    +0.068 A 
ATOM      5  C   UNL     1      -9.614   4.246   0.118  0.00  0.00    -0.023 A 
ATOM      6  C   UNL     1      -9.264   5.550   0.121  0.00  0.00    -0.004 A 
ATOM      7  S   UNL     1      -7.493   5.543   0.103  0.00  0.00    -0.077 S 
ATOM      8  C   UNL     1     -10.183   6.732   0.134  0.00  0.00    +0.043 C 
ATOM      9  C   UNL     1     -11.594   6.252  -0.233  0.00  0.00    +0.005 C 
ATOM     10  C   UNL     1     -11.925   5.011   0.602  0.00  0.00    +0.005 C 
ATOM     11  C   UNL     1     -11.079   3.827   0.131  0.00  0.00    +0.037 C 
BRANCH   4  12
ATOM     12  C   UNL     1      -8.734   1.859   0.084  0.00  0.00    +0.244 C 
ATOM     13  O   UNL     1      -8.822   1.248   1.133  0.00  0.00    -0.270 OA
ATOM     14  N   UNL     1      -8.848   1.206  -1.089  0.00  0.00    -0.325 N 
ATOM     15  H   UNL     1      -8.778   1.693  -1.925  0.00  0.00    +0.145 HD
ATOM     16  H   UNL     1      -9.000   0.247  -1.098  0.00  0.00    +0.145 HD
ENDBRANCH   4  12
ENDBRANCH   1   3
BRANCH   1  17
ATOM     17  C   UNL     1      -4.853   3.841   0.070  0.00  0.00    +0.141 C 
ATOM     18  S   UNL     1      -4.872   5.553   0.078  0.00  0.00    -0.018 S 
BRANCH  17  21
ATOM     19  C   UNL     1      -2.519   3.868   0.047  0.00  0.00    +0.250 C 
ATOM     20  O   UNL     1      -2.533   5.083   0.053  0.00  0.00    -0.270 OA
ATOM     21  N   UNL     1      -3.678   3.180   0.055  0.00  0.00    -0.264 N 
ATOM     22  H   UNL     1      -3.667   2.210   0.050  0.00  0.00    +0.157 HD
BRANCH  19  26
ATOM     23  C   UNL     1       1.182   1.786   0.000  0.00  0.00    +0.133 A 
ATOM     24  C   UNL     1      -0.013   1.076   0.008  0.00  0.00    +0.047 A 
ATOM     25  C   UNL     1      -1.215   1.747   0.017  0.00  0.00    +0.017 A 
ATOM     26  C   UNL     1      -1.233   3.145   0.031  0.00  0.00    +0.038 A 
ATOM     27  C   UNL     1      -0.030   3.855   0.023  0.00  0.00    +0.031 A 
ATOM     28  C   UNL     1       1.169   3.176   0.007  0.00  0.00    +0.056 A 
ATOM     29  I   UNL     1       2.974   4.240  -0.004  0.00  0.00    -0.040 I 
BRANCH  23  31
ATOM     30  C   UNL     1       2.306  -0.307  -0.022  0.00  0.00    +0.277 C 
ATOM     31  O   UNL     1       2.365   1.121  -0.015  0.00  0.00    -0.494 OA
ENDBRANCH  23  31
ENDBRANCH  19  26
ENDBRANCH  17  21
ENDBRANCH   1  17
TORSDOF 6
