REMARK  Name = ZINC40757794
REMARK  6 active torsions:
REMARK  status: ('A' for Active; 'I' for Inactive)
REMARK    1  A    between atoms: C_1  and  N_2
REMARK    2  A    between atoms: N_2  and  C_3
REMARK    3  A    between atoms: C_10  and  N_27
REMARK    4  A    between atoms: C_11  and  N_15
REMARK    5  A    between atoms: C_21  and  O_25
REMARK    6  A    between atoms: O_25  and  C_26
REMARK                            x       y       z     vdW  Elec       q    Type
REMARK                         _______ _______ _______ _____ _____    ______ ____
ROOT
ATOM      1  C   UNL     1       1.268   0.385   0.636  0.00  0.00    +0.137 C 
ATOM      2  N   UNL     1       0.004   0.003   0.000  0.00  0.00    -0.288 N 
ATOM      3  C   UNL     1       0.010  -0.597  -1.254  0.00  0.00    +0.128 A 
ATOM      4  C   UNL     1       0.056   0.181  -2.413  0.00  0.00    +0.104 A 
ATOM      5  C   UNL     1       0.060  -0.472  -3.646  0.00  0.00    +0.150 A 
ATOM      6  N   UNL     1       0.020  -1.802  -3.671  0.00  0.00    -0.221 NA
ATOM      7  C   UNL     1      -0.023  -2.499  -2.554  0.00  0.00    +0.200 A 
ATOM      8  N   UNL     1      -0.023  -1.922  -1.369  0.00  0.00    -0.333 N 
ATOM      9  H   UNL     1      -0.051  -2.471  -0.569  0.00  0.00    +0.168 HD
ENDROOT
BRANCH   5  10
ATOM     10  N   UNL     1       0.105   0.256  -4.831  0.00  0.00    -0.277 N 
ATOM     11  C   UNL     1       0.108  -0.403  -6.047  0.00  0.00    +0.165 A 
ATOM     12  N   UNL     1       0.068  -1.694  -6.284  0.00  0.00    -0.225 NA
ATOM     13  C   UNL     1       0.077  -2.202  -7.537  0.00  0.00    +0.081 A 
ATOM     14  C   UNL     1       0.038  -3.561  -7.927  0.00  0.00    +0.032 A 
ATOM     15  C   UNL     1       0.056  -3.911  -9.251  0.00  0.00    +0.048 A 
ATOM     16  C   UNL     1       0.112  -2.950 -10.256  0.00  0.00    +0.121 A 
ATOM     17  C   UNL     1       0.151  -1.608  -9.908  0.00  0.00    +0.063 A 
ATOM     18  C   UNL     1       0.134  -1.252  -8.582  0.00  0.00    +0.044 A 
ATOM     19  S   UNL     1       0.161   0.287  -7.695  0.00  0.00    -0.052 S 
ATOM     20  H   UNL     1       0.134   1.225  -4.804  0.00  0.00    +0.156 HD
BRANCH  16  21
ATOM     21  O   UNL     1       0.130  -3.323 -11.564  0.00  0.00    -0.495 OA
ATOM     22  C   UNL     1       0.087  -4.724 -11.840  0.00  0.00    +0.277 C 
ENDBRANCH  16  21
ENDBRANCH   5  10
BRANCH   2  23
ATOM     23  C   UNL     1      -1.208   0.243   0.654  0.00  0.00    +0.035 A 
ATOM     24  C   UNL     1      -2.398  -0.213   0.104  0.00  0.00    +0.023 A 
ATOM     25  C   UNL     1      -3.594   0.025   0.753  0.00  0.00    +0.002 A 
ATOM     26  C   UNL     1      -3.606   0.718   1.950  0.00  0.00    +0.000 A 
ATOM     27  C   UNL     1      -2.423   1.174   2.501  0.00  0.00    +0.002 A 
ATOM     28  C   UNL     1      -1.223   0.933   1.860  0.00  0.00    +0.023 A 
ENDBRANCH   2  23
BRANCH   4  29
ATOM     29  N   UNL     1       0.097   1.583  -2.339  0.00  0.00    -0.353 N 
ATOM     30  H   UNL     1       0.020   2.025  -1.480  0.00  0.00    +0.143 HD
ATOM     31  H   UNL     1       0.203   2.108  -3.148  0.00  0.00    +0.143 HD
ENDBRANCH   4  29
TORSDOF 4
