REMARK  Name = ZINC22321920
REMARK  13 active torsions:
REMARK  status: ('A' for Active; 'I' for Inactive)
REMARK    1  A    between atoms: C_1  and  C_2
REMARK    2  A    between atoms: C_5  and  S_8
REMARK    3  A    between atoms: S_8  and  N_11
REMARK    4  A    between atoms: N_11  and  C_12
REMARK    5  A    between atoms: N_11  and  C_29
REMARK    6  A    between atoms: C_12  and  C_13
REMARK    7  A    between atoms: N_15  and  C_16
REMARK    8  A    between atoms: C_16  and  C_18
REMARK    9  A    between atoms: C_16  and  C_19
REMARK   10  A    between atoms: C_22  and  S_25
REMARK   11  A    between atoms: S_25  and  C_28
REMARK   12  A    between atoms: C_32  and  O_35
REMARK   13  A    between atoms: O_35  and  C_36
REMARK                            x       y       z     vdW  Elec       q    Type
REMARK                         _______ _______ _______ _____ _____    ______ ____
ROOT
ATOM      1  N   UNL     1       2.474   4.169  -0.009  0.00  0.00    -0.194 N 
ENDROOT
BRANCH   1   2
ATOM      2  C   UNL     1       3.162   4.308   1.202  0.00  0.00    +0.052 A 
ATOM      3  C   UNL     1       4.134   5.290   1.339  0.00  0.00    +0.028 A 
ATOM      4  C   UNL     1       4.808   5.431   2.536  0.00  0.00    +0.047 A 
ATOM      5  C   UNL     1       4.523   4.584   3.597  0.00  0.00    +0.120 A 
ATOM      6  C   UNL     1       3.556   3.600   3.459  0.00  0.00    +0.047 A 
ATOM      7  C   UNL     1       2.877   3.461   2.264  0.00  0.00    +0.028 A 
BRANCH   5   8
ATOM      8  O   UNL     1       5.192   4.720   4.773  0.00  0.00    -0.495 OA
ATOM      9  C   UNL     1       6.175   5.754   4.845  0.00  0.00    +0.277 C 
ENDBRANCH   5   8
ENDBRANCH   1   2
BRANCH   1  10
ATOM     10  S   UNL     1       3.311   3.891  -1.410  0.00  0.00    +0.075 S 
ATOM     11  O   UNL     1       4.601   3.431  -1.028  0.00  0.00    -0.150 OA
ATOM     12  O   UNL     1       2.453   3.136  -2.254  0.00  0.00    -0.150 OA
BRANCH  10  17
ATOM     13  C   UNL     1       4.112   9.232  -4.101  0.00  0.00    +0.044 C 
ATOM     14  C   UNL     1       3.912   7.897  -3.429  0.00  0.00    -0.050 A 
ATOM     15  C   UNL     1       4.906   7.373  -2.625  0.00  0.00    +0.005 A 
ATOM     16  C   UNL     1       4.723   6.149  -2.008  0.00  0.00    +0.029 A 
ATOM     17  C   UNL     1       3.545   5.450  -2.196  0.00  0.00    +0.109 A 
ATOM     18  C   UNL     1       2.553   5.973  -3.004  0.00  0.00    +0.029 A 
ATOM     19  C   UNL     1       2.734   7.199  -3.616  0.00  0.00    +0.005 A 
ENDBRANCH  10  17
ENDBRANCH   1  10
BRANCH   1  20
ATOM     20  C   UNL     1       1.012   4.269  -0.037  0.00  0.00    +0.227 C 
BRANCH  20  21
ATOM     21  C   UNL     1       0.411   2.927   0.293  0.00  0.00    +0.233 C 
ATOM     22  O   UNL     1       1.132   1.980   0.529  0.00  0.00    -0.274 OA
ATOM     23  N   UNL     1      -0.928   2.779   0.327  0.00  0.00    -0.307 N 
ATOM     24  H   UNL     1      -1.582   3.637   0.114  0.00  0.00    +0.149 HD
BRANCH  23  25
ATOM     25  C   UNL     1      -1.513   1.475   0.648  0.00  0.00    +0.100 C 
ATOM     26  C   UNL     1      -1.599   0.627  -0.623  0.00  0.00    +0.033 C 
BRANCH  25  27
ATOM     27  C   UNL     1      -2.896   1.670   1.216  0.00  0.00    -0.027 A 
ATOM     28  C   UNL     1      -3.733   2.630   0.680  0.00  0.00    +0.007 A 
ATOM     29  C   UNL     1      -5.003   2.806   1.197  0.00  0.00    +0.027 A 
ATOM     30  C   UNL     1      -5.431   2.029   2.257  0.00  0.00    +0.088 A 
ATOM     31  C   UNL     1      -4.592   1.072   2.796  0.00  0.00    +0.027 A 
ATOM     32  C   UNL     1      -3.324   0.893   2.276  0.00  0.00    +0.007 A 
BRANCH  30  33
ATOM     33  S   UNL     1      -7.047   2.258   2.921  0.00  0.00    -0.006 S 
ATOM     34  O   UNL     1      -7.809   2.790   1.846  0.00  0.00    -0.170 OA
ATOM     35  O   UNL     1      -7.385   1.003   3.496  0.00  0.00    -0.170 OA
ATOM     36  C   UNL     1      -6.844   3.506   4.221  0.00  0.00    +0.200 C 
ENDBRANCH  30  33
ENDBRANCH  25  27
ENDBRANCH  23  25
ENDBRANCH  20  21
ENDBRANCH   1  20
TORSDOF 9
