REMARK  Name = ZINC22610606
REMARK  7 active torsions:
REMARK  status: ('A' for Active; 'I' for Inactive)
REMARK    1  A    between atoms: C_1  and  C_2
REMARK    2  A    between atoms: C_8  and  O_9
REMARK    3  A    between atoms: C_18  and  C_20
REMARK    4  A    between atoms: C_20  and  N_21
REMARK    5  A    between atoms: N_24  and  C_27
REMARK    6  A    between atoms: C_27  and  C_28
REMARK    7  A    between atoms: C_27  and  C_34
REMARK                            x       y       z     vdW  Elec       q    Type
REMARK                         _______ _______ _______ _____ _____    ______ ____
ROOT
ATOM      1  C   UNL     1      -0.627   1.562  -0.064  0.00  0.00    +0.045 C 
ATOM      2  C   UNL     1      -0.578   0.056  -0.047  0.00  0.00    -0.031 A 
ATOM      3  C   UNL     1      -0.526  -0.654  -1.209  0.00  0.00    +0.048 A 
ATOM      4  C   UNL     1      -0.480  -2.060  -1.168  0.00  0.00    +0.126 A 
ATOM      5  N   UNL     1      -0.486  -2.718  -0.009  0.00  0.00    -0.231 NA
ATOM      6  C   UNL     1      -0.535  -2.072   1.142  0.00  0.00    +0.091 A 
ATOM      7  C   UNL     1      -0.578  -0.654   1.170  0.00  0.00    +0.084 A 
ATOM      8  C   UNL     1      -0.624   0.005   2.408  0.00  0.00    +0.294 A 
ATOM      9  O   UNL     1      -0.624  -0.672   3.558  0.00  0.00    -0.424 OA
ATOM     10  C   UNL     1      -0.580  -2.020   3.615  0.00  0.00    +0.141 A 
ATOM     11  C   UNL     1      -0.543  -2.781   2.435  0.00  0.00    +0.044 A 
ATOM     12  C   UNL     1      -0.498  -4.172   2.498  0.00  0.00    +0.014 A 
ATOM     13  C   UNL     1      -0.508  -4.799   3.725  0.00  0.00    +0.001 A 
ATOM     14  C   UNL     1      -0.562  -4.051   4.891  0.00  0.00    +0.004 A 
ATOM     15  C   UNL     1      -0.582  -2.673   4.841  0.00  0.00    +0.047 A 
ATOM     16  N   UNL     1      -0.428  -2.756  -2.324  0.00  0.00    -0.269 N 
ATOM     17  C   UNL     1      -0.385  -4.076  -2.299  0.00  0.00    +0.232 C 
ATOM     18  O   UNL     1      -0.391  -4.666  -1.234  0.00  0.00    -0.274 OA
ATOM     19  H   UNL     1      -0.424  -2.287  -3.173  0.00  0.00    +0.156 HD
ENDROOT
BRANCH   8  20
ATOM     20  O   UNL     1      -0.669   1.347   2.436  0.00  0.00    -0.480 OA
ATOM     21  H   UNL     1      -0.699   1.721   3.328  0.00  0.00    +0.295 HD
ENDBRANCH   8  20
BRANCH  17  22
ATOM     22  C   UNL     1      -0.328  -4.853  -3.589  0.00  0.00    +0.181 C 
BRANCH  22  23
ATOM     23  N   UNL     1      -0.287  -6.291  -3.294  0.00  0.00    -0.292 NA
ATOM     24  C   UNL     1      -1.543  -6.738  -2.676  0.00  0.00    +0.100 C 
ATOM     25  C   UNL     1      -1.430  -8.220  -2.312  0.00  0.00    +0.100 C 
ATOM     26  N   UNL     1      -1.136  -8.999  -3.523  0.00  0.00    -0.289 NA
ATOM     27  C   UNL     1       0.120  -8.552  -4.141  0.00  0.00    +0.100 C 
ATOM     28  C   UNL     1       0.007  -7.069  -4.505  0.00  0.00    +0.100 C 
BRANCH  26  29
ATOM     29  C   UNL     1      -1.095 -10.437  -3.228  0.00  0.00    +0.117 C 
BRANCH  29  30
ATOM     30  C   UNL     1      -2.411 -10.865  -2.631  0.00  0.00    -0.026 A 
ATOM     31  C   UNL     1      -3.598 -10.428  -3.188  0.00  0.00    +0.005 A 
ATOM     32  C   UNL     1      -4.805 -10.820  -2.640  0.00  0.00    +0.000 A 
ATOM     33  C   UNL     1      -4.825 -11.651  -1.536  0.00  0.00    +0.000 A 
ATOM     34  C   UNL     1      -3.638 -12.089  -0.979  0.00  0.00    +0.000 A 
ATOM     35  C   UNL     1      -2.431 -11.700  -1.529  0.00  0.00    +0.005 A 
ENDBRANCH  29  30
BRANCH  29  36
ATOM     36  C   UNL     1      -0.848 -11.204  -4.501  0.00  0.00    -0.026 A 
ATOM     37  C   UNL     1      -1.542 -10.878  -5.651  0.00  0.00    +0.005 A 
ATOM     38  C   UNL     1      -1.316 -11.582  -6.819  0.00  0.00    +0.000 A 
ATOM     39  C   UNL     1      -0.394 -12.612  -6.837  0.00  0.00    +0.000 A 
ATOM     40  C   UNL     1       0.301 -12.938  -5.688  0.00  0.00    +0.000 A 
ATOM     41  C   UNL     1       0.077 -12.231  -4.521  0.00  0.00    +0.005 A 
ENDBRANCH  29  36
ENDBRANCH  26  29
ENDBRANCH  22  23
ENDBRANCH  17  22
TORSDOF 6
