REMARK  Name = ZINC20238972
REMARK  5 active torsions:
REMARK  status: ('A' for Active; 'I' for Inactive)
REMARK    1  A    between atoms: C_3  and  C_6
REMARK    2  A    between atoms: C_6  and  S_7
REMARK    3  A    between atoms: S_7  and  C_8
REMARK    4  A    between atoms: C_11  and  C_13
REMARK    5  A    between atoms: C_23  and  C_25
REMARK                            x       y       z     vdW  Elec       q    Type
REMARK                         _______ _______ _______ _____ _____    ______ ____
ROOT
ATOM      1  C   UNL     1       8.944   0.443  -0.373  0.00  0.00    +0.063 C 
ATOM      2  C   UNL     1       8.636   0.394  -1.730  0.00  0.00    +0.084 C 
ATOM      3  C   UNL     1       7.235   0.466  -2.216  0.00  0.00    +0.153 C 
ATOM      4  N   UNL     1       6.300   1.161  -1.617  0.00  0.00    -0.283 NA
ATOM      5  N   UNL     1       7.008  -0.288  -3.388  0.00  0.00    -0.152 N 
ATOM      6  C   UNL     1       8.097  -0.560  -4.189  0.00  0.00    +0.181 C 
ATOM      7  N   UNL     1       9.352  -0.281  -3.947  0.00  0.00    -0.152 NA
ATOM      8  C   UNL     1       9.688   0.276  -2.762  0.00  0.00    +0.273 C 
ATOM      9  O   UNL     1      10.825   0.667  -2.548  0.00  0.00    -0.268 OA
ATOM     10  S   UNL     1       7.347  -1.381  -5.569  0.00  0.00    -0.037 S 
ATOM     11  C   UNL     1       5.670  -1.397  -4.949  0.00  0.00    +0.106 C 
ATOM     12  N   UNL     1       5.790  -0.771  -3.813  0.00  0.00    -0.169 NA
ATOM     13  H   UNL     1       6.529   1.740  -0.874  0.00  0.00    +0.188 HD
ENDROOT
BRANCH  11  14
ATOM     14  C   UNL     1       4.434  -1.984  -5.580  0.00  0.00    +0.022 C 
ATOM     15  C   UNL     1       3.232  -1.745  -4.664  0.00  0.00    +0.017 C 
ATOM     16  C   UNL     1       1.976  -2.341  -5.305  0.00  0.00    -0.010 C 
ATOM     17  C   UNL     1       1.727  -1.672  -6.658  0.00  0.00    +0.007 C 
ATOM     18  C   UNL     1       2.929  -1.910  -7.574  0.00  0.00    -0.010 C 
ATOM     19  C   UNL     1       4.185  -1.314  -6.933  0.00  0.00    +0.017 C 
ATOM     20  C   UNL     1       3.125  -3.414  -7.777  0.00  0.00    +0.007 C 
ATOM     21  C   UNL     1       3.374  -4.083  -6.424  0.00  0.00    -0.010 C 
ATOM     22  C   UNL     1       2.172  -3.845  -5.508  0.00  0.00    +0.007 C 
ATOM     23  C   UNL     1       4.630  -3.487  -5.783  0.00  0.00    +0.017 C 
ENDBRANCH  11  14
BRANCH   1  27
ATOM     24  C   UNL     1       5.944   0.032   1.479  0.00  0.00    +0.162 A 
ATOM     25  C   UNL     1       6.815   0.302   2.515  0.00  0.00    +0.057 A 
ATOM     26  C   UNL     1       8.073   0.494   1.953  0.00  0.00    +0.050 A 
ATOM     27  C   UNL     1       7.927   0.334   0.579  0.00  0.00    +0.130 A 
ATOM     28  O   UNL     1       6.628   0.049   0.325  0.00  0.00    -0.449 OA
BRANCH  24  29
ATOM     29  S   UNL     1       4.219  -0.290   1.645  0.00  0.00    -0.080 S 
BRANCH  29  30
ATOM     30  C   UNL     1       3.659  -0.572  -0.057  0.00  0.00    +0.151 C 
BRANCH  30  33
ATOM     31  C   UNL     1      -0.025  -0.656  -0.122  0.00  0.00    +0.041 A 
ATOM     32  C   UNL     1       1.200   0.051  -0.166  0.00  0.00    +0.045 A 
ATOM     33  C   UNL     1       2.181  -0.863  -0.058  0.00  0.00    +0.115 A 
ATOM     34  O   UNL     1       1.619  -2.078   0.048  0.00  0.00    -0.467 OA
ATOM     35  C   UNL     1       0.282  -1.959   0.010  0.00  0.00    +0.195 A 
ENDBRANCH  30  33
ENDBRANCH  29  30
ENDBRANCH  24  29
ENDBRANCH   1  27
TORSDOF 5
