REMARK  Name = ZINC52809046
REMARK  13 active torsions:
REMARK  status: ('A' for Active; 'I' for Inactive)
REMARK    1  A    between atoms: C_1  and  N_2
REMARK    2  A    between atoms: C_5  and  N_8
REMARK    3  A    between atoms: N_8  and  C_9
REMARK    4  A    between atoms: N_8  and  C_10
REMARK    5  A    between atoms: C_10  and  C_11
REMARK    6  A    between atoms: C_11  and  N_12
REMARK    7  A    between atoms: N_12  and  C_13
REMARK    8  A    between atoms: C_14  and  C_16
REMARK    9  A    between atoms: C_16  and  C_18
REMARK   10  A    between atoms: C_16  and  N_22
REMARK   11  A    between atoms: C_18  and  C_19
REMARK   12  A    between atoms: C_19  and  O_20
REMARK   13  A    between atoms: O_20  and  C_21
REMARK                            x       y       z     vdW  Elec       q    Type
REMARK                         _______ _______ _______ _____ _____    ______ ____
ROOT
ATOM      1  N   UNL     1       2.824  -6.735   1.997  0.00  0.00    -0.305 N 
ATOM      2  C   UNL     1       2.135  -7.159   3.218  0.00  0.00    +0.132 C 
ATOM      3  C   UNL     1       4.159  -6.886   1.890  0.00  0.00    +0.201 C 
ATOM      4  O   UNL     1       4.730  -6.535   0.879  0.00  0.00    -0.277 OA
ENDROOT
BRANCH   1   5
ATOM      5  C   UNL     1       2.063  -6.147   0.892  0.00  0.00    +0.122 C 
BRANCH   5   6
ATOM      6  C   UNL     1       1.991  -4.630   1.073  0.00  0.00    +0.103 C 
BRANCH   6   7
ATOM      7  N   UNL     1       1.227  -4.040  -0.035  0.00  0.00    -0.301 NA
ATOM      8  C   UNL     1      -0.178  -4.464   0.010  0.00  0.00    +0.105 C 
BRANCH   7  13
ATOM      9  C   UNL     1      -0.018   1.465   0.010  0.00  0.00    -0.096 C 
ATOM     10  N   UNL     1       0.002  -0.004   0.002  0.00  0.00    +0.378 N 
ATOM     11  C   UNL     1       0.681  -0.476  -1.210  0.00  0.00    -0.078 C 
ATOM     12  C   UNL     1       0.634  -2.005  -1.264  0.00  0.00    +0.000 C 
ATOM     13  C   UNL     1       1.336  -2.575  -0.029  0.00  0.00    +0.053 C 
ATOM     14  C   UNL     1       0.666  -2.018   1.230  0.00  0.00    +0.000 C 
ATOM     15  C   UNL     1       0.712  -0.489   1.192  0.00  0.00    -0.078 C 
ATOM     16  H   UNL     1      -0.945  -0.352   0.012  0.00  0.00    -0.082 HD
ENDBRANCH   7  13
ENDBRANCH   6   7
ENDBRANCH   5   6
ENDBRANCH   1   5
BRANCH   3  17
ATOM     17  C   UNL     1       4.943  -7.490   3.027  0.00  0.00    +0.015 C 
BRANCH  17  18
ATOM     18  N   UNL     1       6.359  -7.122   2.896  0.00  0.00    +0.386 N 
ATOM     19  H   UNL     1       6.717  -7.470   2.018  0.00  0.00    -0.089 HD
ATOM     20  H   UNL     1       6.449  -6.118   2.922  0.00  0.00    -0.089 HD
ATOM     21  H   UNL     1       6.883  -7.527   3.656  0.00  0.00    -0.089 HD
ENDBRANCH  17  18
BRANCH  17  22
ATOM     22  C   UNL     1       4.806  -9.014   2.987  0.00  0.00    +0.021 C 
BRANCH  22  23
ATOM     23  C   UNL     1       5.497  -9.620   4.210  0.00  0.00    +0.158 C 
BRANCH  23  24
ATOM     24  O   UNL     1       5.369 -11.043   4.173  0.00  0.00    -0.383 OA
ATOM     25  C   UNL     1       5.983 -11.710   5.277  0.00  0.00    +0.193 C 
ENDBRANCH  23  24
ENDBRANCH  22  23
ENDBRANCH  17  22
ENDBRANCH   3  17
TORSDOF 9
