REMARK  Name = ZINC12711305
REMARK  11 active torsions:
REMARK  status: ('A' for Active; 'I' for Inactive)
REMARK    1  A    between atoms: C_1  and  O_2
REMARK    2  A    between atoms: O_2  and  C_3
REMARK    3  A    between atoms: C_8  and  N_9
REMARK    4  A    between atoms: N_9  and  C_10
REMARK    5  A    between atoms: C_10  and  C_12
REMARK    6  A    between atoms: C_10  and  C_17
REMARK    7  A    between atoms: N_19  and  C_20
REMARK    8  A    between atoms: C_20  and  C_21
REMARK    9  A    between atoms: C_27  and  C_29
REMARK   10  A    between atoms: C_30  and  N_37
REMARK   11  A    between atoms: C_31  and  C_34
REMARK                            x       y       z     vdW  Elec       q    Type
REMARK                         _______ _______ _______ _____ _____    ______ ____
ROOT
ATOM      1  N   UNL     1      -1.188   1.871   0.016  0.00  0.00    -0.247 N 
ATOM      2  C   UNL     1      -0.118   1.052   0.000  0.00  0.00    +0.262 C 
ATOM      3  O   UNL     1      -0.275  -0.155   0.017  0.00  0.00    -0.269 OA
ENDROOT
BRANCH   1   9
ATOM      4  C   UNL     1      -0.801   3.953   1.188  0.00  0.00    +0.141 A 
ATOM      5  C   UNL     1      -0.623   5.327   1.163  0.00  0.00    +0.047 A 
ATOM      6  C   UNL     1      -0.649   6.006  -0.041  0.00  0.00    +0.004 A 
ATOM      7  C   UNL     1      -0.854   5.318  -1.223  0.00  0.00    +0.002 A 
ATOM      8  C   UNL     1      -1.027   3.947  -1.208  0.00  0.00    +0.027 A 
ATOM      9  C   UNL     1      -1.007   3.259  -0.003  0.00  0.00    +0.079 A 
BRANCH   4  11
ATOM     10  C   UNL     1      -0.559   4.060   3.551  0.00  0.00    +0.277 C 
ATOM     11  O   UNL     1      -0.775   3.284   2.371  0.00  0.00    -0.493 OA
ENDBRANCH   4  11
ENDBRANCH   1   9
BRANCH   2  12
ATOM     12  C   UNL     1       1.234   1.614  -0.042  0.00  0.00    +0.116 A 
ATOM     13  C   UNL     1       2.465   0.956  -0.070  0.00  0.00    +0.076 A 
ATOM     14  C   UNL     1       3.542   1.841  -0.109  0.00  0.00    +0.155 A 
ATOM     15  N   UNL     1       3.311   3.136  -0.116  0.00  0.00    -0.203 NA
ATOM     16  S   UNL     1       1.746   3.318  -0.082  0.00  0.00    +0.019 S 
BRANCH  14  17
ATOM     17  C   UNL     1       4.925   1.331  -0.142  0.00  0.00    +0.262 C 
ATOM     18  O   UNL     1       5.131   0.133  -0.136  0.00  0.00    -0.269 OA
ATOM     19  N   UNL     1       5.961   2.193  -0.180  0.00  0.00    -0.324 N 
ATOM     20  H   UNL     1       5.796   3.149  -0.185  0.00  0.00    +0.145 HD
ATOM     21  H   UNL     1       6.870   1.857  -0.202  0.00  0.00    +0.145 HD
ENDBRANCH  14  17
BRANCH  13  22
ATOM     22  N   UNL     1       2.602  -0.425  -0.060  0.00  0.00    -0.355 N 
ATOM     23  H   UNL     1       1.814  -0.991  -0.032  0.00  0.00    +0.142 HD
ATOM     24  H   UNL     1       3.486  -0.825  -0.080  0.00  0.00    +0.142 HD
ENDBRANCH  13  22
ENDBRANCH   2  12
BRANCH   1  25
ATOM     25  C   UNL     1      -2.540   1.308   0.053  0.00  0.00    +0.204 C 
BRANCH  25  26
ATOM     26  C   UNL     1      -2.810   0.564  -1.230  0.00  0.00    +0.019 A 
ATOM     27  C   UNL     1      -3.914   0.589  -2.015  0.00  0.00    +0.013 A 
ATOM     28  C   UNL     1      -3.939  -0.182  -3.162  0.00  0.00    +0.008 A 
ATOM     29  C   UNL     1      -2.862  -0.948  -3.462  0.00  0.00    +0.045 A 
ATOM     30  S   UNL     1      -1.760  -0.585  -2.105  0.00  0.00    -0.099 S 
ENDBRANCH  25  26
BRANCH  25  31
ATOM     31  C   UNL     1      -2.658   0.360   1.218  0.00  0.00    +0.239 C 
ATOM     32  O   UNL     1      -1.707   0.172   1.946  0.00  0.00    -0.273 OA
ATOM     33  N   UNL     1      -3.822  -0.280   1.451  0.00  0.00    -0.311 N 
ATOM     34  H   UNL     1      -4.583  -0.130   0.869  0.00  0.00    +0.149 HD
BRANCH  33  35
ATOM     35  C   UNL     1      -3.937  -1.201   2.584  0.00  0.00    +0.135 C 
BRANCH  35  36
ATOM     36  C   UNL     1      -5.349  -1.789   2.622  0.00  0.00    +0.135 C 
ATOM     37  C   UNL     1      -5.480  -2.760   3.811  0.00  0.00    +0.035 C 
ATOM     38  C   UNL     1      -6.639  -2.174   4.654  0.00  0.00    +0.031 C 
ATOM     39  C   UNL     1      -7.379  -1.291   3.618  0.00  0.00    +0.160 C 
ATOM     40  O   UNL     1      -6.310  -0.738   2.821  0.00  0.00    -0.375 OA
ENDBRANCH  35  36
ENDBRANCH  33  35
ENDBRANCH  25  31
ENDBRANCH   1  25
TORSDOF 10
