REMARK  Name = ZINC38805286
REMARK  11 active torsions:
REMARK  status: ('A' for Active; 'I' for Inactive)
REMARK    1  A    between atoms: C_1  and  C_2
REMARK    2  A    between atoms: C_4  and  C_31
REMARK    3  A    between atoms: N_5  and  C_7
REMARK    4  A    between atoms: C_7  and  C_8
REMARK    5  A    between atoms: N_10  and  N_11
REMARK    6  A    between atoms: C_12  and  C_13
REMARK    7  A    between atoms: C_16  and  O_21
REMARK    8  A    between atoms: C_17  and  O_19
REMARK    9  A    between atoms: O_19  and  C_20
REMARK   10  A    between atoms: O_21  and  C_22
REMARK   11  A    between atoms: C_22  and  C_24
REMARK                            x       y       z     vdW  Elec       q    Type
REMARK                         _______ _______ _______ _____ _____    ______ ____
ROOT
ATOM      1  C   UNL     1       2.230  -6.878   4.220  0.00  0.00    -0.002 A 
ATOM      2  C   UNL     1       0.917  -6.650   3.798  0.00  0.00    +0.013 A 
ATOM      3  C   UNL     1      -0.116  -7.391   4.331  0.00  0.00    +0.051 A 
ATOM      4  C   UNL     1       0.144  -8.364   5.287  0.00  0.00    +0.173 A 
ATOM      5  C   UNL     1       1.450  -8.596   5.712  0.00  0.00    +0.163 A 
ATOM      6  C   UNL     1       2.492  -7.861   5.177  0.00  0.00    +0.059 A 
ENDROOT
BRANCH   1   8
ATOM      7  N   UNL     1       3.082  -5.013   2.967  0.00  0.00    -0.188 NA
ATOM      8  C   UNL     1       3.337  -6.087   3.651  0.00  0.00    +0.138 C 
BRANCH   7  11
ATOM      9  C   UNL     1       1.543  -3.311   2.336  0.00  0.00    +0.254 C 
ATOM     10  O   UNL     1       2.320  -2.946   1.478  0.00  0.00    -0.272 OA
ATOM     11  N   UNL     1       1.858  -4.352   3.131  0.00  0.00    -0.205 N 
ATOM     12  H   UNL     1       1.237  -4.644   3.817  0.00  0.00    +0.177 HD
BRANCH   9  13
ATOM     13  C   UNL     1       0.227  -2.599   2.512  0.00  0.00    +0.241 C 
BRANCH  13  18
ATOM     14  C   UNL     1       0.586   1.942   0.403  0.00  0.00    +0.068 C 
ATOM     15  C   UNL     1       0.291   0.482   0.632  0.00  0.00    +0.074 A 
ATOM     16  C   UNL     1      -0.306  -0.388  -0.287  0.00  0.00    +0.061 A 
ATOM     17  C   UNL     1      -0.397  -1.608   0.293  0.00  0.00    +0.051 A 
ATOM     18  N   UNL     1       0.124  -1.512   1.535  0.00  0.00    -0.258 N 
ATOM     19  N   UNL     1       0.554  -0.192   1.722  0.00  0.00    -0.175 NA
ATOM     20  C   UNL     1      -0.977  -2.849  -0.335  0.00  0.00    +0.066 C 
ATOM     21 BR   UNL     1      -0.884   0.061  -2.031  0.00  0.00    -0.047 Br
ENDBRANCH  13  18
ENDBRANCH   9  13
ENDBRANCH   7  11
ENDBRANCH   1   8
BRANCH   5  22
ATOM     22  O   UNL     1       1.701  -9.549   6.648  0.00  0.00    -0.491 OA
ATOM     23  C   UNL     1       3.063  -9.734   7.037  0.00  0.00    +0.277 C 
ENDBRANCH   5  22
BRANCH   4  24
ATOM     24  O   UNL     1      -0.879  -9.091   5.809  0.00  0.00    -0.419 OA
BRANCH  24  25
ATOM     25  C   UNL     1      -1.363  -8.728   7.013  0.00  0.00    +0.345 C 
ATOM     26  O   UNL     1      -0.950  -7.722   7.555  0.00  0.00    -0.245 OA
BRANCH  25  27
ATOM     27  C   UNL     1      -2.394  -9.553   7.673  0.00  0.00    +0.059 A 
ATOM     28  C   UNL     1      -2.866 -10.713   7.055  0.00  0.00    +0.016 A 
ATOM     29  C   UNL     1      -3.829 -11.479   7.677  0.00  0.00    +0.021 A 
ATOM     30  C   UNL     1      -4.329 -11.100   8.912  0.00  0.00    +0.041 A 
ATOM     31  C   UNL     1      -3.865  -9.950   9.530  0.00  0.00    +0.021 A 
ATOM     32  C   UNL     1      -2.897  -9.179   8.921  0.00  0.00    +0.016 A 
ATOM     33 CL   UNL     1      -5.541 -12.069   9.688  0.00  0.00    -0.084 Cl
ENDBRANCH  25  27
ENDBRANCH  24  25
ENDBRANCH   4  24
TORSDOF 8
