REMARK  Name = ZINC05386603
REMARK  12 active torsions:
REMARK  status: ('A' for Active; 'I' for Inactive)
REMARK    1  A    between atoms: C_3  and  N_24
REMARK    2  A    between atoms: C_6  and  N_7
REMARK    3  A    between atoms: N_7  and  C_8
REMARK    4  A    between atoms: C_8  and  C_9
REMARK    5  A    between atoms: C_9  and  C_10
REMARK    6  A    between atoms: C_10  and  O_11
REMARK    7  A    between atoms: C_15  and  O_23
REMARK    8  A    between atoms: C_18  and  O_22
REMARK    9  A    between atoms: N_24  and  C_25
REMARK   10  A    between atoms: C_25  and  C_26
REMARK   11  A    between atoms: C_26  and  C_27
REMARK   12  A    between atoms: C_27  and  O_28
REMARK                            x       y       z     vdW  Elec       q    Type
REMARK                         _______ _______ _______ _____ _____    ______ ____
ROOT
ATOM      1  C   UNL     1      -0.018   1.367  -0.045  0.00  0.00    +0.025 A 
ATOM      2  C   UNL     1       0.005  -0.007  -0.053  0.00  0.00    +0.025 A 
ATOM      3  C   UNL     1       1.219  -0.697  -0.014  0.00  0.00    +0.039 A 
ATOM      4  C   UNL     1       2.423   0.014   0.033  0.00  0.00    +0.056 A 
ATOM      5  C   UNL     1       2.400   1.424   0.041  0.00  0.00    +0.056 A 
ATOM      6  C   UNL     1       1.173   2.096   0.002  0.00  0.00    +0.039 A 
ATOM      7  C   UNL     1       3.660   2.182   0.092  0.00  0.00    +0.200 C 
ATOM      8  O   UNL     1       3.640   3.399   0.100  0.00  0.00    -0.286 OA
ATOM      9  C   UNL     1       4.947   1.465   0.133  0.00  0.00    +0.078 A 
ATOM     10  C   UNL     1       6.148   2.175   0.180  0.00  0.00    +0.129 A 
ATOM     11  C   UNL     1       7.359   1.489   0.219  0.00  0.00    +0.050 A 
ATOM     12  C   UNL     1       7.382   0.111   0.210  0.00  0.00    +0.050 A 
ATOM     13  C   UNL     1       6.194  -0.615   0.163  0.00  0.00    +0.129 A 
ATOM     14  C   UNL     1       4.970   0.056   0.124  0.00  0.00    +0.078 A 
ATOM     15  C   UNL     1       3.707  -0.702   0.074  0.00  0.00    +0.200 C 
ATOM     16  O   UNL     1       3.727  -1.919   0.067  0.00  0.00    -0.286 OA
ENDROOT
BRANCH   6  17
ATOM     17  N   UNL     1       1.140   3.483   0.009  0.00  0.00    -0.343 N 
ATOM     18  H   UNL     1       1.966   3.988  -0.051  0.00  0.00    +0.146 HD
BRANCH  17  19
ATOM     19  C   UNL     1      -0.143   4.184   0.106  0.00  0.00    +0.104 C 
BRANCH  19  20
ATOM     20  C   UNL     1       0.100   5.695   0.093  0.00  0.00    +0.046 C 
BRANCH  20  21
ATOM     21  C   UNL     1      -1.240   6.427   0.195  0.00  0.00    +0.157 C 
BRANCH  21  22
ATOM     22  O   UNL     1      -1.013   7.838   0.183  0.00  0.00    -0.395 OA
ATOM     23  H   UNL     1      -1.821   8.367   0.244  0.00  0.00    +0.209 HD
ENDBRANCH  21  22
ENDBRANCH  20  21
ENDBRANCH  19  20
ENDBRANCH  17  19
ENDBRANCH   6  17
BRANCH  13  24
ATOM     24  O   UNL     1       6.227  -1.971   0.156  0.00  0.00    -0.506 OA
ATOM     25  H   UNL     1       6.267  -2.359  -0.729  0.00  0.00    +0.292 HD
ENDBRANCH  13  24
BRANCH  10  26
ATOM     26  O   UNL     1       6.136   3.532   0.190  0.00  0.00    -0.506 OA
ATOM     27  H   UNL     1       6.164   3.932  -0.690  0.00  0.00    +0.292 HD
ENDBRANCH  10  26
BRANCH   3  28
ATOM     28  N   UNL     1       1.231  -2.084  -0.024  0.00  0.00    -0.343 N 
ATOM     29  H   UNL     1       2.073  -2.561  -0.089  0.00  0.00    +0.146 HD
BRANCH  28  30
ATOM     30  C   UNL     1      -0.028  -2.828   0.066  0.00  0.00    +0.104 C 
BRANCH  30  31
ATOM     31  C   UNL     1       0.264  -4.330   0.035  0.00  0.00    +0.046 C 
BRANCH  31  32
ATOM     32  C   UNL     1      -1.051  -5.107   0.128  0.00  0.00    +0.157 C 
BRANCH  32  33
ATOM     33  O   UNL     1      -0.778  -6.509   0.099  0.00  0.00    -0.395 OA
ATOM     34  H   UNL     1      -1.568  -7.064   0.155  0.00  0.00    +0.209 HD
ENDBRANCH  32  33
ENDBRANCH  31  32
ENDBRANCH  30  31
ENDBRANCH  28  30
ENDBRANCH   3  28
TORSDOF 12
