REMARK  Name = ZINC35271791
REMARK  10 active torsions:
REMARK  status: ('A' for Active; 'I' for Inactive)
REMARK    1  A    between atoms: C_3  and  O_37
REMARK    2  A    between atoms: C_6  and  C_7
REMARK    3  A    between atoms: C_15  and  O_35
REMARK    4  A    between atoms: C_16  and  C_19
REMARK    5  A    between atoms: C_17  and  O_18
REMARK    6  A    between atoms: C_21  and  O_34
REMARK    7  A    between atoms: C_23  and  O_33
REMARK    8  A    between atoms: C_25  and  O_32
REMARK    9  A    between atoms: C_27  and  C_30
REMARK   10  A    between atoms: C_30  and  O_31
REMARK                            x       y       z     vdW  Elec       q    Type
REMARK                         _______ _______ _______ _____ _____    ______ ____
ROOT
ATOM      1  C   UNL     1      -1.293  -0.774   0.011  0.00  0.00    +0.211 C 
ATOM      2  C   UNL     1      -1.619  -1.246  -1.414  0.00  0.00    +0.129 C 
ATOM      3  C   UNL     1      -2.910  -2.041  -1.340  0.00  0.00    +0.174 C 
ATOM      4  O   UNL     1      -3.769  -1.943  -2.191  0.00  0.00    -0.292 OA
ATOM      5  C   UNL     1      -3.066  -2.933  -0.186  0.00  0.00    +0.101 A 
ATOM      6  C   UNL     1      -2.171  -2.818   0.894  0.00  0.00    +0.139 A 
ATOM      7  C   UNL     1      -2.320  -3.649   1.989  0.00  0.00    +0.092 A 
ATOM      8  C   UNL     1      -3.341  -4.591   2.017  0.00  0.00    +0.130 A 
ATOM      9  C   UNL     1      -4.222  -4.714   0.950  0.00  0.00    +0.067 A 
ATOM     10  C   UNL     1      -4.092  -3.890  -0.154  0.00  0.00    +0.140 A 
ATOM     11  O   UNL     1      -1.167  -1.909   0.867  0.00  0.00    -0.483 OA
ENDROOT
BRANCH   1  17
ATOM     12  C   UNL     1      -0.017   1.378   0.010  0.00  0.00    +0.011 A 
ATOM     13  C   UNL     1       1.169   2.087   0.002  0.00  0.00    +0.046 A 
ATOM     14  C   UNL     1       2.380   1.409  -0.013  0.00  0.00    +0.117 A 
ATOM     15  C   UNL     1       2.396   0.022  -0.021  0.00  0.00    +0.046 A 
ATOM     16  C   UNL     1       1.207  -0.681  -0.013  0.00  0.00    +0.011 A 
ATOM     17  C   UNL     1       0.002  -0.004   0.002  0.00  0.00    -0.007 A 
BRANCH  14  18
ATOM     18  O   UNL     1       3.548   2.104  -0.021  0.00  0.00    -0.507 OA
ATOM     19  H   UNL     1       3.895   2.300   0.860  0.00  0.00    +0.292 HD
ENDBRANCH  14  18
ENDBRANCH   1  17
BRANCH   9  20
ATOM     20  C   UNL     1      -5.322  -5.744   0.996  0.00  0.00    +0.187 C 
ATOM     21  C   UNL     1      -6.426  -5.270   1.944  0.00  0.00    +0.179 C 
ATOM     22  C   UNL     1      -7.510  -6.348   2.031  0.00  0.00    +0.177 C 
ATOM     23  C   UNL     1      -6.872  -7.662   2.493  0.00  0.00    +0.176 C 
ATOM     24  C   UNL     1      -5.750  -8.043   1.523  0.00  0.00    +0.175 C 
ATOM     25  O   UNL     1      -4.792  -6.985   1.465  0.00  0.00    -0.361 OA
BRANCH  23  26
ATOM     26  O   UNL     1      -6.334  -7.496   3.806  0.00  0.00    -0.386 OA
ATOM     27  H   UNL     1      -6.991  -7.249   4.472  0.00  0.00    +0.210 HD
ENDBRANCH  23  26
BRANCH  22  28
ATOM     28  O   UNL     1      -8.511  -5.945   2.969  0.00  0.00    -0.386 OA
ATOM     29  H   UNL     1      -9.230  -6.583   3.075  0.00  0.00    +0.210 HD
ENDBRANCH  22  28
BRANCH  21  30
ATOM     30  O   UNL     1      -5.875  -5.039   3.242  0.00  0.00    -0.386 OA
ATOM     31  H   UNL     1      -6.520  -4.736   3.895  0.00  0.00    +0.210 HD
ENDBRANCH  21  30
BRANCH  24  32
ATOM     32  C   UNL     1      -5.069  -9.323   2.010  0.00  0.00    +0.190 C 
BRANCH  32  33
ATOM     33  O   UNL     1      -4.101  -9.744   1.047  0.00  0.00    -0.392 OA
ATOM     34  H   UNL     1      -3.628 -10.552   1.290  0.00  0.00    +0.210 HD
ENDBRANCH  32  33
ENDBRANCH  24  32
ENDBRANCH   9  20
BRANCH  10  35
ATOM     35  O   UNL     1      -4.950  -4.006  -1.198  0.00  0.00    -0.505 OA
ATOM     36  H   UNL     1      -4.660  -4.630  -1.878  0.00  0.00    +0.292 HD
ENDBRANCH  10  35
BRANCH   8  37
ATOM     37  O   UNL     1      -3.478  -5.401   3.097  0.00  0.00    -0.506 OA
ATOM     38  H   UNL     1      -4.054  -5.043   3.786  0.00  0.00    +0.292 HD
ENDBRANCH   8  37
TORSDOF 10
