REMARK  Name = ZINC35938786
REMARK  7 active torsions:
REMARK  status: ('A' for Active; 'I' for Inactive)
REMARK    1  A    between atoms: C_3  and  C_8
REMARK    2  A    between atoms: N_17  and  C_18
REMARK    3  A    between atoms: C_18  and  C_19
REMARK    4  A    between atoms: C_19  and  C_20
REMARK    5  A    between atoms: C_28  and  C_30
REMARK    6  A    between atoms: C_30  and  C_31
REMARK    7  A    between atoms: C_31  and  C_32
REMARK                            x       y       z     vdW  Elec       q    Type
REMARK                         _______ _______ _______ _____ _____    ______ ____
ROOT
ATOM      1  C   UNL     1       4.120   1.581  -2.294  0.00  0.00    -0.068 C 
ENDROOT
BRANCH   1  10
ATOM      2  C   UNL     1       3.672   2.186  -0.021  0.00  0.00    -0.006 C 
ATOM      3  C   UNL     1       4.256   2.220   1.387  0.00  0.00    -0.047 A 
ATOM      4  C   UNL     1       3.498   2.403   2.541  0.00  0.00    +0.010 A 
ATOM      5  C   UNL     1       4.102   2.417   3.753  0.00  0.00    +0.045 A 
ATOM      6  S   UNL     1       5.816   2.167   3.313  0.00  0.00    -0.101 S 
ATOM      7  C   UNL     1       5.599   2.065   1.560  0.00  0.00    -0.010 A 
ATOM      8  C   UNL     1       6.614   1.861   0.483  0.00  0.00    +0.024 C 
ATOM      9  C   UNL     1       5.940   2.197  -0.859  0.00  0.00    -0.072 C 
ATOM     10  N   UNL     1       4.631   1.530  -0.917  0.00  0.00    +0.388 N 
ATOM     11  H   UNL     1       4.739   0.566  -0.640  0.00  0.00    -0.080 HD
BRANCH   2  14
ATOM     12  C   UNL     1      -0.017   1.377   0.010  0.00  0.00    +0.003 A 
ATOM     13  C   UNL     1       1.171   2.086   0.002  0.00  0.00    +0.002 A 
ATOM     14  C   UNL     1       2.378   1.413  -0.013  0.00  0.00    -0.054 A 
ATOM     15  C   UNL     1       2.399   0.030  -0.021  0.00  0.00    +0.040 A 
ATOM     16  C   UNL     1       1.211  -0.679  -0.013  0.00  0.00    +0.124 A 
ATOM     17  C   UNL     1       0.002  -0.004   0.002  0.00  0.00    +0.038 A 
ATOM     18  F   UNL     1       1.230  -2.030  -0.022  0.00  0.00    -0.205 F 
ENDBRANCH   2  14
ENDBRANCH   1  10
BRANCH   1  19
ATOM     19  C   UNL     1       5.054   0.791  -3.214  0.00  0.00    +0.077 C 
BRANCH  19  20
ATOM     20  C   UNL     1       4.530   0.844  -4.626  0.00  0.00    +0.214 C 
ATOM     21  O   UNL     1       3.510   1.453  -4.872  0.00  0.00    -0.276 OA
ATOM     22  N   UNL     1       5.194   0.214  -5.615  0.00  0.00    -0.299 N 
ATOM     23  C   UNL     1       6.427  -0.533  -5.330  0.00  0.00    +0.126 C 
ATOM     24  C   UNL     1       6.259  -1.969  -5.840  0.00  0.00    +0.126 C 
ATOM     25  N   UNL     1       5.763  -1.922  -7.222  0.00  0.00    -0.298 N 
ATOM     26  C   UNL     1       4.529  -1.175  -7.507  0.00  0.00    +0.126 C 
ATOM     27  C   UNL     1       4.694   0.257  -6.996  0.00  0.00    +0.126 C 
ATOM     28  C   UNL     1       6.427  -2.552  -8.212  0.00  0.00    +0.216 C 
ATOM     29  O   UNL     1       7.444  -3.165  -7.965  0.00  0.00    -0.276 OA
BRANCH  28  30
ATOM     30  C   UNL     1       5.906  -2.495  -9.625  0.00  0.00    +0.096 C 
BRANCH  30  31
ATOM     31  C   UNL     1       6.839  -3.285 -10.544  0.00  0.00    +0.013 C 
BRANCH  31  32
ATOM     32  C   UNL     1       6.310  -3.227 -11.979  0.00  0.00    -0.011 C 
ATOM     33  C   UNL     1       4.984  -4.010 -12.086  0.00  0.00    +0.003 C 
ATOM     34  C   UNL     1       5.053  -4.686 -13.477  0.00  0.00    +0.000 C 
ATOM     35  C   UNL     1       6.546  -5.086 -13.589  0.00  0.00    +0.000 C 
ATOM     36  C   UNL     1       7.302  -3.912 -12.935  0.00  0.00    +0.003 C 
ENDBRANCH  31  32
ENDBRANCH  30  31
ENDBRANCH  28  30
ENDBRANCH  19  20
ENDBRANCH   1  19
TORSDOF 7
