REMARK  Name = ZINC08845736
REMARK  12 active torsions:
REMARK  status: ('A' for Active; 'I' for Inactive)
REMARK    1  A    between atoms: C_1  and  C_2
REMARK    2  A    between atoms: C_2  and  C_3
REMARK    3  A    between atoms: C_3  and  C_4
REMARK    4  A    between atoms: C_4  and  C_5
REMARK    5  A    between atoms: C_5  and  O_6
REMARK    6  A    between atoms: O_6  and  C_7
REMARK    7  A    between atoms: C_11  and  C_13
REMARK    8  A    between atoms: C_15  and  C_27
REMARK    9  A    between atoms: C_16  and  O_26
REMARK   10  A    between atoms: C_23  and  C_25
REMARK   11  A    between atoms: C_27  and  C_29
REMARK   12  A    between atoms: C_36  and  C_39
REMARK                            x       y       z     vdW  Elec       q    Type
REMARK                         _______ _______ _______ _____ _____    ______ ____
ROOT
ATOM      1  C   UNL     1       2.452   1.068  -0.010  0.00  0.00    +0.152 C 
ATOM      2  C   UNL     1       3.131   1.128   1.338  0.00  0.00    +0.071 C 
ATOM      3  C   UNL     1       4.322   1.743   1.148  0.00  0.00    +0.189 C 
ATOM      4  C   UNL     1       4.463   2.098  -0.279  0.00  0.00    +0.288 C 
ATOM      5  O   UNL     1       5.424   2.660  -0.766  0.00  0.00    -0.266 OA
ATOM      6  N   UNL     1       3.371   1.704  -0.961  0.00  0.00    -0.230 N 
ATOM      7  C   UNL     1       3.153   1.869  -2.323  0.00  0.00    +0.191 A 
ATOM      8  N   UNL     1       2.116   1.515  -3.070  0.00  0.00    -0.125 NA
ATOM      9  N   UNL     1       2.080   1.745  -4.309  0.00  0.00    -0.145 NA
ATOM     10  C   UNL     1       3.067   2.350  -4.940  0.00  0.00    +0.101 A 
ATOM     11  S   UNL     1       4.187   2.628  -3.571  0.00  0.00    -0.035 S 
ATOM     12  C   UNL     1       3.209   2.710  -6.397  0.00  0.00    +0.075 C 
ENDROOT
BRANCH   1  17
ATOM     13  C   UNL     1      -1.249   1.826   0.089  0.00  0.00    +0.121 A 
ATOM     14  C   UNL     1      -1.244   3.213   0.112  0.00  0.00    +0.045 A 
ATOM     15  C   UNL     1      -0.045   3.899   0.091  0.00  0.00    +0.004 A 
ATOM     16  C   UNL     1       1.149   3.204   0.051  0.00  0.00    +0.006 A 
ATOM     17  C   UNL     1       1.148   1.822   0.033  0.00  0.00    -0.019 A 
ATOM     18  C   UNL     1      -0.049   1.131   0.054  0.00  0.00    +0.051 A 
BRANCH  13  19
ATOM     19  O   UNL     1      -2.427   1.149   0.104  0.00  0.00    -0.492 OA
BRANCH  19  20
ATOM     20  C   UNL     1      -3.623   1.930   0.140  0.00  0.00    +0.229 C 
BRANCH  20  21
ATOM     21  C   UNL     1      -4.839   1.000   0.153  0.00  0.00    +0.041 C 
BRANCH  21  22
ATOM     22  C   UNL     1      -6.120   1.836   0.191  0.00  0.00    +0.003 C 
BRANCH  22  24
ATOM     23  C   UNL     1      -8.616   1.742   0.241  0.00  0.00    +0.004 C 
ATOM     24  C   UNL     1      -7.335   0.906   0.204  0.00  0.00    -0.003 C 
ENDBRANCH  22  24
ENDBRANCH  21  22
ENDBRANCH  20  21
ENDBRANCH  19  20
ENDBRANCH  13  19
ENDBRANCH   1  17
BRANCH   3  25
ATOM     25  O   UNL     1       5.238   1.994   2.112  0.00  0.00    -0.502 OA
ATOM     26  H   UNL     1       6.027   2.458   1.710  0.00  0.00    +0.292 HD
ENDBRANCH   3  25
BRANCH   2  27
ATOM     27  C   UNL     1       2.603   0.617   2.607  0.00  0.00    +0.195 C 
ATOM     28  O   UNL     1       2.329   1.389   3.506  0.00  0.00    -0.287 OA
BRANCH  27  29
ATOM     29  C   UNL     1       2.405  -0.834   2.793  0.00  0.00    +0.023 A 
ATOM     30  C   UNL     1       2.824  -1.735   1.808  0.00  0.00    +0.015 A 
ATOM     31  C   UNL     1       2.647  -3.086   1.987  0.00  0.00    +0.046 A 
ATOM     32  C   UNL     1       2.040  -3.572   3.147  0.00  0.00    +0.124 A 
ATOM     33  C   UNL     1       1.613  -2.670   4.117  0.00  0.00    -0.002 A 
ATOM     34  C   UNL     1       1.793  -1.319   3.953  0.00  0.00    +0.019 A 
ATOM     35  C   UNL     1       0.980  -3.483   5.231  0.00  0.00    +0.083 C 
ATOM     36  C   UNL     1       0.777  -4.856   4.548  0.00  0.00    +0.175 C 
ATOM     37  O   UNL     1       1.784  -4.854   3.522  0.00  0.00    -0.488 OA
ATOM     38  C   UNL     1      -0.621  -4.955   3.934  0.00  0.00    +0.052 C 
ENDBRANCH  27  29
ENDBRANCH   2  27
TORSDOF 9
