REMARK  Name = ZINC63279605
REMARK  3 active torsions:
REMARK  status: ('A' for Active; 'I' for Inactive)
REMARK    1  A    between atoms: C_3  and  C_13
REMARK    2  A    between atoms: C_6  and  C_7
REMARK    3  A    between atoms: C_19  and  C_21
REMARK                            x       y       z     vdW  Elec       q    Type
REMARK                         _______ _______ _______ _____ _____    ______ ____
ROOT
ATOM      1  C   UNL     1       3.725   2.249  -0.104  0.00  0.00    +0.050 C 
ATOM      2  N   UNL     1       3.895   3.526  -0.174  0.00  0.00    -0.264 NA
ATOM      3  C   UNL     1       5.320   3.896  -0.065  0.00  0.00    +0.205 C 
ATOM      4  C   UNL     1       6.062   2.602  -0.461  0.00  0.00    +0.128 C 
ATOM      5  C   UNL     1       5.059   1.545   0.072  0.00  0.00    +0.072 C 
ATOM      6  C   UNL     1       7.381   2.486   0.230  0.00  0.00    +0.228 C 
ATOM      7  O   UNL     1       8.253   1.820  -0.284  0.00  0.00    -0.275 OA
ATOM      8  N   UNL     1       7.634   3.093   1.400  0.00  0.00    -0.240 N 
ATOM      9  C   UNL     1       6.731   3.916   1.954  0.00  0.00    +0.307 C 
ATOM     10  O   UNL     1       6.940   4.360   3.067  0.00  0.00    -0.252 OA
ATOM     11  N   UNL     1       5.591   4.268   1.319  0.00  0.00    -0.277 N 
ATOM     12  H   UNL     1       8.479   2.935   1.849  0.00  0.00    +0.159 HD
ATOM     13  H   UNL     1       4.927   4.795   1.791  0.00  0.00    +0.152 HD
ENDROOT
BRANCH   5  14
ATOM     14  C   UNL     1       5.117   0.269  -0.770  0.00  0.00    +0.146 C 
ATOM     15  C   UNL     1       6.329  -0.530  -0.333  0.00  0.00    +0.099 C 
ATOM     16  N   UNL     1       7.234  -0.816  -1.240  0.00  0.00    -0.152 NA
ATOM     17  C   UNL     1       7.123  -0.431  -2.513  0.00  0.00    +0.331 C 
ATOM     18  O   UNL     1       8.016  -0.747  -3.276  0.00  0.00    -0.250 OA
ATOM     19  N   UNL     1       6.101   0.276  -3.012  0.00  0.00    -0.238 N 
ATOM     20  C   UNL     1       5.073   0.667  -2.234  0.00  0.00    +0.231 C 
ATOM     21  O   UNL     1       4.150   1.308  -2.688  0.00  0.00    -0.275 OA
ATOM     22  N   UNL     1       6.473  -0.935   0.947  0.00  0.00    -0.348 N 
ATOM     23  H   UNL     1       6.103   0.512  -3.953  0.00  0.00    +0.159 HD
ATOM     24  H   UNL     1       5.758  -0.787   1.586  0.00  0.00    +0.143 HD
ATOM     25  H   UNL     1       7.292  -1.374   1.228  0.00  0.00    +0.143 HD
ENDBRANCH   5  14
BRANCH   1  28
ATOM     26  C   UNL     1       0.128   1.532  -0.905  0.00  0.00    +0.004 A 
ATOM     27  C   UNL     1       1.347   2.174  -0.839  0.00  0.00    +0.010 A 
ATOM     28  C   UNL     1       2.417   1.568  -0.178  0.00  0.00    -0.004 A 
ATOM     29  C   UNL     1       2.245   0.314   0.412  0.00  0.00    +0.010 A 
ATOM     30  C   UNL     1       1.020  -0.317   0.338  0.00  0.00    +0.004 A 
ATOM     31  C   UNL     1      -0.036   0.290  -0.319  0.00  0.00    -0.044 A 
BRANCH  31  32
ATOM     32  C   UNL     1      -1.371  -0.405  -0.395  0.00  0.00    +0.019 C 
ATOM     33  C   UNL     1      -1.901  -0.646   1.020  0.00  0.00    +0.008 C 
ATOM     34  C   UNL     1      -3.256  -1.352   0.943  0.00  0.00    +0.001 C 
ATOM     35  C   UNL     1      -3.093  -2.693   0.224  0.00  0.00    +0.000 C 
ATOM     36  C   UNL     1      -2.563  -2.451  -1.191  0.00  0.00    +0.001 C 
ATOM     37  C   UNL     1      -1.207  -1.746  -1.113  0.00  0.00    +0.008 C 
ENDBRANCH  31  32
ENDBRANCH   1  28
TORSDOF 3
