REMARK  Name = ZINC35863308
REMARK  8 active torsions:
REMARK  status: ('A' for Active; 'I' for Inactive)
REMARK    1  A    between atoms: C_1  and  C_2
REMARK    2  A    between atoms: C_2  and  C_3
REMARK    3  A    between atoms: C_11  and  O_23
REMARK    4  A    between atoms: C_14  and  C_16
REMARK    5  A    between atoms: O_23  and  C_24
REMARK    6  A    between atoms: C_24  and  C_25
REMARK    7  A    between atoms: C_28  and  C_30
REMARK    8  A    between atoms: C_36  and  C_39
REMARK                            x       y       z     vdW  Elec       q    Type
REMARK                         _______ _______ _______ _____ _____    ______ ____
ROOT
ATOM      1  C   UNL     1       0.495  -0.656  -1.977  0.00  0.00    +0.216 C 
ATOM      2  O   UNL     1       0.919   0.050  -2.867  0.00  0.00    -0.276 OA
ATOM      3  N   UNL     1       0.590  -1.997  -2.077  0.00  0.00    -0.290 N 
ATOM      4  C   UNL     1       0.080  -2.882  -1.017  0.00  0.00    +0.113 C 
ATOM      5  C   UNL     1      -1.064  -3.707  -1.604  0.00  0.00    +0.054 C 
ATOM      6  C   UNL     1      -0.672  -4.296  -2.934  0.00  0.00    -0.040 A 
ATOM      7  C   UNL     1      -1.398  -5.389  -3.393  0.00  0.00    +0.007 A 
ATOM      8  C   UNL     1      -1.100  -5.972  -4.606  0.00  0.00    +0.046 A 
ATOM      9  C   UNL     1      -0.067  -5.463  -5.379  0.00  0.00    +0.121 A 
ATOM     10  C   UNL     1       0.659  -4.377  -4.922  0.00  0.00    +0.051 A 
ATOM     11  C   UNL     1       0.360  -3.796  -3.697  0.00  0.00    -0.016 A 
ATOM     12  C   UNL     1       1.201  -2.633  -3.249  0.00  0.00    +0.137 C 
ENDROOT
BRANCH  12  13
ATOM     13  C   UNL     1       2.580  -3.125  -2.891  0.00  0.00    -0.020 A 
ATOM     14  C   UNL     1       2.735  -4.101  -1.924  0.00  0.00    +0.006 A 
ATOM     15  C   UNL     1       3.999  -4.554  -1.595  0.00  0.00    +0.003 A 
ATOM     16  C   UNL     1       5.109  -4.031  -2.231  0.00  0.00    +0.038 A 
ATOM     17  C   UNL     1       4.954  -3.053  -3.199  0.00  0.00    +0.124 A 
ATOM     18  C   UNL     1       3.687  -2.604  -3.533  0.00  0.00    +0.044 A 
ATOM     19  F   UNL     1       6.038  -2.540  -3.821  0.00  0.00    -0.205 F 
ENDBRANCH  12  13
BRANCH   1  21
ATOM     20  C   UNL     1      -0.121   1.489  -0.896  0.00  0.00    +0.013 C 
ATOM     21  C   UNL     1      -0.139  -0.035  -0.759  0.00  0.00    +0.092 C 
ENDBRANCH   1  21
BRANCH   9  22
ATOM     22  O   UNL     1       0.232  -6.029  -6.578  0.00  0.00    -0.484 OA
BRANCH  22  23
ATOM     23  C   UNL     1      -0.560  -7.147  -6.983  0.00  0.00    +0.303 C 
BRANCH  23  24
ATOM     24  C   UNL     1      -0.087  -7.637  -8.328  0.00  0.00    +0.143 A 
ATOM     25  C   UNL     1       0.863  -8.577  -8.533  0.00  0.00    +0.049 A 
ATOM     26  C   UNL     1       0.995  -8.733  -9.922  0.00  0.00    +0.055 A 
ATOM     27  C   UNL     1       0.109  -7.870 -10.500  0.00  0.00    +0.190 A 
ATOM     28  O   UNL     1      -0.542  -7.218  -9.515  0.00  0.00    -0.452 OA
BRANCH  27  29
ATOM     29  C   UNL     1      -0.101  -7.688 -11.940  0.00  0.00    +0.282 C 
ATOM     30  O   UNL     1       0.453  -8.425 -12.734  0.00  0.00    -0.267 OA
ATOM     31  N   UNL     1      -0.908  -6.704 -12.384  0.00  0.00    -0.298 N 
ATOM     32  C   UNL     1      -1.481  -5.718 -11.455  0.00  0.00    +0.089 C 
ATOM     33  C   UNL     1      -1.210  -4.315 -12.007  0.00  0.00    -0.063 C 
ATOM     34  N   UNL     1      -1.722  -4.223 -13.380  0.00  0.00    +0.383 N 
ATOM     35  C   UNL     1      -0.981  -5.141 -14.253  0.00  0.00    -0.057 C 
ATOM     36  C   UNL     1      -1.237  -6.582 -13.813  0.00  0.00    +0.092 C 
ATOM     37  C   UNL     1      -1.447  -4.958 -15.699  0.00  0.00    -0.012 C 
ATOM     38  H   UNL     1      -2.701  -4.468 -13.389  0.00  0.00    -0.085 HD
ATOM     39  H   UNL     1      -1.611  -3.278 -13.716  0.00  0.00    -0.085 HD
ENDBRANCH  27  29
ENDBRANCH  23  24
ENDBRANCH  22  23
ENDBRANCH   9  22
TORSDOF 6
