REMARK  Name = ZINC35037981
REMARK  13 active torsions:
REMARK  status: ('A' for Active; 'I' for Inactive)
REMARK    1  A    between atoms: C_1  and  C_2
REMARK    2  A    between atoms: C_2  and  C_3
REMARK    3  A    between atoms: C_3  and  C_5
REMARK    4  A    between atoms: C_3  and  N_23
REMARK    5  A    between atoms: N_15  and  C_16
REMARK    6  A    between atoms: N_23  and  C_24
REMARK    7  A    between atoms: C_24  and  C_25
REMARK    8  A    between atoms: C_25  and  N_26
REMARK    9  A    between atoms: N_26  and  C_27
REMARK   10  A    between atoms: N_26  and  C_28
REMARK   11  A    between atoms: C_29  and  C_31
REMARK   12  A    between atoms: C_31  and  O_32
REMARK   13  A    between atoms: O_32  and  C_33
REMARK                            x       y       z     vdW  Elec       q    Type
REMARK                         _______ _______ _______ _____ _____    ______ ____
ROOT
ATOM      1  C   UNL     1       1.013  -0.577  -1.209  0.00  0.00    +0.142 C 
ENDROOT
BRANCH   1   2
ATOM      2  C   UNL     1       1.048  -2.084  -1.201  0.00  0.00    +0.138 A 
ATOM      3  N   UNL     1       0.905  -2.698  -0.066  0.00  0.00    -0.231 NA
ATOM      4  C   UNL     1       0.925  -4.051   0.018  0.00  0.00    +0.078 A 
ATOM      5  C   UNL     1       0.771  -4.712   1.238  0.00  0.00    +0.028 A 
ATOM      6  C   UNL     1       0.798  -6.088   1.277  0.00  0.00    +0.002 A 
ATOM      7  C   UNL     1       0.976  -6.829   0.116  0.00  0.00    +0.001 A 
ATOM      8  C   UNL     1       1.131  -6.200  -1.100  0.00  0.00    +0.015 A 
ATOM      9  C   UNL     1       1.106  -4.809  -1.161  0.00  0.00    +0.065 A 
ATOM     10  C   UNL     1       1.265  -4.083  -2.430  0.00  0.00    +0.266 A 
ATOM     11  O   UNL     1       1.425  -4.676  -3.481  0.00  0.00    -0.267 OA
ATOM     12  N   UNL     1       1.222  -2.731  -2.385  0.00  0.00    -0.263 N 
BRANCH  12  13
ATOM     13  C   UNL     1       1.363  -1.992  -3.567  0.00  0.00    +0.051 A 
ATOM     14  C   UNL     1       2.598  -1.916  -4.196  0.00  0.00    +0.028 A 
ATOM     15  C   UNL     1       2.734  -1.187  -5.361  0.00  0.00    +0.022 A 
ATOM     16  C   UNL     1       1.641  -0.532  -5.901  0.00  0.00    +0.041 A 
ATOM     17  C   UNL     1       0.409  -0.606  -5.275  0.00  0.00    +0.022 A 
ATOM     18  C   UNL     1       0.266  -1.339  -4.113  0.00  0.00    +0.028 A 
ATOM     19 CL   UNL     1       1.816   0.384  -7.365  0.00  0.00    -0.084 Cl
ENDBRANCH  12  13
ENDBRANCH   1   2
BRANCH   1  20
ATOM     20  N   UNL     1       2.373  -0.058  -1.373  0.00  0.00    -0.290 N 
ATOM     21  C   UNL     1       2.647   0.809  -2.368  0.00  0.00    +0.254 C 
ATOM     22  O   UNL     1       1.769   1.158  -3.128  0.00  0.00    -0.272 OA
BRANCH  20  23
ATOM     23  C   UNL     1       3.434  -0.480  -0.456  0.00  0.00    +0.090 C 
BRANCH  23  24
ATOM     24  C   UNL     1       4.210  -1.645  -1.075  0.00  0.00    -0.060 C 
BRANCH  24  25
ATOM     25  N   UNL     1       5.188  -2.152  -0.103  0.00  0.00    +0.377 N 
ATOM     26  C   UNL     1       5.849  -3.344  -0.652  0.00  0.00    -0.097 C 
ATOM     27  C   UNL     1       6.193  -1.116   0.167  0.00  0.00    -0.097 C 
ATOM     28  H   UNL     1       4.715  -2.395   0.754  0.00  0.00    -0.083 HD
ENDBRANCH  24  25
ENDBRANCH  23  24
ENDBRANCH  20  23
BRANCH  21  29
ATOM     29  C   UNL     1       4.046   1.343  -2.537  0.00  0.00    +0.324 C 
BRANCH  29  30
ATOM     30  O   UNL     1       4.084   2.236  -3.652  0.00  0.00    -0.483 OA
BRANCH  30  31
ATOM     31  C   UNL     1       5.281   2.809  -3.943  0.00  0.00    +0.121 A 
ATOM     32  C   UNL     1       6.398   2.514  -3.176  0.00  0.00    +0.045 A 
ATOM     33  C   UNL     1       7.614   3.097  -3.474  0.00  0.00    +0.004 A 
ATOM     34  C   UNL     1       7.718   3.976  -4.537  0.00  0.00    +0.000 A 
ATOM     35  C   UNL     1       6.606   4.272  -5.303  0.00  0.00    +0.004 A 
ATOM     36  C   UNL     1       5.390   3.686  -5.013  0.00  0.00    +0.045 A 
ENDBRANCH  30  31
ENDBRANCH  29  30
ENDBRANCH  21  29
ENDBRANCH   1  20
BRANCH   1  38
ATOM     37  C   UNL     1       0.271   1.447   0.055  0.00  0.00    +0.006 C 
ATOM     38  C   UNL     1       0.431  -0.074   0.114  0.00  0.00    +0.027 C 
ENDBRANCH   1  38
TORSDOF 10
