REMARK  Name = ZINC34784832
REMARK  13 active torsions:
REMARK  status: ('A' for Active; 'I' for Inactive)
REMARK    1  A    between atoms: C_1  and  C_2
REMARK    2  A    between atoms: C_2  and  N_3
REMARK    3  A    between atoms: N_3  and  C_4
REMARK    4  A    between atoms: N_7  and  C_8
REMARK    5  A    between atoms: C_9  and  C_18
REMARK    6  A    between atoms: N_11  and  C_14
REMARK    7  A    between atoms: C_12  and  N_13
REMARK    8  A    between atoms: C_14  and  C_15
REMARK    9  A    between atoms: C_14  and  C_16
REMARK   10  A    between atoms: C_14  and  C_17
REMARK   11  A    between atoms: C_18  and  C_19
REMARK   12  A    between atoms: C_18  and  C_20
REMARK   13  A    between atoms: C_18  and  C_21
REMARK                            x       y       z     vdW  Elec       q    Type
REMARK                         _______ _______ _______ _____ _____    ______ ____
ROOT
ATOM      1  C   UNL     1      -3.848  -1.599   2.420  0.00  0.00    +0.096 A 
ATOM      2  C   UNL     1      -4.965  -2.430   2.574  0.00  0.00    +0.063 A 
ATOM      3  N   UNL     1      -5.272  -2.479   3.846  0.00  0.00    -0.297 N 
ATOM      4  N   UNL     1      -4.363  -1.683   4.554  0.00  0.00    -0.266 N 
ATOM      5  C   UNL     1      -3.489  -1.151   3.658  0.00  0.00    +0.135 A 
ATOM      6  H   UNL     1      -6.005  -2.983   4.233  0.00  0.00    +0.187 HD
ENDROOT
BRANCH   1  11
ATOM      7  N   UNL     1      -1.314  -1.379  -0.163  0.00  0.00    -0.289 N 
ATOM      8  C   UNL     1      -2.095  -0.844  -1.281  0.00  0.00    +0.133 C 
ATOM      9  C   UNL     1      -1.901  -1.578   1.034  0.00  0.00    +0.306 C 
ATOM     10  O   UNL     1      -1.252  -2.022   1.963  0.00  0.00    -0.252 OA
ATOM     11  N   UNL     1      -3.205  -1.286   1.202  0.00  0.00    -0.265 N 
ATOM     12  H   UNL     1      -3.703  -0.860   0.487  0.00  0.00    +0.157 HD
BRANCH   7  14
ATOM     13  C   UNL     1       0.950  -0.466  -0.013  0.00  0.00    +0.024 C 
ATOM     14  C   UNL     1       0.104  -1.697  -0.345  0.00  0.00    +0.105 C 
ENDBRANCH   7  14
ENDBRANCH   1  11
BRANCH   4  15
ATOM     15  C   UNL     1      -4.354  -1.464   6.002  0.00  0.00    +0.055 C 
ATOM     16  C   UNL     1      -5.501  -2.247   6.644  0.00  0.00    +0.036 C 
ATOM     17  C   UNL     1      -3.022  -1.944   6.582  0.00  0.00    +0.036 C 
ATOM     18  C   UNL     1      -4.529   0.028   6.294  0.00  0.00    +0.036 C 
ENDBRANCH   4  15
BRANCH   2  19
ATOM     19  C   UNL     1      -5.690  -3.146   1.464  0.00  0.00    +0.006 C 
ATOM     20  C   UNL     1      -6.853  -3.949   2.050  0.00  0.00    +0.017 C 
ATOM     21  C   UNL     1      -6.231  -2.121   0.465  0.00  0.00    +0.017 C 
ATOM     22  C   UNL     1      -4.724  -4.093   0.751  0.00  0.00    +0.017 C 
ENDBRANCH   2  19
BRANCH   5  23
ATOM     23  N   UNL     1      -2.421  -0.301   3.951  0.00  0.00    -0.342 N 
ATOM     24  H   UNL     1      -1.917   0.110   3.231  0.00  0.00    +0.144 HD
ATOM     25  H   UNL     1      -2.184  -0.120   4.874  0.00  0.00    +0.144 HD
ENDBRANCH   5  23
TORSDOF 5
