REMARK  Name = ZINC12539403
REMARK  2 active torsions:
REMARK  status: ('A' for Active; 'I' for Inactive)
REMARK    1  A    between atoms: C_3  and  O_27
REMARK    2  A    between atoms: C_6  and  C_7
REMARK                            x       y       z     vdW  Elec       q    Type
REMARK                         _______ _______ _______ _____ _____    ______ ____
ROOT
ATOM      1  C   UNL     1      -1.293  -0.774   0.011  0.00  0.00    +0.209 C 
ATOM      2  N   UNL     1      -1.183  -1.958  -0.861  0.00  0.00    -0.294 N 
ATOM      3  C   UNL     1      -0.595  -3.101  -0.389  0.00  0.00    +0.160 C 
ATOM      4  N   UNL     1       0.055  -3.930  -1.262  0.00  0.00    -0.332 N 
ATOM      5  N   UNL     1      -0.641  -3.420   0.893  0.00  0.00    -0.302 N 
ATOM      6  C   UNL     1      -1.234  -2.556   1.751  0.00  0.00    +0.213 A 
ATOM      7  N   UNL     1      -1.573  -1.272   1.362  0.00  0.00    -0.286 N 
ATOM      8  C   UNL     1      -2.166  -0.648   2.435  0.00  0.00    +0.076 A 
ATOM      9  C   UNL     1      -2.716   0.610   2.642  0.00  0.00    +0.077 A 
ATOM     10  C   UNL     1      -3.247   0.934   3.876  0.00  0.00    +0.164 A 
ATOM     11  C   UNL     1      -3.237   0.007   4.914  0.00  0.00    +0.164 A 
ATOM     12  C   UNL     1      -2.695  -1.246   4.726  0.00  0.00    +0.079 A 
ATOM     13  C   UNL     1      -2.153  -1.588   3.483  0.00  0.00    +0.095 A 
ATOM     14  N   UNL     1      -1.562  -2.725   3.006  0.00  0.00    -0.212 NA
ATOM     15  O   UNL     1      -3.771   0.347   6.125  0.00  0.00    -0.488 OA
ATOM     16  C   UNL     1      -3.059   1.340   6.866  0.00  0.00    +0.232 C 
ATOM     17  C   UNL     1      -3.465   2.737   6.422  0.00  0.00    +0.082 C 
ATOM     18  C   UNL     1      -3.075   3.023   4.981  0.00  0.00    +0.232 C 
ATOM     19  O   UNL     1      -3.789   2.171   4.083  0.00  0.00    -0.488 OA
ATOM     20  H   UNL     1       0.095  -3.706  -2.205  0.00  0.00    +0.145 HD
ATOM     21  H   UNL     1      -0.260  -4.253   1.212  0.00  0.00    +0.171 HD
ATOM     22  H   UNL     1       0.475  -4.742  -0.939  0.00  0.00    +0.145 HD
ATOM     23  H   UNL     1      -1.527  -1.927  -1.768  0.00  0.00    +0.151 HD
ENDROOT
BRANCH   1  29
ATOM     24  C   UNL     1      -0.017   1.378   0.010  0.00  0.00    +0.011 A 
ATOM     25  C   UNL     1       1.169   2.087   0.002  0.00  0.00    +0.046 A 
ATOM     26  C   UNL     1       2.380   1.409  -0.013  0.00  0.00    +0.117 A 
ATOM     27  C   UNL     1       2.396   0.022  -0.021  0.00  0.00    +0.046 A 
ATOM     28  C   UNL     1       1.207  -0.681  -0.013  0.00  0.00    +0.011 A 
ATOM     29  C   UNL     1       0.002  -0.004   0.002  0.00  0.00    -0.007 A 
BRANCH  26  30
ATOM     30  O   UNL     1       3.548   2.104  -0.021  0.00  0.00    -0.507 OA
ATOM     31  H   UNL     1       3.895   2.300   0.860  0.00  0.00    +0.292 HD
ENDBRANCH  26  30
ENDBRANCH   1  29
TORSDOF 2
