REMARK  Name = ZINC39677045
REMARK  9 active torsions:
REMARK  status: ('A' for Active; 'I' for Inactive)
REMARK    1  A    between atoms: C_1  and  C_2
REMARK    2  A    between atoms: C_5  and  C_36
REMARK    3  A    between atoms: C_6  and  C_8
REMARK    4  A    between atoms: C_8  and  C_9
REMARK    5  A    between atoms: C_9  and  N_10
REMARK    6  A    between atoms: C_11  and  C_13
REMARK    7  A    between atoms: C_24  and  C_26
REMARK    8  A    between atoms: C_28  and  C_35
REMARK    9  A    between atoms: C_30  and  C_31
REMARK                            x       y       z     vdW  Elec       q    Type
REMARK                         _______ _______ _______ _____ _____    ______ ____
ROOT
ATOM      1  C   UNL     1       2.693  -5.078   5.879  0.00  0.00    +0.100 C 
ATOM      2  C   UNL     1       1.856  -6.376   5.824  0.00  0.00    +0.121 C 
ATOM      3  N   UNL     1       2.828  -7.433   5.457  0.00  0.00    -0.296 N 
ATOM      4  C   UNL     1       4.053  -7.086   6.216  0.00  0.00    +0.115 C 
ATOM      5  C   UNL     1       4.134  -5.548   6.140  0.00  0.00    -0.004 C 
ATOM      6  C   UNL     1       5.044  -5.125   4.991  0.00  0.00    -0.010 C 
ATOM      7  C   UNL     1       6.481  -5.554   5.300  0.00  0.00    -0.082 C 
ATOM      8  N   UNL     1       6.921  -4.931   6.554  0.00  0.00    +0.379 N 
ATOM      9  C   UNL     1       6.098  -5.415   7.669  0.00  0.00    -0.082 C 
ATOM     10  C   UNL     1       4.645  -4.980   7.460  0.00  0.00    -0.010 C 
ATOM     11  C   UNL     1       2.639  -8.474   4.623  0.00  0.00    +0.250 C 
ATOM     12  O   UNL     1       1.609  -8.562   3.982  0.00  0.00    -0.270 OA
ATOM     13  H   UNL     1       7.887  -5.166   6.724  0.00  0.00    -0.086 HD
ATOM     14  H   UNL     1       6.829  -3.929   6.480  0.00  0.00    -0.086 HD
ENDROOT
BRANCH  11  15
ATOM     15  C   UNL     1       3.682  -9.507   4.487  0.00  0.00    +0.087 A 
ATOM     16  C   UNL     1       4.911  -9.640   5.283  0.00  0.00    +0.058 A 
ATOM     17  C   UNL     1       5.546 -10.720   4.804  0.00  0.00    +0.103 A 
ATOM     18  O   UNL     1       4.823 -11.248   3.804  0.00  0.00    -0.455 OA
ATOM     19  C   UNL     1       3.705 -10.544   3.601  0.00  0.00    +0.220 A 
ATOM     20  C   UNL     1       6.861 -11.256   5.308  0.00  0.00    +0.086 C 
BRANCH  19  21
ATOM     21  C   UNL     1       2.650 -10.843   2.567  0.00  0.00    +0.451 C 
ATOM     22  F   UNL     1       2.962 -10.178   1.377  0.00  0.00    -0.163 F 
ATOM     23  F   UNL     1       2.605 -12.222   2.332  0.00  0.00    -0.163 F 
ATOM     24  F   UNL     1       1.404 -10.408   3.032  0.00  0.00    -0.163 F 
ENDBRANCH  19  21
ENDBRANCH  11  15
BRANCH   1  26
ATOM     25  N   UNL     1       2.704  -3.000   4.537  0.00  0.00    -0.315 N 
ATOM     26  C   UNL     1       2.610  -4.344   4.565  0.00  0.00    +0.218 C 
ATOM     27  O   UNL     1       2.459  -4.963   3.533  0.00  0.00    -0.275 OA
ATOM     28  H   UNL     1       2.825  -2.505   5.363  0.00  0.00    +0.149 HD
BRANCH  25  29
ATOM     29  C   UNL     1       2.624  -2.287   3.260  0.00  0.00    +0.109 C 
BRANCH  29  30
ATOM     30  C   UNL     1       2.757  -0.782   3.507  0.00  0.00    +0.054 C 
BRANCH  30  36
ATOM     31  C   UNL     1       5.017   1.343  -0.420  0.00  0.00    +0.044 C 
ATOM     32  C   UNL     1       3.756   0.969   0.315  0.00  0.00    -0.050 A 
ATOM     33  C   UNL     1       2.522   1.299  -0.216  0.00  0.00    +0.003 A 
ATOM     34  C   UNL     1       1.366   0.956   0.458  0.00  0.00    +0.004 A 
ATOM     35  C   UNL     1       1.442   0.282   1.663  0.00  0.00    -0.047 A 
ATOM     36  C   UNL     1       2.674  -0.049   2.193  0.00  0.00    -0.043 A 
ATOM     37  C   UNL     1       3.831   0.291   1.517  0.00  0.00    +0.007 A 
ATOM     38  C   UNL     1       0.180  -0.091   2.398  0.00  0.00    +0.044 C 
ENDBRANCH  30  36
ENDBRANCH  29  30
ENDBRANCH  25  29
ENDBRANCH   1  26
TORSDOF 6
