REMARK  Name = ZINC12789688
REMARK  9 active torsions:
REMARK  status: ('A' for Active; 'I' for Inactive)
REMARK    1  A    between atoms: C_1  and  C_2
REMARK    2  A    between atoms: C_2  and  C_4
REMARK    3  A    between atoms: C_2  and  N_58
REMARK    4  A    between atoms: N_6  and  C_7
REMARK    5  A    between atoms: C_10  and  S_13
REMARK    6  A    between atoms: S_13  and  N_16
REMARK    7  A    between atoms: C_22  and  N_58
REMARK    8  A    between atoms: C_23  and  C_24
REMARK    9  A    between atoms: C_23  and  N_58
REMARK                            x       y       z     vdW  Elec       q    Type
REMARK                         _______ _______ _______ _____ _____    ______ ____
ROOT
ATOM      1  C   UNL     1      -0.466   1.788  -3.847  0.00  0.00    +0.203 C 
ATOM      2  O   UNL     1      -0.870   2.928  -3.937  0.00  0.00    -0.277 OA
ATOM      3  N   UNL     1      -0.755   0.893  -4.813  0.00  0.00    -0.287 N 
ATOM      4  H   UNL     1      -0.369   0.004  -4.781  0.00  0.00    +0.155 HD
ENDROOT
BRANCH   3   5
ATOM      5  C   UNL     1      -1.610   1.248  -5.862  0.00  0.00    +0.033 A 
ATOM      6  C   UNL     1      -2.661   2.127  -5.637  0.00  0.00    +0.025 A 
ATOM      7  C   UNL     1      -3.499   2.479  -6.676  0.00  0.00    +0.030 A 
ATOM      8  C   UNL     1      -3.300   1.948  -7.937  0.00  0.00    +0.106 A 
ATOM      9  C   UNL     1      -2.258   1.068  -8.164  0.00  0.00    +0.030 A 
ATOM     10  C   UNL     1      -1.412   0.717  -7.130  0.00  0.00    +0.025 A 
BRANCH   8  11
ATOM     11  S   UNL     1      -4.377   2.395  -9.259  0.00  0.00    +0.061 S 
ATOM     12  O   UNL     1      -4.941   3.653  -8.916  0.00  0.00    -0.153 OA
ATOM     13  O   UNL     1      -3.651   2.187 -10.462  0.00  0.00    -0.153 OA
BRANCH  11  14
ATOM     14  N   UNL     1      -5.624   1.304  -9.264  0.00  0.00    -0.177 NA
ATOM     15  C   UNL     1      -5.535   0.070 -10.056  0.00  0.00    +0.109 C 
ATOM     16  C   UNL     1      -5.811  -1.125  -9.131  0.00  0.00    +0.017 C 
ATOM     17  C   UNL     1      -7.158  -0.922  -8.434  0.00  0.00    +0.003 C 
ATOM     18  C   UNL     1      -7.106   0.346  -7.579  0.00  0.00    +0.017 C 
ATOM     19  C   UNL     1      -6.842   1.556  -8.482  0.00  0.00    +0.109 C 
ENDBRANCH  11  14
ENDBRANCH   8  11
ENDBRANCH   3   5
BRANCH   1  21
ATOM     20  C   UNL     1       1.728   0.883  -3.129  0.00  0.00    -0.004 C 
ATOM     21  C   UNL     1       0.357   1.371  -2.656  0.00  0.00    +0.017 C 
BRANCH  21  23
ATOM     22  C   UNL     1       1.236   3.616  -2.429  0.00  0.00    -0.095 C 
ATOM     23  N   UNL     1       0.504   2.528  -1.747  0.00  0.00    +0.389 N 
ATOM     24  H   UNL     1      -0.429   2.867  -1.486  0.00  0.00    -0.081 HD
BRANCH  23  25
ATOM     25  C   UNL     1       1.227   2.121  -0.524  0.00  0.00    -0.020 C 
BRANCH  25  26
ATOM     26  C   UNL     1       1.170   3.250   0.472  0.00  0.00    +0.046 A 
ATOM     27  C   UNL     1       2.068   4.242   0.599  0.00  0.00    +0.150 A 
ATOM     28  N   UNL     1       1.669   5.050   1.595  0.00  0.00    -0.209 NA
ATOM     29  C   UNL     1       0.555   4.592   2.089  0.00  0.00    +0.179 A 
ATOM     30  N   UNL     1       0.174   3.457   1.425  0.00  0.00    -0.298 N 
ATOM     31  C   UNL     1      -0.991   2.850   1.843  0.00  0.00    +0.100 A 
ATOM     32  C   UNL     1      -1.707   3.364   2.842  0.00  0.00    +0.067 A 
ATOM     33  S   UNL     1      -0.741   4.798   3.288  0.00  0.00    -0.058 S 
ATOM     34 CL   UNL     1       3.499   4.445  -0.362  0.00  0.00    -0.060 Cl
ENDBRANCH  25  26
ENDBRANCH  23  25
ENDBRANCH  21  23
ENDBRANCH   1  21
TORSDOF 7
