REMARK  Name = ZINC51099553
REMARK  10 active torsions:
REMARK  status: ('A' for Active; 'I' for Inactive)
REMARK    1  A    between atoms: C_1  and  C_2
REMARK    2  A    between atoms: C_2  and  C_3
REMARK    3  A    between atoms: C_3  and  C_4
REMARK    4  A    between atoms: C_4  and  N_5
REMARK    5  A    between atoms: C_9  and  C_11
REMARK    6  A    between atoms: C_11  and  C_13
REMARK    7  A    between atoms: C_11  and  N_14
REMARK    8  A    between atoms: C_17  and  N_20
REMARK    9  A    between atoms: C_21  and  C_23
REMARK   10  A    between atoms: C_24  and  C_28
REMARK                            x       y       z     vdW  Elec       q    Type
REMARK                         _______ _______ _______ _____ _____    ______ ____
ROOT
ATOM      1  N   UNL     1       3.165  -7.527  -5.213  0.00  0.00    +0.387 N 
ATOM      2  C   UNL     1       1.829  -8.134  -5.253  0.00  0.00    -0.076 C 
ATOM      3  C   UNL     1       1.950  -9.653  -5.120  0.00  0.00    +0.004 C 
ATOM      4  C   UNL     1       2.793 -10.196  -6.277  0.00  0.00    +0.070 C 
ATOM      5  C   UNL     1       4.159  -9.502  -6.270  0.00  0.00    +0.004 C 
ATOM      6  C   UNL     1       3.956  -7.988  -6.360  0.00  0.00    -0.076 C 
ATOM      7  H   UNL     1       3.628  -7.795  -4.357  0.00  0.00    -0.081 HD
ENDROOT
BRANCH   4   8
ATOM      8  N   UNL     1       2.977 -11.640  -6.114  0.00  0.00    -0.308 N 
ATOM      9  C   UNL     1       3.222 -12.414  -7.190  0.00  0.00    +0.253 C 
ATOM     10  O   UNL     1       3.291 -11.913  -8.297  0.00  0.00    -0.270 OA
ATOM     11  H   UNL     1       2.922 -12.040  -5.232  0.00  0.00    +0.149 HD
BRANCH   9  12
ATOM     12  C   UNL     1       3.406 -13.860  -7.027  0.00  0.00    +0.096 A 
ATOM     13  C   UNL     1       3.668 -14.827  -7.973  0.00  0.00    +0.058 A 
ATOM     14  N   UNL     1       3.785 -16.056  -7.537  0.00  0.00    -0.252 NA
ATOM     15  C   UNL     1       3.658 -16.350  -6.263  0.00  0.00    +0.156 A 
ATOM     16  S   UNL     1       3.360 -14.857  -5.546  0.00  0.00    -0.071 S 
ATOM     17  C   UNL     1       3.812 -14.487  -9.434  0.00  0.00    +0.067 C 
ENDBRANCH   9  12
ENDBRANCH   4   8
BRANCH   1  18
ATOM     18  C   UNL     1       3.039  -6.065  -5.263  0.00  0.00    +0.017 C 
ATOM     19  C   UNL     1       4.433  -5.433  -5.271  0.00  0.00    -0.004 C 
BRANCH  18  24
ATOM     20  N   UNL     1       0.181  -2.864  -3.095  0.00  0.00    -0.299 N 
ATOM     21  C   UNL     1       0.888  -4.010  -3.034  0.00  0.00    +0.306 C 
ATOM     22  O   UNL     1       0.912  -4.655  -2.005  0.00  0.00    -0.252 OA
ATOM     23  N   UNL     1       1.570  -4.439  -4.115  0.00  0.00    -0.242 N 
ATOM     24  C   UNL     1       2.277  -5.585  -4.054  0.00  0.00    +0.207 C 
ATOM     25  O   UNL     1       2.300  -6.229  -3.028  0.00  0.00    -0.277 OA
ATOM     26  H   UNL     1       0.162  -2.349  -3.917  0.00  0.00    +0.150 HD
ATOM     27  H   UNL     1       1.551  -3.924  -4.937  0.00  0.00    +0.159 HD
BRANCH  20  28
ATOM     28  C   UNL     1      -0.560  -2.397  -1.921  0.00  0.00    +0.106 C 
BRANCH  28  29
ATOM     29  C   UNL     1      -1.271  -1.085  -2.255  0.00  0.00    +0.018 C 
BRANCH  29  31
ATOM     30  C   UNL     1      -2.756   0.716  -1.362  0.00  0.00    +0.004 C 
ATOM     31  C   UNL     1      -2.045  -0.597  -1.028  0.00  0.00    -0.002 C 
ENDBRANCH  29  31
ENDBRANCH  28  29
ENDBRANCH  20  28
ENDBRANCH  18  24
ENDBRANCH   1  18
TORSDOF 7
