REMARK  Name = ZINC63480086
REMARK  5 active torsions:
REMARK  status: ('A' for Active; 'I' for Inactive)
REMARK    1  A    between atoms: C_1  and  C_2
REMARK    2  A    between atoms: C_6  and  N_8
REMARK    3  A    between atoms: C_13  and  C_31
REMARK    4  A    between atoms: C_23  and  C_30
REMARK    5  A    between atoms: C_31  and  C_32
REMARK                            x       y       z     vdW  Elec       q    Type
REMARK                         _______ _______ _______ _____ _____    ______ ____
ROOT
ATOM      1  N   UNL     1       0.050  -2.798   2.395  0.00  0.00    -0.210 N 
ATOM      2  C   UNL     1       0.141  -2.196   3.587  0.00  0.00    +0.232 C 
ATOM      3  O   UNL     1       0.222  -0.999   3.762  0.00  0.00    -0.274 OA
ATOM      4  C   UNL     1       0.125  -3.240   4.680  0.00  0.00    +0.107 C 
ATOM      5  C   UNL     1       1.504  -3.276   5.372  0.00  0.00    +0.072 C 
ATOM      6  N   UNL     1       2.316  -4.217   4.556  0.00  0.00    -0.295 NA
ATOM      7  C   UNL     1       1.367  -5.284   4.186  0.00  0.00    +0.136 C 
ATOM      8  C   UNL     1       0.019  -4.579   3.896  0.00  0.00    +0.123 C 
ATOM      9  C   UNL     1      -0.030  -4.133   2.452  0.00  0.00    +0.233 C 
ATOM     10  O   UNL     1      -0.125  -4.870   1.494  0.00  0.00    -0.274 OA
ATOM     11  C   UNL     1       1.852  -6.065   2.998  0.00  0.00    +0.004 A 
ATOM     12  C   UNL     1       2.167  -5.723   1.702  0.00  0.00    +0.011 A 
ATOM     13  C   UNL     1       2.600  -6.693   0.815  0.00  0.00    -0.050 A 
ATOM     14  C   UNL     1       2.716  -8.006   1.234  0.00  0.00    +0.005 A 
ATOM     15  C   UNL     1       2.401  -8.353   2.531  0.00  0.00    +0.024 A 
ATOM     16  C   UNL     1       1.963  -7.383   3.430  0.00  0.00    +0.039 A 
ATOM     17  N   UNL     1       1.588  -7.486   4.771  0.00  0.00    -0.283 N 
ATOM     18  C   UNL     1       1.224  -6.296   5.289  0.00  0.00    +0.243 C 
ATOM     19  O   UNL     1       0.853  -6.084   6.424  0.00  0.00    -0.273 OA
ATOM     20  C   UNL     1       2.945  -6.320  -0.603  0.00  0.00    +0.044 C 
ATOM     21  H   UNL     1       2.685  -3.760   3.736  0.00  0.00    +0.124 HD
ATOM     22  H   UNL     1       1.590  -8.316   5.272  0.00  0.00    +0.155 HD
ENDROOT
BRANCH   1  28
ATOM     23  C   UNL     1       2.381   0.035  -0.881  0.00  0.00    +0.044 C 
ATOM     24  C   UNL     1       1.151  -0.707  -0.425  0.00  0.00    -0.049 A 
ATOM     25  C   UNL     1       0.006  -0.688  -1.200  0.00  0.00    +0.003 A 
ATOM     26  C   UNL     1      -1.124  -1.367  -0.784  0.00  0.00    +0.002 A 
ATOM     27  C   UNL     1      -1.113  -2.067   0.406  0.00  0.00    +0.024 A 
ATOM     28  C   UNL     1       0.035  -2.089   1.186  0.00  0.00    +0.044 A 
ATOM     29  C   UNL     1       1.171  -1.410   0.764  0.00  0.00    +0.027 A 
ENDBRANCH   1  28
BRANCH   5  30
ATOM     30  C   UNL     1       2.137  -1.883   5.369  0.00  0.00    +0.052 C 
BRANCH  30  31
ATOM     31  C   UNL     1       3.422  -1.913   6.154  0.00  0.00    -0.040 C 
ATOM     32  C   UNL     1       4.671  -2.081   5.663  0.00  0.00    -0.001 A 
ATOM     33  C   UNL     1       5.187  -2.279   4.303  0.00  0.00    +0.010 A 
ATOM     34  C   UNL     1       6.520  -2.421   4.121  0.00  0.00    +0.001 A 
ATOM     35  C   UNL     1       7.418  -2.385   5.196  0.00  0.00    +0.002 A 
ATOM     36  C   UNL     1       7.021  -2.207   6.474  0.00  0.00    +0.026 A 
ATOM     37  C   UNL     1       5.641  -2.046   6.781  0.00  0.00    +0.043 A 
ATOM     38  N   UNL     1       5.016  -1.864   7.919  0.00  0.00    -0.380 N 
ATOM     39  C   UNL     1       3.578  -1.756   7.650  0.00  0.00    +0.144 C 
ATOM     40  H   UNL     1       5.435  -1.806   8.792  0.00  0.00    +0.160 HD
ENDBRANCH  30  31
ENDBRANCH   5  30
TORSDOF 3
