REMARK  Name = ZINC02375365
REMARK  10 active torsions:
REMARK  status: ('A' for Active; 'I' for Inactive)
REMARK    1  A    between atoms: C_1  and  C_2
REMARK    2  A    between atoms: C_2  and  O_3
REMARK    3  A    between atoms: O_3  and  C_4
REMARK    4  A    between atoms: C_7  and  N_10
REMARK    5  A    between atoms: C_19  and  S_20
REMARK    6  A    between atoms: S_20  and  C_21
REMARK    7  A    between atoms: C_21  and  C_22
REMARK    8  A    between atoms: N_24  and  C_25
REMARK    9  A    between atoms: C_29  and  C_31
REMARK   10  A    between atoms: C_35  and  N_64
REMARK                            x       y       z     vdW  Elec       q    Type
REMARK                         _______ _______ _______ _____ _____    ______ ____
ROOT
ATOM      1  N   UNL     1       3.478  10.661   0.588  0.00  0.00    -0.255 N 
ATOM      2  C   UNL     1       3.165  11.709   1.372  0.00  0.00    +0.268 A 
ATOM      3  O   UNL     1       4.013  12.226   2.079  0.00  0.00    -0.267 OA
ATOM      4  C   UNL     1       1.825  12.209   1.364  0.00  0.00    +0.076 A 
ATOM      5  C   UNL     1       1.267  13.325   2.126  0.00  0.00    -0.026 A 
ATOM      6  C   UNL     1      -0.041  13.602   1.942  0.00  0.00    -0.021 A 
ATOM      7  S   UNL     1      -0.601  12.411   0.758  0.00  0.00    -0.075 S 
ATOM      8  C   UNL     1       0.927  11.540   0.513  0.00  0.00    +0.117 A 
ATOM      9  N   UNL     1       1.300  10.514  -0.241  0.00  0.00    -0.215 NA
ATOM     10  C   UNL     1       2.541  10.069  -0.211  0.00  0.00    +0.178 A 
ATOM     11  C   UNL     1      -0.827  14.689   2.609  0.00  0.00    -0.036 C 
ATOM     12  C   UNL     1       1.338  15.473   3.359  0.00  0.00    -0.074 C 
ATOM     13  C   UNL     1       2.093  14.167   3.096  0.00  0.00    +0.018 C 
ATOM     14  C   UNL     1      -0.680  16.366   4.356  0.00  0.00    -0.096 C 
ATOM     15  N   UNL     1      -0.045  15.163   3.776  0.00  0.00    +0.381 N 
ATOM     16  H   UNL     1      -0.022  14.422   4.487  0.00  0.00    -0.082 HD
ENDROOT
BRANCH   1  20
ATOM     17  C   UNL     1       7.381   9.191   0.598  0.00  0.00    +0.121 A 
ATOM     18  C   UNL     1       7.007  10.158  -0.325  0.00  0.00    +0.047 A 
ATOM     19  C   UNL     1       5.715  10.645  -0.328  0.00  0.00    +0.030 A 
ATOM     20  C   UNL     1       4.790  10.167   0.591  0.00  0.00    +0.052 A 
ATOM     21  C   UNL     1       5.167   9.203   1.517  0.00  0.00    +0.030 A 
ATOM     22  C   UNL     1       6.458   8.713   1.516  0.00  0.00    +0.047 A 
BRANCH  17  23
ATOM     23  O   UNL     1       8.654   8.713   0.601  0.00  0.00    -0.492 OA
BRANCH  23  25
ATOM     24  C   UNL     1      10.436   7.306   1.428  0.00  0.00    +0.048 C 
ATOM     25  C   UNL     1       8.970   7.719   1.578  0.00  0.00    +0.225 C 
ENDBRANCH  23  25
ENDBRANCH  17  23
ENDBRANCH   1  20
BRANCH  10  26
ATOM     26  S   UNL     1       2.998   8.699  -1.221  0.00  0.00    -0.078 S 
BRANCH  26  27
ATOM     27  C   UNL     1       1.411   8.354  -2.020  0.00  0.00    +0.173 C 
BRANCH  27  28
ATOM     28  C   UNL     1       1.565   7.184  -2.958  0.00  0.00    +0.227 C 
ATOM     29  O   UNL     1       2.641   6.638  -3.074  0.00  0.00    -0.275 OA
ATOM     30  N   UNL     1       0.506   6.745  -3.667  0.00  0.00    -0.285 N 
ATOM     31  H   UNL     1      -0.335   7.227  -3.630  0.00  0.00    +0.155 HD
BRANCH  30  32
ATOM     32  C   UNL     1       0.621   5.595  -4.455  0.00  0.00    +0.034 A 
ATOM     33  C   UNL     1       1.441   4.551  -4.048  0.00  0.00    +0.023 A 
ATOM     34  C   UNL     1       1.551   3.417  -4.829  0.00  0.00    +0.002 A 
ATOM     35  C   UNL     1       0.847   3.321  -6.015  0.00  0.00    +0.003 A 
ATOM     36  C   UNL     1       0.033   4.361  -6.426  0.00  0.00    -0.049 A 
ATOM     37  C   UNL     1      -0.086   5.495  -5.646  0.00  0.00    +0.026 A 
ATOM     38  C   UNL     1      -0.728   4.254  -7.721  0.00  0.00    +0.044 C 
ENDBRANCH  30  32
ENDBRANCH  27  28
ENDBRANCH  26  27
ENDBRANCH  10  26
TORSDOF 7
