REMARK  Name = ZINC10865283
REMARK  8 active torsions:
REMARK  status: ('A' for Active; 'I' for Inactive)
REMARK    1  A    between atoms: C_1  and  C_2
REMARK    2  A    between atoms: C_2  and  N_69
REMARK    3  A    between atoms: C_5  and  N_8
REMARK    4  A    between atoms: C_9  and  C_11
REMARK    5  A    between atoms: C_11  and  S_12
REMARK    6  A    between atoms: S_12  and  C_13
REMARK    7  A    between atoms: C_21  and  C_25
REMARK    8  A    between atoms: N_28  and  C_29
REMARK                            x       y       z     vdW  Elec       q    Type
REMARK                         _______ _______ _______ _____ _____    ______ ____
ROOT
ATOM      1  C   UNL     1      -1.214   3.233   0.205  0.00  0.00    +0.173 A 
ATOM      2  N   UNL     1      -0.102   3.941   0.203  0.00  0.00    -0.216 NA
ATOM      3  C   UNL     1       1.076   3.356   0.024  0.00  0.00    +0.117 A 
ATOM      4  C   UNL     1       1.201   1.969  -0.169  0.00  0.00    +0.076 A 
ATOM      5  C   UNL     1       2.566   1.470  -0.350  0.00  0.00    -0.023 A 
ATOM      6  C   UNL     1       3.560   2.380  -0.316  0.00  0.00    -0.004 A 
ATOM      7  S   UNL     1       2.753   3.934  -0.043  0.00  0.00    -0.073 S 
ATOM      8  C   UNL     1       5.029   2.126  -0.473  0.00  0.00    +0.046 C 
ATOM      9  C   UNL     1       5.280   0.620  -0.310  0.00  0.00    -0.009 C 
ATOM     10  C   UNL     1       4.269  -0.142  -1.172  0.00  0.00    +0.008 C 
ATOM     11  C   UNL     1       2.870  -0.010  -0.571  0.00  0.00    +0.037 C 
ATOM     12  C   UNL     1       6.702   0.286  -0.765  0.00  0.00    +0.008 C 
ATOM     13  C   UNL     1      -0.022   1.227  -0.162  0.00  0.00    +0.263 A 
ATOM     14  O   UNL     1      -0.012   0.018  -0.322  0.00  0.00    -0.267 OA
ATOM     15  N   UNL     1      -1.184   1.881   0.018  0.00  0.00    -0.284 N 
ENDROOT
BRANCH  15  16
ATOM     16  C   UNL     1      -2.440   1.128   0.019  0.00  0.00    +0.093 C 
ATOM     17  C   UNL     1      -2.431   0.088   1.159  0.00  0.00    +0.025 C 
ATOM     18  C   UNL     1      -3.159  -1.141   0.556  0.00  0.00    +0.002 C 
ATOM     19  C   UNL     1      -2.657  -1.152  -0.909  0.00  0.00    +0.002 C 
ATOM     20  C   UNL     1      -2.584   0.340  -1.295  0.00  0.00    +0.025 C 
ENDBRANCH  15  16
BRANCH   1  21
ATOM     21  S   UNL     1      -2.760   4.043   0.445  0.00  0.00    -0.078 S 
BRANCH  21  22
ATOM     22  C   UNL     1      -2.194   5.753   0.622  0.00  0.00    +0.173 C 
BRANCH  22  24
ATOM     23  N   UNL     1      -3.200   7.981   1.003  0.00  0.00    -0.312 N 
ATOM     24  C   UNL     1      -3.381   6.655   0.843  0.00  0.00    +0.224 C 
ATOM     25  O   UNL     1      -4.500   6.187   0.878  0.00  0.00    -0.275 OA
ATOM     26  H   UNL     1      -2.306   8.355   0.975  0.00  0.00    +0.149 HD
BRANCH  23  29
ATOM     27  C   UNL     1      -5.105  11.056   2.131  0.00  0.00    -0.077 C 
ATOM     28  C   UNL     1      -3.908  10.118   1.963  0.00  0.00    +0.003 C 
ATOM     29  C   UNL     1      -4.355   8.857   1.218  0.00  0.00    +0.069 C 
ATOM     30  C   UNL     1      -4.952   9.258  -0.134  0.00  0.00    +0.003 C 
ATOM     31  C   UNL     1      -6.119  10.221   0.095  0.00  0.00    -0.077 C 
ATOM     32  N   UNL     1      -5.618  11.423   0.794  0.00  0.00    +0.380 N 
ATOM     33  H   UNL     1      -4.854  11.834   0.245  0.00  0.00    -0.082 HD
BRANCH  32  35
ATOM     34  C   UNL     1      -7.402  12.579  -0.426  0.00  0.00    -0.017 C 
ATOM     35  C   UNL     1      -6.702  12.418   0.925  0.00  0.00    -0.082 C 
ENDBRANCH  32  35
ENDBRANCH  23  29
ENDBRANCH  22  24
ENDBRANCH  21  22
ENDBRANCH   1  21
TORSDOF 6
