REMARK  Name = ZINC16434562
REMARK  16 active torsions:
REMARK  status: ('A' for Active; 'I' for Inactive)
REMARK    1  A    between atoms: C_1  and  C_2
REMARK    2  A    between atoms: C_2  and  C_3
REMARK    3  A    between atoms: C_3  and  C_4
REMARK    4  A    between atoms: C_4  and  N_5
REMARK    5  A    between atoms: N_5  and  C_6
REMARK    6  A    between atoms: C_6  and  C_7
REMARK    7  A    between atoms: N_9  and  C_10
REMARK    8  A    between atoms: C_12  and  C_19
REMARK    9  A    between atoms: N_14  and  C_15
REMARK   10  A    between atoms: C_15  and  C_16
REMARK   11  A    between atoms: C_15  and  C_17
REMARK   12  A    between atoms: C_15  and  C_18
REMARK   13  A    between atoms: C_19  and  C_20
REMARK   14  A    between atoms: C_19  and  C_21
REMARK   15  A    between atoms: C_19  and  C_22
REMARK   16  A    between atoms: N_25  and  C_26
REMARK                            x       y       z     vdW  Elec       q    Type
REMARK                         _______ _______ _______ _____ _____    ______ ____
ROOT
ATOM      1  C   UNL     1       6.036  -0.319  -0.083  0.00  0.00    +0.205 C 
ENDROOT
BRANCH   1   2
ATOM      2  N   UNL     1       6.372  -1.745  -0.086  0.00  0.00    -0.277 N 
ATOM      3  C   UNL     1       6.605  -2.381  -1.251  0.00  0.00    +0.307 C 
ATOM      4  O   UNL     1       6.535  -1.771  -2.300  0.00  0.00    -0.252 OA
ATOM      5  N   UNL     1       6.914  -3.693  -1.253  0.00  0.00    -0.269 N 
ATOM      6  H   UNL     1       7.045  -4.162  -0.414  0.00  0.00    +0.156 HD
BRANCH   5   7
ATOM      7  C   UNL     1       7.046  -4.379  -2.466  0.00  0.00    +0.035 A 
ATOM      8  C   UNL     1       6.257  -4.028  -3.553  0.00  0.00    +0.024 A 
ATOM      9  C   UNL     1       6.393  -4.703  -4.750  0.00  0.00    +0.017 A 
ATOM     10  C   UNL     1       7.307  -5.736  -4.864  0.00  0.00    +0.018 A 
ATOM     11  C   UNL     1       8.091  -6.091  -3.780  0.00  0.00    +0.017 A 
ATOM     12  C   UNL     1       7.963  -5.415  -2.583  0.00  0.00    +0.024 A 
ATOM     13 BR   UNL     1       7.485  -6.663  -6.502  0.00  0.00    -0.050 Br
ENDBRANCH   5   7
BRANCH   2  14
ATOM     14  C   UNL     1       6.456  -2.480   1.179  0.00  0.00    +0.110 C 
BRANCH  14  15
ATOM     15  C   UNL     1       5.084  -3.066   1.520  0.00  0.00    +0.019 C 
BRANCH  15  17
ATOM     16  C   UNL     1       3.799  -4.419   3.182  0.00  0.00    +0.004 C 
ATOM     17  C   UNL     1       5.171  -3.833   2.841  0.00  0.00    -0.002 C 
ENDBRANCH  15  17
ENDBRANCH  14  15
ENDBRANCH   2  14
ENDBRANCH   1   2
BRANCH   1  18
ATOM     18  C   UNL     1       4.542  -0.155  -0.180  0.00  0.00    +0.236 C 
ATOM     19  O   UNL     1       3.827  -1.133  -0.245  0.00  0.00    -0.274 OA
ATOM     20  N   UNL     1       3.998   1.078  -0.195  0.00  0.00    -0.269 N 
ATOM     21  H   UNL     1       4.570   1.860  -0.144  0.00  0.00    +0.156 HD
BRANCH  20  22
ATOM     22  C   UNL     1       2.615   1.230  -0.285  0.00  0.00    +0.124 A 
ATOM     23  C   UNL     1       1.699   0.226  -0.363  0.00  0.00    +0.069 A 
ATOM     24  C   UNL     1       0.431   0.809  -0.438  0.00  0.00    +0.070 A 
ATOM     25  N   UNL     1       0.573   2.109  -0.407  0.00  0.00    -0.174 NA
ATOM     26  N   UNL     1       1.939   2.402  -0.311  0.00  0.00    -0.245 N 
BRANCH  26  27
ATOM     27  C   UNL     1       2.532   3.740  -0.248  0.00  0.00    +0.057 C 
ATOM     28  C   UNL     1       1.423   4.792  -0.304  0.00  0.00    +0.036 C 
ATOM     29  C   UNL     1       3.314   3.891   1.058  0.00  0.00    +0.036 C 
ATOM     30  C   UNL     1       3.479   3.934  -1.435  0.00  0.00    +0.036 C 
ENDBRANCH  26  27
BRANCH  24  31
ATOM     31  C   UNL     1      -0.877   0.066  -0.538  0.00  0.00    +0.006 C 
ATOM     32  C   UNL     1      -1.228  -0.533   0.826  0.00  0.00    +0.017 C 
ATOM     33  C   UNL     1      -1.981   1.033  -0.969  0.00  0.00    +0.017 C 
ATOM     34  C   UNL     1      -0.749  -1.056  -1.570  0.00  0.00    +0.017 C 
ENDBRANCH  24  31
ENDBRANCH  20  22
ENDBRANCH   1  18
TORSDOF 9
