REMARK  Name = ZINC32889283
REMARK  7 active torsions:
REMARK  status: ('A' for Active; 'I' for Inactive)
REMARK    1  A    between atoms: C_1  and  C_2
REMARK    2  A    between atoms: C_2  and  C_4
REMARK    3  A    between atoms: C_2  and  N_13
REMARK    4  A    between atoms: C_14  and  C_16
REMARK    5  A    between atoms: C_16  and  C_17
REMARK    6  A    between atoms: C_17  and  C_19
REMARK    7  A    between atoms: C_17  and  N_24
REMARK                            x       y       z     vdW  Elec       q    Type
REMARK                         _______ _______ _______ _____ _____    ______ ____
ROOT
ATOM      1  N   UNL     1      -2.263  -0.108  -0.864  0.00  0.00    -0.309 N 
ATOM      2  C   UNL     1      -3.267  -0.816  -1.417  0.00  0.00    +0.216 C 
ATOM      3  O   UNL     1      -3.369  -2.003  -1.191  0.00  0.00    -0.276 OA
ATOM      4  H   UNL     1      -2.170   0.968  -1.069  0.00  0.00    +0.149 HD
ENDROOT
BRANCH   1   6
ATOM      5  C   UNL     1      -1.846  -0.826   1.437  0.00  0.00    +0.033 C 
ATOM      6  C   UNL     1      -1.294  -0.774   0.011  0.00  0.00    +0.100 C 
BRANCH   6   7
ATOM      7  C   UNL     1       0.002  -0.004   0.002  0.00  0.00    -0.024 A 
ATOM      8  C   UNL     1      -0.017   1.378   0.010  0.00  0.00    +0.009 A 
ATOM      9  C   UNL     1       1.169   2.089   0.002  0.00  0.00    +0.050 A 
ATOM     10  C   UNL     1       2.380   1.416  -0.013  0.00  0.00    +0.166 A 
ATOM     11  C   UNL     1       2.399   0.024  -0.020  0.00  0.00    +0.167 A 
ATOM     12  C   UNL     1       1.207  -0.682  -0.013  0.00  0.00    +0.055 A 
ATOM     13  O   UNL     1       3.698  -0.395  -0.035  0.00  0.00    -0.453 OA
ATOM     14  C   UNL     1       4.467   0.750  -0.448  0.00  0.00    +0.466 C 
ATOM     15  O   UNL     1       3.668   1.870  -0.022  0.00  0.00    -0.453 OA
ENDBRANCH   6   7
ENDBRANCH   1   6
BRANCH   2  16
ATOM     16  C   UNL     1      -4.264  -0.132  -2.317  0.00  0.00    +0.123 C 
BRANCH  16  17
ATOM     17  C   UNL     1      -5.292  -1.153  -2.808  0.00  0.00    +0.120 C 
BRANCH  17  18
ATOM     18  N   UNL     1      -6.072  -1.646  -1.671  0.00  0.00    -0.292 N 
ATOM     19  C   UNL     1      -6.658  -2.858  -1.731  0.00  0.00    +0.298 C 
ATOM     20  O   UNL     1      -6.540  -3.542  -2.729  0.00  0.00    -0.253 OA
ATOM     21  N   UNL     1      -7.376  -3.313  -0.684  0.00  0.00    -0.313 N 
ATOM     22  H   UNL     1      -6.179  -1.028  -0.767  0.00  0.00    +0.151 HD
ATOM     23  H   UNL     1      -7.854  -4.302  -0.733  0.00  0.00    +0.146 HD
ATOM     24  H   UNL     1      -7.483  -2.694   0.219  0.00  0.00    +0.146 HD
ENDBRANCH  17  18
BRANCH  17  25
ATOM     25  C   UNL     1      -6.215  -0.497  -3.803  0.00  0.00    +0.010 A 
ATOM     26  C   UNL     1      -6.187  -0.551  -5.157  0.00  0.00    +0.013 A 
ATOM     27  C   UNL     1      -7.149   0.135  -5.875  0.00  0.00    +0.008 A 
ATOM     28  C   UNL     1      -8.085   0.850  -5.205  0.00  0.00    +0.045 A 
ATOM     29  S   UNL     1      -7.624   0.558  -3.505  0.00  0.00    -0.100 S 
ENDBRANCH  17  25
ENDBRANCH  16  17
ENDBRANCH   2  16
TORSDOF 6
