REMARK  Name = ZINC22064407
REMARK  11 active torsions:
REMARK  status: ('A' for Active; 'I' for Inactive)
REMARK    1  A    between atoms: C_1  and  C_2
REMARK    2  A    between atoms: C_2  and  C_4
REMARK    3  A    between atoms: C_2  and  C_16
REMARK    4  A    between atoms: C_9  and  O_14
REMARK    5  A    between atoms: O_14  and  C_15
REMARK    6  A    between atoms: C_16  and  O_18
REMARK    7  A    between atoms: O_18  and  C_19
REMARK    8  A    between atoms: C_21  and  O_35
REMARK    9  A    between atoms: C_23  and  O_34
REMARK   10  A    between atoms: C_25  and  O_33
REMARK   11  A    between atoms: C_27  and  C_30
REMARK                            x       y       z     vdW  Elec       q    Type
REMARK                         _______ _______ _______ _____ _____    ______ ____
ROOT
ATOM      1  C   UNL     1      -5.732   3.548  -1.184  0.00  0.00    +0.317 C 
ATOM      2  O   UNL     1      -5.278   2.766  -1.985  0.00  0.00    -0.250 OA
ENDROOT
BRANCH   1   4
ATOM      3  C   UNL     1      -5.733   3.530   1.296  0.00  0.00    +0.024 C 
ATOM      4  C   UNL     1      -4.939   3.913   0.045  0.00  0.00    +0.125 C 
BRANCH   4   5
ATOM      5  C   UNL     1      -3.628   3.171   0.035  0.00  0.00    -0.033 A 
ATOM      6  C   UNL     1      -3.628   1.777   0.028  0.00  0.00    +0.005 A 
ATOM      7  C   UNL     1      -2.461   1.076   0.019  0.00  0.00    +0.009 A 
ATOM      8  C   UNL     1      -1.236   1.766   0.018  0.00  0.00    -0.014 A 
ATOM      9  C   UNL     1      -0.013   1.076   0.008  0.00  0.00    +0.054 A 
ATOM     10  C   UNL     1       1.158   1.779   0.001  0.00  0.00    +0.121 A 
ATOM     11  C   UNL     1       1.156   3.177   0.007  0.00  0.00    +0.046 A 
ATOM     12  C   UNL     1      -0.012   3.874   0.022  0.00  0.00    +0.012 A 
ATOM     13  C   UNL     1      -1.236   3.183   0.030  0.00  0.00    -0.017 A 
ATOM     14  C   UNL     1      -2.461   3.871   0.045  0.00  0.00    +0.013 A 
BRANCH  10  15
ATOM     15  O   UNL     1       2.341   1.110  -0.014  0.00  0.00    -0.495 OA
ATOM     16  C   UNL     1       3.533   1.900  -0.021  0.00  0.00    +0.277 C 
ENDBRANCH  10  15
ENDBRANCH   4   5
ENDBRANCH   1   4
BRANCH   1  17
ATOM     17  O   UNL     1      -6.942   4.093  -1.388  0.00  0.00    -0.432 OA
BRANCH  17  18
ATOM     18  C   UNL     1      -7.648   3.696  -2.593  0.00  0.00    +0.343 C 
ATOM     19  C   UNL     1      -9.048   4.316  -2.591  0.00  0.00    +0.214 C 
ATOM     20  C   UNL     1      -8.922   5.842  -2.608  0.00  0.00    +0.180 C 
ATOM     21  C   UNL     1      -8.101   6.263  -3.831  0.00  0.00    +0.186 C 
ATOM     22  C   UNL     1      -6.738   5.567  -3.785  0.00  0.00    +0.266 C 
ATOM     23  O   UNL     1      -6.928   4.152  -3.740  0.00  0.00    -0.322 OA
BRANCH  22  24
ATOM     24  C   UNL     1      -5.947   5.929  -5.015  0.00  0.00    +0.387 C 
ATOM     25  O   UNL     1      -5.660   5.076  -5.822  0.00  0.00    -0.243 OA
ATOM     26  O   UNL     1      -5.561   7.199  -5.216  0.00  0.00    -0.243 OA
ENDBRANCH  22  24
BRANCH  21  27
ATOM     27  O   UNL     1      -7.916   7.679  -3.818  0.00  0.00    -0.386 OA
ATOM     28  H   UNL     1      -7.346   8.167  -4.623  0.00  0.00    +0.210 HD
ENDBRANCH  21  27
BRANCH  20  29
ATOM     29  O   UNL     1      -8.264   6.281  -1.417  0.00  0.00    -0.386 OA
ATOM     30  H   UNL     1      -8.083   7.353  -1.252  0.00  0.00    +0.210 HD
ENDBRANCH  20  29
BRANCH  19  31
ATOM     31  O   UNL     1      -9.764   3.882  -3.749  0.00  0.00    -0.383 OA
ATOM     32  H   UNL     1     -10.794   4.227  -3.921  0.00  0.00    +0.210 HD
ENDBRANCH  19  31
ENDBRANCH  17  18
ENDBRANCH   1  17
TORSDOF 9
