REMARK  Name = ZINC20921932
REMARK  5 active torsions:
REMARK  status: ('A' for Active; 'I' for Inactive)
REMARK    1  A    between atoms: C_12  and  C_14
REMARK    2  A    between atoms: C_14  and  S_15
REMARK    3  A    between atoms: S_15  and  C_16
REMARK    4  A    between atoms: N_20  and  N_21
REMARK    5  A    between atoms: N_22  and  N_23
REMARK                            x       y       z     vdW  Elec       q    Type
REMARK                         _______ _______ _______ _____ _____    ______ ____
ROOT
ATOM      1  C   UNL     1      -4.784   2.077  -0.300  0.00  0.00    +0.173 C 
ENDROOT
BRANCH   1  13
ATOM      2  C   UNL     1     -12.237   2.284   3.786  0.00  0.00    +0.017 A 
ATOM      3  C   UNL     1     -11.547   2.517   2.625  0.00  0.00    +0.030 A 
ATOM      4  C   UNL     1     -10.159   2.260   2.545  0.00  0.00    +0.080 A 
ATOM      5  C   UNL     1      -9.548   1.758   3.717  0.00  0.00    +0.042 A 
ATOM      6  C   UNL     1     -10.246   1.528   4.876  0.00  0.00    +0.032 A 
ATOM      7  C   UNL     1     -11.604   1.791   4.919  0.00  0.00    +0.019 A 
ATOM      8 BR   UNL     1     -12.588   1.480   6.504  0.00  0.00    -0.050 Br
ATOM      9  S   UNL     1      -7.856   1.568   3.210  0.00  0.00    -0.052 S 
ATOM     10  C   UNL     1      -8.056   2.155   1.534  0.00  0.00    +0.165 A 
ATOM     11  N   UNL     1      -9.338   2.433   1.486  0.00  0.00    -0.225 NA
ATOM     12  N   UNL     1      -7.102   2.281   0.538  0.00  0.00    -0.264 N 
ATOM     13  C   UNL     1      -5.821   1.941   0.784  0.00  0.00    +0.229 C 
ATOM     14  O   UNL     1      -5.504   1.524   1.878  0.00  0.00    -0.275 OA
ATOM     15  H   UNL     1      -7.390   2.658  -0.455  0.00  0.00    +0.157 HD
ENDBRANCH   1  13
BRANCH   1  16
ATOM     16  S   UNL     1      -3.171   1.544   0.336  0.00  0.00    -0.075 S 
BRANCH  16  17
ATOM     17  C   UNL     1      -2.080   1.760  -1.031  0.00  0.00    +0.210 A 
ATOM     18  N   UNL     1      -2.411   2.209  -2.217  0.00  0.00    -0.119 NA
ATOM     19  N   UNL     1      -1.257   2.228  -3.010  0.00  0.00    -0.110 NA
ATOM     20  C   UNL     1      -0.257   1.797  -2.281  0.00  0.00    +0.248 A 
ATOM     21  N   UNL     1      -0.741   1.490  -1.041  0.00  0.00    -0.211 N 
ATOM     22  N   UNL     1       1.062   1.669  -2.698  0.00  0.00    -0.251 N 
ATOM     23  H   UNL     1       1.824   1.291  -2.001  0.00  0.00    +0.169 HD
BRANCH  21  24
ATOM     24  N   UNL     1      -0.012   1.005   0.008  0.00  0.00    -0.294 N 
ATOM     25  H   UNL     1       1.067   0.823  -0.110  0.00  0.00    +0.163 HD
ATOM     26  H   UNL     1      -0.503   0.796   0.969  0.00  0.00    +0.163 HD
ENDBRANCH  21  24
BRANCH  22  27
ATOM     27  N   UNL     1       1.412   2.013  -3.973  0.00  0.00    -0.254 NA
ATOM     28  H   UNL     1       2.489   1.844  -4.115  0.00  0.00    +0.140 HD
ATOM     29  H   UNL     1       0.846   1.396  -4.687  0.00  0.00    +0.140 HD
ENDBRANCH  22  27
ENDBRANCH  16  17
ENDBRANCH   1  16
TORSDOF 5
