REMARK  Name = ZINC50287579
REMARK  4 active torsions:
REMARK  status: ('A' for Active; 'I' for Inactive)
REMARK    1  A    between atoms: C_1  and  N_2
REMARK    2  A    between atoms: C_10  and  C_12
REMARK    3  A    between atoms: C_12  and  C_14
REMARK    4  A    between atoms: C_12  and  N_17
REMARK                            x       y       z     vdW  Elec       q    Type
REMARK                         _______ _______ _______ _____ _____    ______ ____
ROOT
ATOM      1  C   UNL     1       4.938  -2.755  -0.494  0.00  0.00    +0.173 C 
ENDROOT
BRANCH   1  11
ATOM      2  C   UNL     1       1.218   2.490  -1.606  0.00  0.00    +0.129 C 
ATOM      3  N   UNL     1       0.876   1.068  -1.524  0.00  0.00    -0.333 N 
ATOM      4  C   UNL     1      -0.511   0.622  -1.715  0.00  0.00    +0.105 C 
ATOM      5  C   UNL     1      -0.826  -0.407  -0.621  0.00  0.00    +0.024 C 
ATOM      6  C   UNL     1       0.087  -1.619  -0.805  0.00  0.00    +0.038 C 
ATOM      7  C   UNL     1       1.524  -1.185  -0.914  0.00  0.00    -0.026 A 
ATOM      8  C   UNL     1       1.866   0.112  -1.270  0.00  0.00    +0.033 A 
ATOM      9  C   UNL     1       3.203   0.479  -1.371  0.00  0.00    +0.024 A 
ATOM     10  C   UNL     1       4.195  -0.449  -1.121  0.00  0.00    +0.007 A 
ATOM     11  C   UNL     1       3.856  -1.742  -0.769  0.00  0.00    -0.021 A 
ATOM     12  C   UNL     1       2.524  -2.108  -0.657  0.00  0.00    +0.011 A 
ENDBRANCH   1  11
BRANCH   1  13
ATOM     13  N   UNL     1       5.968  -2.665  -1.537  0.00  0.00    -0.291 NA
ATOM     14  C   UNL     1       7.065  -3.608  -1.276  0.00  0.00    +0.066 C 
ATOM     15  C   UNL     1       8.143  -3.442  -2.349  0.00  0.00    -0.067 C 
ATOM     16  N   UNL     1       7.559  -3.697  -3.673  0.00  0.00    +0.381 N 
ATOM     17  C   UNL     1       6.482  -2.733  -3.929  0.00  0.00    -0.067 C 
ATOM     18  C   UNL     1       5.391  -2.893  -2.869  0.00  0.00    +0.066 C 
ATOM     19  H   UNL     1       8.273  -3.600  -4.379  0.00  0.00    -0.086 HD
ATOM     20  H   UNL     1       7.185  -4.634  -3.700  0.00  0.00    -0.086 HD
ENDBRANCH   1  13
BRANCH   1  21
ATOM     21  C   UNL     1       5.558  -2.474   0.851  0.00  0.00    +0.232 C 
ATOM     22  O   UNL     1       6.542  -1.769   0.929  0.00  0.00    -0.274 OA
ATOM     23  N   UNL     1       5.019  -3.006   1.966  0.00  0.00    -0.328 N 
ATOM     24  H   UNL     1       4.232  -3.569   1.903  0.00  0.00    +0.145 HD
ATOM     25  H   UNL     1       5.419  -2.825   2.831  0.00  0.00    +0.145 HD
ENDBRANCH   1  21
TORSDOF 3
