REMARK  Name = ZINC33382455
REMARK  11 active torsions:
REMARK  status: ('A' for Active; 'I' for Inactive)
REMARK    1  A    between atoms: C_1  and  C_2
REMARK    2  A    between atoms: C_2  and  C_3
REMARK    3  A    between atoms: C_3  and  C_5
REMARK    4  A    between atoms: C_3  and  C_6
REMARK    5  A    between atoms: C_6  and  C_8
REMARK    6  A    between atoms: C_6  and  N_25
REMARK    7  A    between atoms: C_14  and  C_16
REMARK    8  A    between atoms: C_19  and  N_22
REMARK    9  A    between atoms: N_22  and  C_23
REMARK   10  A    between atoms: N_22  and  C_24
REMARK   11  A    between atoms: N_28  and  C_29
REMARK                            x       y       z     vdW  Elec       q    Type
REMARK                         _______ _______ _______ _____ _____    ______ ____
ROOT
ATOM      1  C   UNL     1      -3.473  -3.923   0.681  0.00  0.00    +0.163 C 
ENDROOT
BRANCH   1   2
ATOM      2  C   UNL     1      -4.511  -4.689  -0.097  0.00  0.00    +0.239 C 
ATOM      3  O   UNL     1      -5.167  -4.127  -0.949  0.00  0.00    -0.273 OA
ATOM      4  N   UNL     1      -4.712  -5.998   0.154  0.00  0.00    -0.262 N 
ATOM      5  C   UNL     1      -5.589  -6.730  -0.636  0.00  0.00    +0.188 A 
ATOM      6  N   UNL     1      -6.328  -6.348  -1.670  0.00  0.00    -0.125 NA
ATOM      7  N   UNL     1      -7.078  -7.152  -2.288  0.00  0.00    -0.140 NA
ATOM      8  C   UNL     1      -7.182  -8.427  -1.933  0.00  0.00    +0.134 A 
ATOM      9  S   UNL     1      -6.051  -8.458  -0.545  0.00  0.00    -0.030 S 
ATOM     10  H   UNL     1      -4.181  -6.486   0.985  0.00  0.00    +0.157 HD
BRANCH   8  11
ATOM     11  C   UNL     1      -7.999  -9.511  -2.516  0.00  0.00    +0.009 A 
ATOM     12  C   UNL     1      -7.946 -10.797  -1.974  0.00  0.00    +0.012 A 
ATOM     13  C   UNL     1      -8.713 -11.805  -2.517  0.00  0.00    +0.024 A 
ATOM     14  C   UNL     1      -9.531 -11.545  -3.610  0.00  0.00    +0.029 A 
ATOM     15  C   UNL     1      -9.582 -10.267  -4.156  0.00  0.00    +0.024 A 
ATOM     16  C   UNL     1      -8.822  -9.254  -3.615  0.00  0.00    +0.012 A 
BRANCH  14  17
ATOM     17  N   UNL     1     -10.303 -12.569  -4.162  0.00  0.00    -0.336 N 
ATOM     18  C   UNL     1     -11.073 -12.329  -5.384  0.00  0.00    +0.129 C 
ATOM     19  C   UNL     1     -10.342 -13.884  -3.518  0.00  0.00    +0.129 C 
ENDBRANCH  14  17
ENDBRANCH   8  11
ENDBRANCH   1   2
BRANCH   1  20
ATOM     20  N   UNL     1      -3.346  -2.572   0.128  0.00  0.00    -0.288 N 
ATOM     21  C   UNL     1      -2.126  -2.023  -0.036  0.00  0.00    +0.301 C 
ATOM     22  O   UNL     1      -1.137  -2.608   0.363  0.00  0.00    -0.253 OA
ATOM     23  N   UNL     1      -2.001  -0.827  -0.643  0.00  0.00    -0.294 N 
ATOM     24  H   UNL     1      -4.246  -2.006  -0.153  0.00  0.00    +0.151 HD
ATOM     25  H   UNL     1      -2.895  -0.298  -1.005  0.00  0.00    +0.151 HD
BRANCH  23  26
ATOM     26  C   UNL     1      -0.675  -0.230  -0.822  0.00  0.00    +0.037 C 
ATOM     27  C   UNL     1      -0.814   1.117  -1.533  0.00  0.00    +0.029 C 
ATOM     28  C   UNL     1       0.572   1.740  -1.720  0.00  0.00    -0.008 C 
ATOM     29  C   UNL     1       1.442   0.806  -2.563  0.00  0.00    +0.007 C 
ATOM     30  C   UNL     1       1.580  -0.542  -1.852  0.00  0.00    -0.008 C 
ATOM     31  C   UNL     1       0.195  -1.165  -1.665  0.00  0.00    +0.029 C 
ATOM     32  C   UNL     1       2.233  -0.332  -0.484  0.00  0.00    +0.007 C 
ATOM     33  C   UNL     1       1.363   0.602   0.359  0.00  0.00    -0.008 C 
ATOM     34  C   UNL     1       1.225   1.950  -0.352  0.00  0.00    +0.007 C 
ATOM     35  C   UNL     1      -0.022  -0.021   0.545  0.00  0.00    +0.029 C 
ENDBRANCH  23  26
ENDBRANCH   1  20
BRANCH   1  36
ATOM     36  C   UNL     1      -3.898  -3.834   2.149  0.00  0.00    +0.015 C 
ATOM     37  C   UNL     1      -2.765  -3.216   2.971  0.00  0.00    +0.010 C 
BRANCH  36  39
ATOM     38  C   UNL     1      -6.343  -3.697   1.654  0.00  0.00    +0.004 C 
ATOM     39  C   UNL     1      -5.149  -2.962   2.266  0.00  0.00    +0.002 C 
ENDBRANCH  36  39
ENDBRANCH   1  36
TORSDOF 7
