REMARK  Name = ZINC09125867
REMARK  13 active torsions:
REMARK  status: ('A' for Active; 'I' for Inactive)
REMARK    1  A    between atoms: C_1  and  C_2
REMARK    2  A    between atoms: C_4  and  C_14
REMARK    3  A    between atoms: C_5  and  C_13
REMARK    4  A    between atoms: C_9  and  C_12
REMARK    5  A    between atoms: C_14  and  C_16
REMARK    6  A    between atoms: C_16  and  S_17
REMARK    7  A    between atoms: S_17  and  C_18
REMARK    8  A    between atoms: C_21  and  C_30
REMARK    9  A    between atoms: N_22  and  C_23
REMARK   10  A    between atoms: C_30  and  C_32
REMARK   11  A    between atoms: C_30  and  N_61
REMARK   12  A    between atoms: C_33  and  N_61
REMARK   13  A    between atoms: C_34  and  N_61
REMARK                            x       y       z     vdW  Elec       q    Type
REMARK                         _______ _______ _______ _____ _____    ______ ____
ROOT
ATOM      1  C   UNL     1       1.111  -0.460  -1.036  0.00  0.00    +0.196 A 
ATOM      2  N   UNL     1      -0.137  -0.055  -1.048  0.00  0.00    -0.122 NA
ATOM      3  N   UNL     1      -0.184   1.213  -1.252  0.00  0.00    -0.135 NA
ATOM      4  C   UNL     1       1.021   1.692  -1.381  0.00  0.00    +0.125 A 
ATOM      5  N   UNL     1       1.892   0.643  -1.248  0.00  0.00    -0.275 N 
ENDROOT
BRANCH   5   6
ATOM      6  C   UNL     1       3.292   0.690  -1.315  0.00  0.00    +0.050 A 
ATOM      7  C   UNL     1       4.011   1.394  -0.358  0.00  0.00    +0.028 A 
ATOM      8  C   UNL     1       5.390   1.435  -0.424  0.00  0.00    +0.022 A 
ATOM      9  C   UNL     1       6.055   0.785  -1.449  0.00  0.00    +0.041 A 
ATOM     10  C   UNL     1       5.340   0.087  -2.407  0.00  0.00    +0.022 A 
ATOM     11  C   UNL     1       3.961   0.039  -2.342  0.00  0.00    +0.028 A 
ATOM     12 CL   UNL     1       7.788   0.844  -1.534  0.00  0.00    -0.084 Cl
ENDBRANCH   5   6
BRANCH   4  13
ATOM     13  C   UNL     1       1.388   3.132  -1.631  0.00  0.00    -0.003 C 
ATOM     14  C   UNL     1       1.092   3.488  -3.089  0.00  0.00    -0.005 C 
BRANCH  13  17
ATOM     15  C   UNL     1       0.787   3.623   0.663  0.00  0.00    -0.096 C 
ATOM     16  C   UNL     1       0.932   5.414  -0.961  0.00  0.00    -0.096 C 
ATOM     17  N   UNL     1       0.572   3.995  -0.751  0.00  0.00    +0.382 N 
ATOM     18  H   UNL     1      -0.419   3.865  -0.983  0.00  0.00    -0.082 HD
ENDBRANCH  13  17
ENDBRANCH   4  13
BRANCH   1  19
ATOM     19  S   UNL     1       1.675  -2.112  -0.792  0.00  0.00    -0.078 S 
BRANCH  19  20
ATOM     20  C   UNL     1       0.088  -2.958  -0.587  0.00  0.00    +0.157 C 
BRANCH  20  21
ATOM     21  C   UNL     1       0.329  -4.428  -0.360  0.00  0.00    +0.175 C 
ATOM     22  O   UNL     1       1.462  -4.861  -0.338  0.00  0.00    -0.291 OA
BRANCH  21  26
ATOM     23  C   UNL     1      -4.405  -6.246   0.139  0.00  0.00    +0.064 C 
ATOM     24  C   UNL     1      -2.906  -6.120   0.053  0.00  0.00    +0.023 A 
ATOM     25  C   UNL     1      -2.231  -4.978  -0.155  0.00  0.00    +0.034 A 
ATOM     26  C   UNL     1      -0.805  -5.334  -0.165  0.00  0.00    +0.039 A 
ATOM     27  C   UNL     1      -0.752  -6.698   0.054  0.00  0.00    +0.033 A 
ATOM     28  N   UNL     1      -2.015  -7.151   0.182  0.00  0.00    -0.299 N 
ATOM     29  C   UNL     1      -2.366  -8.485   0.413  0.00  0.00    +0.181 A 
ATOM     30  C   UNL     1      -3.290  -8.969   1.376  0.00  0.00    +0.094 A 
ATOM     31  C   UNL     1      -3.273 -10.310   1.200  0.00  0.00    +0.136 A 
ATOM     32  O   UNL     1      -2.402 -10.555   0.211  0.00  0.00    -0.358 OA
ATOM     33  N   UNL     1      -1.912  -9.536  -0.217  0.00  0.00    -0.060 NA
ATOM     34  C   UNL     1      -4.076 -11.329   1.967  0.00  0.00    +0.089 C 
ATOM     35  C   UNL     1       0.499  -7.533   0.135  0.00  0.00    +0.064 C 
ENDBRANCH  21  26
ENDBRANCH  20  21
ENDBRANCH  19  20
ENDBRANCH   1  19
TORSDOF 7
