REMARK  Name = ZINC09356622
REMARK  4 active torsions:
REMARK  status: ('A' for Active; 'I' for Inactive)
REMARK    1  A    between atoms: C_21  and  C_32
REMARK    2  A    between atoms: C_23  and  C_25
REMARK    3  A    between atoms: C_25  and  C_27
REMARK    4  A    between atoms: C_32  and  C_34
REMARK                            x       y       z     vdW  Elec       q    Type
REMARK                         _______ _______ _______ _____ _____    ______ ____
ROOT
ATOM      1  C   UNL     1       7.496   2.923  -0.676  0.00  0.00    +0.001 A 
ATOM      2  C   UNL     1       7.109   3.483   0.529  0.00  0.00    +0.000 A 
ATOM      3  C   UNL     1       6.186   4.514   0.554  0.00  0.00    +0.006 A 
ATOM      4  C   UNL     1       5.649   4.987  -0.622  0.00  0.00    -0.020 A 
ATOM      5  C   UNL     1       6.036   4.429  -1.846  0.00  0.00    -0.019 A 
ATOM      6  C   UNL     1       6.966   3.388  -1.862  0.00  0.00    +0.008 A 
ATOM      7  C   UNL     1       5.471   4.937  -3.113  0.00  0.00    +0.022 C 
ATOM      8  C   UNL     1       4.346   5.679  -3.083  0.00  0.00    +0.054 C 
ATOM      9  C   UNL     1       4.641   6.106  -0.622  0.00  0.00    +0.107 C 
ATOM     10  C   UNL     1       3.699   6.014   0.578  0.00  0.00    +0.107 C 
ATOM     11  C   UNL     1       3.487   7.329   1.245  0.00  0.00    -0.008 A 
ATOM     12  C   UNL     1       3.009   8.535   0.778  0.00  0.00    +0.006 A 
ATOM     13  C   UNL     1       2.939   9.583   1.689  0.00  0.00    +0.000 A 
ATOM     14  C   UNL     1       3.331   9.422   3.002  0.00  0.00    +0.002 A 
ATOM     15  C   UNL     1       3.814   8.214   3.480  0.00  0.00    +0.023 A 
ATOM     16  C   UNL     1       3.891   7.154   2.576  0.00  0.00    +0.038 A 
ATOM     17  N   UNL     1       4.329   5.856   2.780  0.00  0.00    -0.284 N 
ATOM     18  C   UNL     1       4.252   5.114   1.653  0.00  0.00    +0.231 C 
ATOM     19  O   UNL     1       4.567   3.949   1.530  0.00  0.00    -0.274 OA
ATOM     20  C   UNL     1       2.385   5.442   0.008  0.00  0.00    +0.108 C 
ATOM     21  C   UNL     1       2.398   6.008  -1.440  0.00  0.00    +0.143 C 
ATOM     22  H   UNL     1       4.653   5.520   3.630  0.00  0.00    +0.155 HD
ATOM     23  N   UNL     1       3.820   6.289  -1.790  0.00  0.00    -0.383 NA
ATOM     24  H   UNL     1       3.850   7.300  -1.969  0.00  0.00    +0.127 HD
ENDROOT
BRANCH  21  25
ATOM     25  C   UNL     1       1.549   5.156  -2.349  0.00  0.00    +0.217 C 
ATOM     26  O   UNL     1       2.072   4.336  -3.076  0.00  0.00    -0.287 OA
BRANCH  25  27
ATOM     27  C   UNL     1       0.144   5.311  -2.353  0.00  0.00    +0.172 A 
ATOM     28  C   UNL     1      -0.750   4.601  -3.130  0.00  0.00    +0.053 A 
ATOM     29  C   UNL     1      -2.026   5.082  -2.808  0.00  0.00    +0.042 A 
ATOM     30  C   UNL     1      -1.867   6.043  -1.869  0.00  0.00    +0.196 A 
ATOM     31  O   UNL     1      -0.564   6.175  -1.595  0.00  0.00    -0.460 OA
ENDBRANCH  25  27
ENDBRANCH  21  25
BRANCH  20  32
ATOM     32  C   UNL     1       2.411   3.936  -0.000  0.00  0.00    +0.170 C 
ATOM     33  O   UNL     1       3.009   3.344  -0.874  0.00  0.00    -0.292 OA
BRANCH  32  34
ATOM     34  C   UNL     1       1.712   3.182   1.051  0.00  0.00    +0.018 A 
ATOM     35  C   UNL     1       1.734   1.783   1.046  0.00  0.00    +0.014 A 
ATOM     36  C   UNL     1       1.076   1.083   2.034  0.00  0.00    +0.039 A 
ATOM     37  C   UNL     1       0.388   1.763   3.028  0.00  0.00    +0.123 A 
ATOM     38  C   UNL     1       0.367   3.150   3.042  0.00  0.00    +0.039 A 
ATOM     39  C   UNL     1       1.020   3.862   2.060  0.00  0.00    +0.014 A 
ATOM     40  F   UNL     1      -0.260   1.071   3.991  0.00  0.00    -0.205 F 
ENDBRANCH  32  34
ENDBRANCH  20  32
TORSDOF 4
