REMARK  Name = ZINC13407254
REMARK  10 active torsions:
REMARK  status: ('A' for Active; 'I' for Inactive)
REMARK    1  A    between atoms: C_4  and  O_17
REMARK    2  A    between atoms: C_10  and  O_16
REMARK    3  A    between atoms: C_13  and  C_14
REMARK    4  A    between atoms: C_14  and  O_15
REMARK    5  A    between atoms: O_17  and  C_18
REMARK    6  A    between atoms: C_20  and  O_33
REMARK    7  A    between atoms: C_22  and  O_32
REMARK    8  A    between atoms: C_24  and  O_31
REMARK    9  A    between atoms: C_26  and  C_29
REMARK   10  A    between atoms: C_29  and  O_30
REMARK                            x       y       z     vdW  Elec       q    Type
REMARK                         _______ _______ _______ _____ _____    ______ ____
ROOT
ATOM      1  O   UNL     1       3.302   2.659  -1.344  0.00  0.00    -0.309 OA
ENDROOT
BRANCH   1   5
ATOM      2  C   UNL     1      -0.745   2.069  -1.177  0.00  0.00    +0.018 C 
ATOM      3  C   UNL     1      -0.157   2.645  -2.190  0.00  0.00    +0.186 C 
ATOM      4  O   UNL     1       1.178   2.818  -2.239  0.00  0.00    -0.471 OA
ATOM      5  C   UNL     1       2.018   2.036  -1.413  0.00  0.00    +0.317 C 
ATOM      6  C   UNL     1       1.478   1.873  -0.002  0.00  0.00    +0.095 C 
ATOM      7  C   UNL     1      -0.019   1.540   0.011  0.00  0.00    +0.060 C 
ATOM      8  C   UNL     1       0.002  -0.004   0.002  0.00  0.00    +0.145 C 
ATOM      9  C   UNL     1       1.329  -0.360   0.637  0.00  0.00    +0.006 C 
ATOM     10  C   UNL     1       2.137   0.667   0.639  0.00  0.00    -0.036 C 
BRANCH   8  11
ATOM     11  O   UNL     1      -0.060  -0.498  -1.337  0.00  0.00    -0.387 OA
ATOM     12  H   UNL     1      -0.050  -1.463  -1.402  0.00  0.00    +0.210 HD
ENDBRANCH   8  11
BRANCH  10  13
ATOM     13  C   UNL     1       3.535   0.654   1.202  0.00  0.00    +0.187 C 
BRANCH  13  14
ATOM     14  O   UNL     1       3.826  -0.644   1.724  0.00  0.00    -0.391 OA
ATOM     15  H   UNL     1       4.712  -0.726   2.104  0.00  0.00    +0.210 HD
ENDBRANCH  13  14
ENDBRANCH  10  13
ENDBRANCH   1   5
BRANCH   1  16
ATOM     16  C   UNL     1       3.964   2.765  -2.606  0.00  0.00    +0.286 C 
ATOM     17  C   UNL     1       5.266   3.553  -2.435  0.00  0.00    +0.201 C 
ATOM     18  C   UNL     1       5.999   3.610  -3.778  0.00  0.00    +0.179 C 
ATOM     19  C   UNL     1       6.245   2.182  -4.275  0.00  0.00    +0.177 C 
ATOM     20  C   UNL     1       4.905   1.448  -4.375  0.00  0.00    +0.178 C 
ATOM     21  O   UNL     1       4.262   1.458  -3.099  0.00  0.00    -0.340 OA
BRANCH  19  22
ATOM     22  O   UNL     1       6.864   2.224  -5.562  0.00  0.00    -0.386 OA
ATOM     23  H   UNL     1       7.719   2.676  -5.573  0.00  0.00    +0.210 HD
ENDBRANCH  19  22
BRANCH  18  24
ATOM     24  O   UNL     1       7.250   4.280  -3.612  0.00  0.00    -0.386 OA
ATOM     25  H   UNL     1       7.170   5.192  -3.299  0.00  0.00    +0.210 HD
ENDBRANCH  18  24
BRANCH  17  26
ATOM     26  O   UNL     1       4.967   4.880  -1.997  0.00  0.00    -0.384 OA
ATOM     27  H   UNL     1       4.497   4.919  -1.153  0.00  0.00    +0.210 HD
ENDBRANCH  17  26
BRANCH  20  28
ATOM     28  C   UNL     1       5.148   0.002  -4.813  0.00  0.00    +0.190 C 
BRANCH  28  29
ATOM     29  O   UNL     1       3.893  -0.651  -5.018  0.00  0.00    -0.392 OA
ATOM     30  H   UNL     1       3.970  -1.573  -5.298  0.00  0.00    +0.210 HD
ENDBRANCH  28  29
ENDBRANCH  20  28
ENDBRANCH   1  16
TORSDOF 10
