REMARK  Name = ZINC20617420
REMARK  9 active torsions:
REMARK  status: ('A' for Active; 'I' for Inactive)
REMARK    1  A    between atoms: C_1  and  C_2
REMARK    2  A    between atoms: C_4  and  N_11
REMARK    3  A    between atoms: C_5  and  O_9
REMARK    4  A    between atoms: O_9  and  C_10
REMARK    5  A    between atoms: C_12  and  C_14
REMARK    6  A    between atoms: C_17  and  C_36
REMARK    7  A    between atoms: C_20  and  C_35
REMARK    8  A    between atoms: N_24  and  C_25
REMARK    9  A    between atoms: C_36  and  O_37
REMARK                            x       y       z     vdW  Elec       q    Type
REMARK                         _______ _______ _______ _____ _____    ______ ____
ROOT
ATOM      1  C   UNL     1      -3.752   5.893   0.278  0.00  0.00    +0.098 A 
ATOM      2  C   UNL     1      -3.802   7.275   0.396  0.00  0.00    +0.030 A 
ATOM      3  C   UNL     1      -5.126   7.889   0.512  0.00  0.00    +0.027 A 
ATOM      4  C   UNL     1      -5.315   9.269   0.367  0.00  0.00    +0.007 A 
ATOM      5  C   UNL     1      -6.592   9.774   0.491  0.00  0.00    +0.117 A 
ATOM      6  N   UNL     1      -7.620   8.983   0.740  0.00  0.00    -0.256 NA
ATOM      7  C   UNL     1      -7.493   7.680   0.886  0.00  0.00    +0.081 A 
ATOM      8  C   UNL     1      -6.246   7.080   0.780  0.00  0.00    +0.159 A 
ATOM      9  O   UNL     1      -6.091   5.743   0.929  0.00  0.00    -0.437 OA
ATOM     10  C   UNL     1      -5.039   5.170   0.289  0.00  0.00    +0.212 A 
ATOM     11  N   UNL     1      -5.164   4.002  -0.305  0.00  0.00    -0.325 N 
ATOM     12  C   UNL     1      -8.709   6.836   1.169  0.00  0.00    +0.069 C 
ATOM     13  H   UNL     1      -4.284   3.513  -0.747  0.00  0.00    +0.169 HD
ENDROOT
BRANCH  11  14
ATOM     14  C   UNL     1      -6.384   3.398  -0.371  0.00  0.00    +0.050 A 
ATOM     15  C   UNL     1      -6.846   2.615   0.680  0.00  0.00    +0.026 A 
ATOM     16  C   UNL     1      -8.089   2.002   0.609  0.00  0.00    +0.003 A 
ATOM     17  C   UNL     1      -8.898   2.140  -0.478  0.00  0.00    +0.008 A 
ATOM     18  C   UNL     1      -8.495   2.917  -1.577  0.00  0.00    -0.016 A 
ATOM     19  C   UNL     1      -7.236   3.566  -1.547  0.00  0.00    +0.006 A 
ATOM     20  C   UNL     1      -6.829   4.337  -2.642  0.00  0.00    +0.010 A 
ATOM     21  C   UNL     1      -7.653   4.463  -3.721  0.00  0.00    +0.001 A 
ATOM     22  C   UNL     1      -8.894   3.831  -3.751  0.00  0.00    +0.001 A 
ATOM     23  C   UNL     1      -9.319   3.070  -2.706  0.00  0.00    +0.008 A 
ENDBRANCH  11  14
BRANCH   1  25
ATOM     24  N   UNL     1      -2.455   3.834   0.046  0.00  0.00    -0.278 N 
ATOM     25  C   UNL     1      -2.469   5.178   0.153  0.00  0.00    +0.253 C 
ATOM     26  O   UNL     1      -1.424   5.800   0.146  0.00  0.00    -0.270 OA
ATOM     27  H   UNL     1      -3.401   3.277  -0.022  0.00  0.00    +0.155 HD
BRANCH  24  31
ATOM     28  C   UNL     1       2.276   3.657  -1.285  0.00  0.00    +0.045 C 
ATOM     29  C   UNL     1       1.075   3.036  -0.618  0.00  0.00    -0.030 A 
ATOM     30  C   UNL     1      -0.128   3.716  -0.593  0.00  0.00    +0.031 A 
ATOM     31  C   UNL     1      -1.234   3.147   0.020  0.00  0.00    +0.076 A 
ATOM     32  C   UNL     1      -1.130   1.886   0.605  0.00  0.00    +0.143 A 
ATOM     33  C   UNL     1       0.080   1.213   0.581  0.00  0.00    +0.067 A 
ATOM     34  C   UNL     1       1.179   1.787  -0.033  0.00  0.00    +0.047 A 
ATOM     35 CL   UNL     1       2.693   0.939  -0.067  0.00  0.00    -0.083 Cl
BRANCH  32  36
ATOM     36  O   UNL     1      -2.213   1.321   1.203  0.00  0.00    -0.493 OA
ATOM     37  C   UNL     1      -2.031   0.030   1.787  0.00  0.00    +0.277 C 
ENDBRANCH  32  36
ENDBRANCH  24  31
ENDBRANCH   1  25
BRANCH   4  38
ATOM     38  C   UNL     1      -4.149  10.181   0.082  0.00  0.00    +0.193 C 
BRANCH  38  39
ATOM     39  O   UNL     1      -4.612  11.529  -0.019  0.00  0.00    -0.390 OA
ATOM     40  H   UNL     1      -3.900  12.341  -0.225  0.00  0.00    +0.210 HD
ENDBRANCH  38  39
ENDBRANCH   4  38
TORSDOF 6
