REMARK  Name = ZINC04577374
REMARK  8 active torsions:
REMARK  status: ('A' for Active; 'I' for Inactive)
REMARK    1  A    between atoms: C_1  and  C_2
REMARK    2  A    between atoms: C_2  and  O_3
REMARK    3  A    between atoms: O_3  and  C_4
REMARK    4  A    between atoms: C_9  and  O_10
REMARK    5  A    between atoms: O_10  and  C_11
REMARK    6  A    between atoms: C_11  and  C_12
REMARK    7  A    between atoms: C_13  and  C_17
REMARK    8  A    between atoms: C_22  and  O_23
REMARK                            x       y       z     vdW  Elec       q    Type
REMARK                         _______ _______ _______ _____ _____    ______ ____
ROOT
ATOM      1  C   UNL     1       3.550   1.916   3.335  0.00  0.00    +0.162 A 
ATOM      2  C   UNL     1       2.895   1.249   4.354  0.00  0.00    +0.053 A 
ATOM      3  C   UNL     1       1.688   0.609   4.112  0.00  0.00    -0.044 A 
ATOM      4  C   UNL     1       1.133   0.639   2.850  0.00  0.00    -0.050 A 
ATOM      5  C   UNL     1       1.788   1.307   1.824  0.00  0.00    +0.052 A 
ATOM      6  C   UNL     1       2.992   1.944   2.060  0.00  0.00    +0.162 A 
ATOM      7  C   UNL     1      -0.178  -0.035   2.542  0.00  0.00    -0.006 C 
ATOM      8  C   UNL     1      -0.448  -0.381   4.912  0.00  0.00    -0.077 C 
ATOM      9  C   UNL     1       1.018  -0.113   5.253  0.00  0.00    +0.016 C 
ATOM     10  N   UNL     1      -0.511  -1.017   3.583  0.00  0.00    +0.387 N 
ATOM     11  H   UNL     1       0.158  -1.794   3.546  0.00  0.00    -0.085 HD
ATOM     12  H   UNL     1      -1.460  -1.375   3.422  0.00  0.00    -0.085 HD
ENDROOT
BRANCH   7  13
ATOM     13  C   UNL     1      -0.074  -0.741   1.214  0.00  0.00    -0.013 A 
ATOM     14  C   UNL     1      -0.699  -0.214   0.101  0.00  0.00    +0.026 A 
ATOM     15  C   UNL     1      -0.604  -0.860  -1.119  0.00  0.00    +0.043 A 
ATOM     16  C   UNL     1       0.117  -2.036  -1.226  0.00  0.00    +0.043 A 
ATOM     17  C   UNL     1       0.748  -2.564  -0.116  0.00  0.00    +0.084 A 
ATOM     18  C   UNL     1       0.649  -1.919   1.110  0.00  0.00    +0.137 A 
ATOM     19 CL   UNL     1       1.659  -4.036  -0.252  0.00  0.00    -0.080 Cl
ATOM     20 CL   UNL     1      -1.391  -0.195  -2.516  0.00  0.00    -0.083 Cl
BRANCH  18  21
ATOM     21  O   UNL     1       1.265  -2.440   2.205  0.00  0.00    -0.505 OA
ATOM     22  H   UNL     1       0.745  -3.113   2.666  0.00  0.00    +0.292 HD
ENDBRANCH  18  21
ENDBRANCH   7  13
BRANCH   1  23
ATOM     23  O   UNL     1       4.733   2.542   3.577  0.00  0.00    -0.489 OA
BRANCH  23  25
ATOM     24  C   UNL     1       6.572   3.225   4.988  0.00  0.00    +0.048 C 
ATOM     25  C   UNL     1       5.244   2.470   4.910  0.00  0.00    +0.226 C 
ENDBRANCH  23  25
ENDBRANCH   1  23
BRANCH   6  26
ATOM     26  O   UNL     1       3.630   2.596   1.050  0.00  0.00    -0.489 OA
BRANCH  26  27
ATOM     27  C   UNL     1       2.997   2.582  -0.231  0.00  0.00    +0.226 C 
ATOM     28  C   UNL     1       3.855   3.359  -1.231  0.00  0.00    +0.048 C 
ENDBRANCH  26  27
ENDBRANCH   6  26
TORSDOF 6
