REMARK  Name = ZINC63426680
REMARK  12 active torsions:
REMARK  status: ('A' for Active; 'I' for Inactive)
REMARK    1  A    between atoms: C_1  and  C_2
REMARK    2  A    between atoms: C_4  and  O_12
REMARK    3  A    between atoms: C_5  and  C_9
REMARK    4  A    between atoms: C_9  and  C_10
REMARK    5  A    between atoms: C_9  and  C_11
REMARK    6  A    between atoms: O_12  and  C_13
REMARK    7  A    between atoms: C_13  and  C_14
REMARK    8  A    between atoms: C_16  and  C_22
REMARK    9  A    between atoms: C_19  and  O_20
REMARK   10  A    between atoms: O_20  and  C_21
REMARK   11  A    between atoms: C_29  and  O_34
REMARK   12  A    between atoms: O_34  and  C_35
REMARK                            x       y       z     vdW  Elec       q    Type
REMARK                         _______ _______ _______ _____ _____    ______ ____
ROOT
ATOM      1  C   UNL     1       0.230  -2.879  -4.799  0.00  0.00    +0.032 A 
ATOM      2  C   UNL     1       0.243  -4.249  -4.625  0.00  0.00    +0.015 A 
ATOM      3  C   UNL     1       0.037  -5.087  -5.705  0.00  0.00    -0.028 A 
ATOM      4  C   UNL     1      -0.183  -4.556  -6.963  0.00  0.00    +0.009 A 
ATOM      5  C   UNL     1      -0.198  -3.186  -7.142  0.00  0.00    +0.046 A 
ATOM      6  C   UNL     1       0.004  -2.343  -6.059  0.00  0.00    +0.126 A 
ENDROOT
BRANCH   3   7
ATOM      7  C   UNL     1       0.053  -6.581  -5.512  0.00  0.00    +0.111 C 
ATOM      8  C   UNL     1      -1.236  -7.188  -6.072  0.00  0.00    +0.128 C 
ATOM      9  C   UNL     1      -1.192  -6.965  -7.579  0.00  0.00    -0.035 C 
ATOM     10  C   UNL     1      -2.318  -6.346  -7.900  0.00  0.00    +0.003 A 
ATOM     11  C   UNL     1      -2.887  -5.945  -9.196  0.00  0.00    +0.055 A 
ATOM     12  C   UNL     1      -4.085  -5.300  -9.165  0.00  0.00    +0.121 A 
ATOM     13  C   UNL     1      -4.787  -5.006  -7.986  0.00  0.00    +0.047 A 
ATOM     14  C   UNL     1      -4.359  -5.335  -6.741  0.00  0.00    +0.029 A 
ATOM     15  C   UNL     1      -3.075  -6.043  -6.645  0.00  0.00    +0.043 A 
ATOM     16  N   UNL     1      -2.435  -6.503  -5.590  0.00  0.00    -0.376 N 
ATOM     17  C   UNL     1       0.019  -7.341  -8.399  0.00  0.00    +0.048 C 
ATOM     18  C   UNL     1       1.238  -6.771  -7.652  0.00  0.00    +0.086 C 
ATOM     19  N   UNL     1       1.193  -7.163  -6.239  0.00  0.00    -0.307 NA
ATOM     20  H   UNL     1       2.064  -6.951  -5.776  0.00  0.00    +0.123 HD
ATOM     21  H   UNL     1      -2.699  -6.407  -4.662  0.00  0.00    +0.160 HD
BRANCH  12  22
ATOM     22  O   UNL     1      -4.635  -4.916 -10.347  0.00  0.00    -0.495 OA
ATOM     23  C   UNL     1      -5.893  -4.240 -10.289  0.00  0.00    +0.277 C 
ENDBRANCH  12  22
ENDBRANCH   3   7
BRANCH   6  24
ATOM     24  O   UNL     1      -0.016  -0.996  -6.232  0.00  0.00    -0.495 OA
ATOM     25  C   UNL     1      -0.255  -0.515  -7.556  0.00  0.00    +0.277 C 
ENDBRANCH   6  24
BRANCH   1  26
ATOM     26  C   UNL     1       0.455  -1.966  -3.621  0.00  0.00    +0.268 C 
BRANCH  26  27
ATOM     27  O   UNL     1       0.664  -2.750  -2.445  0.00  0.00    -0.487 OA
BRANCH  27  31
ATOM     28  C   UNL     1       1.136   1.502  -0.095  0.00  0.00    +0.045 C 
ATOM     29  C   UNL     1       1.121  -0.005  -0.101  0.00  0.00    -0.029 A 
ATOM     30  C   UNL     1       0.898  -0.689  -1.280  0.00  0.00    +0.050 A 
ATOM     31  C   UNL     1       0.884  -2.076  -1.285  0.00  0.00    +0.125 A 
ATOM     32  C   UNL     1       1.094  -2.774  -0.105  0.00  0.00    -0.002 A 
ATOM     33  C   UNL     1       1.316  -2.087   1.073  0.00  0.00    +0.027 A 
ATOM     34  C   UNL     1       1.335  -0.703   1.074  0.00  0.00    +0.044 A 
ATOM     35 CL   UNL     1       1.622   0.158   2.554  0.00  0.00    -0.083 Cl
BRANCH  32  36
ATOM     36  C   UNL     1       1.078  -4.281  -0.107  0.00  0.00    +0.016 C 
ATOM     37  C   UNL     1       2.432  -4.805   0.376  0.00  0.00    +0.012 C 
ATOM     38  C   UNL     1      -0.025  -4.781   0.827  0.00  0.00    +0.012 C 
ENDBRANCH  32  36
ENDBRANCH  27  31
ENDBRANCH  26  27
ENDBRANCH   1  26
TORSDOF 7
