REMARK  Name = ZINC64085869
REMARK  6 active torsions:
REMARK  status: ('A' for Active; 'I' for Inactive)
REMARK    1  A    between atoms: C_1  and  C_2
REMARK    2  A    between atoms: C_4  and  C_13
REMARK    3  A    between atoms: C_13  and  C_14
REMARK    4  A    between atoms: N_16  and  C_17
REMARK    5  A    between atoms: C_22  and  C_23
REMARK    6  A    between atoms: N_25  and  C_26
REMARK                            x       y       z     vdW  Elec       q    Type
REMARK                         _______ _______ _______ _____ _____    ______ ____
ROOT
ATOM      1  C   UNL     1       1.404  -0.850  -3.569  0.00  0.00    +0.221 C 
ATOM      2  O   UNL     1       2.310  -1.500  -3.092  0.00  0.00    -0.275 OA
ATOM      3  N   UNL     1       1.343  -0.654  -4.901  0.00  0.00    -0.285 N 
ATOM      4  H   UNL     1       0.658  -0.078  -5.275  0.00  0.00    +0.155 HD
ENDROOT
BRANCH   3   5
ATOM      5  C   UNL     1       2.263  -1.279  -5.739  0.00  0.00    +0.046 A 
ATOM      6  C   UNL     1       3.577  -1.452  -5.327  0.00  0.00    +0.024 A 
ATOM      7  C   UNL     1       4.487  -2.071  -6.160  0.00  0.00    +0.002 A 
ATOM      8  C   UNL     1       4.099  -2.524  -7.410  0.00  0.00    +0.001 A 
ATOM      9  C   UNL     1       2.798  -2.361  -7.836  0.00  0.00    +0.015 A 
ATOM     10  C   UNL     1       1.864  -1.742  -7.002  0.00  0.00    +0.058 A 
BRANCH  10  11
ATOM     11  C   UNL     1       0.469  -1.570  -7.449  0.00  0.00    +0.246 C 
ATOM     12  O   UNL     1      -0.318  -0.950  -6.760  0.00  0.00    -0.270 OA
ATOM     13  N   UNL     1       0.067  -2.100  -8.621  0.00  0.00    -0.314 N 
ATOM     14  C   UNL     1      -1.319  -1.929  -9.065  0.00  0.00    +0.128 C 
ATOM     15  H   UNL     1       0.695  -2.595  -9.171  0.00  0.00    +0.149 HD
ENDBRANCH  10  11
ENDBRANCH   3   5
BRANCH   1  16
ATOM     16  C   UNL     1       0.345  -0.263  -2.671  0.00  0.00    +0.129 C 
BRANCH  16  19
ATOM     17  C   UNL     1      -1.110  -1.969  -0.330  0.00  0.00    +0.035 C 
ATOM     18  C   UNL     1       0.403  -1.760  -0.423  0.00  0.00    +0.104 C 
ATOM     19  C   UNL     1       0.709  -0.518  -1.231  0.00  0.00    -0.030 C 
ATOM     20  C   UNL     1       1.375   0.315  -0.400  0.00  0.00    +0.001 A 
ATOM     21  C   UNL     1       1.938   1.658  -0.582  0.00  0.00    +0.025 A 
ATOM     22  C   UNL     1       2.565   2.253   0.460  0.00  0.00    +0.019 A 
ATOM     23  C   UNL     1       2.688   1.620   1.705  0.00  0.00    +0.017 A 
ATOM     24  C   UNL     1       2.196   0.387   1.948  0.00  0.00    +0.027 A 
ATOM     25  C   UNL     1       1.518  -0.331   0.924  0.00  0.00    +0.043 A 
ATOM     26  N   UNL     1       0.963  -1.520   0.912  0.00  0.00    -0.378 N 
ATOM     27 BR   UNL     1       3.292   3.984   0.230  0.00  0.00    -0.050 Br
ATOM     28  H   UNL     1       0.927  -2.137   1.660  0.00  0.00    +0.160 HD
ENDBRANCH  16  19
ENDBRANCH   1  16
TORSDOF 4
