REMARK  Name = ZINC51169653
REMARK  9 active torsions:
REMARK  status: ('A' for Active; 'I' for Inactive)
REMARK    1  A    between atoms: C_1  and  C_2
REMARK    2  A    between atoms: C_2  and  C_3
REMARK    3  A    between atoms: C_2  and  C_4
REMARK    4  A    between atoms: C_6  and  N_19
REMARK    5  A    between atoms: C_10  and  O_17
REMARK    6  A    between atoms: C_12  and  O_15
REMARK    7  A    between atoms: O_15  and  C_16
REMARK    8  A    between atoms: O_17  and  C_18
REMARK    9  A    between atoms: N_19  and  N_20
REMARK                            x       y       z     vdW  Elec       q    Type
REMARK                         _______ _______ _______ _____ _____    ______ ____
ROOT
ATOM      1  C   UNL     1      -1.418  -0.511  -0.010  0.00  0.00    +0.021 A 
ATOM      2  C   UNL     1      -2.390   0.188   0.694  0.00  0.00    +0.046 A 
ATOM      3  C   UNL     1      -3.687  -0.295   0.736  0.00  0.00    +0.053 A 
ATOM      4  C   UNL     1      -3.968  -1.500   0.048  0.00  0.00    +0.046 A 
ATOM      5  C   UNL     1      -2.921  -2.152  -0.646  0.00  0.00    +0.092 A 
ATOM      6  N   UNL     1      -1.691  -1.624  -0.649  0.00  0.00    -0.355 N 
ATOM      7  C   UNL     1      -3.195  -3.352  -1.334  0.00  0.00    +0.147 A 
ATOM      8  C   UNL     1      -4.457  -3.870  -1.323  0.00  0.00    +0.094 A 
ATOM      9  C   UNL     1      -5.491  -3.228  -0.639  0.00  0.00    +0.143 A 
ATOM     10  C   UNL     1      -5.257  -2.053   0.043  0.00  0.00    +0.094 A 
ATOM     11 CL   UNL     1      -6.549  -1.263   0.891  0.00  0.00    -0.079 Cl
ATOM     12  H   UNL     1      -0.983  -2.078  -1.131  0.00  0.00    +0.166 HD
ENDROOT
BRANCH   1  14
ATOM     13  C   UNL     1      -0.050   1.557  -0.065  0.00  0.00    +0.013 C 
ATOM     14  C   UNL     1      -0.011   0.028  -0.047  0.00  0.00    +0.029 C 
ATOM     15  C   UNL     1       0.750  -0.449   1.192  0.00  0.00    +0.013 C 
ENDBRANCH   1  14
BRANCH   9  16
ATOM     16  O   UNL     1      -6.739  -3.765  -0.646  0.00  0.00    -0.494 OA
ATOM     17  C   UNL     1      -6.917  -4.984  -1.371  0.00  0.00    +0.277 C 
ENDBRANCH   9  16
BRANCH   7  18
ATOM     18  O   UNL     1      -2.202  -3.992  -2.006  0.00  0.00    -0.493 OA
ATOM     19  C   UNL     1      -2.551  -5.203  -2.680  0.00  0.00    +0.277 C 
ENDBRANCH   7  18
BRANCH   3  20
ATOM     20  N   UNL     1      -4.681   0.380   1.431  0.00  0.00    -0.282 N 
ATOM     21  H   UNL     1      -5.601   0.080   1.375  0.00  0.00    +0.166 HD
BRANCH  20  22
ATOM     22  N   UNL     1      -4.362   1.467   2.195  0.00  0.00    -0.256 NA
ATOM     23  H   UNL     1      -5.183   1.851   2.638  0.00  0.00    +0.140 HD
ATOM     24  H   UNL     1      -3.657   1.234   2.878  0.00  0.00    +0.140 HD
ENDBRANCH  20  22
ENDBRANCH   3  20
TORSDOF 5
