REMARK  Name = ZINC36545346
REMARK  16 active torsions:
REMARK  status: ('A' for Active; 'I' for Inactive)
REMARK    1  A    between atoms: C_1  and  C_2
REMARK    2  A    between atoms: C_2  and  C_3
REMARK    3  A    between atoms: C_2  and  C_4
REMARK    4  A    between atoms: C_2  and  C_5
REMARK    5  A    between atoms: C_5  and  C_6
REMARK    6  A    between atoms: C_6  and  C_7
REMARK    7  A    between atoms: C_6  and  C_8
REMARK    8  A    between atoms: C_6  and  N_9
REMARK    9  A    between atoms: C_10  and  C_12
REMARK   10  A    between atoms: C_12  and  C_14
REMARK   11  A    between atoms: C_12  and  N_21
REMARK   12  A    between atoms: C_17  and  O_20
REMARK   13  A    between atoms: N_21  and  C_22
REMARK   14  A    between atoms: C_29  and  C_31
REMARK   15  A    between atoms: C_35  and  O_38
REMARK   16  A    between atoms: C_36  and  O_37
REMARK                            x       y       z     vdW  Elec       q    Type
REMARK                         _______ _______ _______ _____ _____    ______ ____
ROOT
ATOM      1  C   UNL     1       3.812   0.591  -4.600  0.00  0.00    +0.198 C 
ENDROOT
BRANCH   1   2
ATOM      2  C   UNL     1       2.877   1.686  -5.045  0.00  0.00    -0.018 A 
ATOM      3  C   UNL     1       1.689   1.365  -5.677  0.00  0.00    +0.009 A 
ATOM      4  C   UNL     1       0.831   2.367  -6.087  0.00  0.00    +0.046 A 
ATOM      5  C   UNL     1       1.160   3.696  -5.863  0.00  0.00    +0.117 A 
ATOM      6  C   UNL     1       2.352   4.015  -5.228  0.00  0.00    +0.046 A 
ATOM      7  C   UNL     1       3.205   3.009  -4.816  0.00  0.00    +0.009 A 
BRANCH   5   8
ATOM      8  O   UNL     1       0.318   4.683  -6.265  0.00  0.00    -0.507 OA
ATOM      9  H   UNL     1      -0.335   4.938  -5.599  0.00  0.00    +0.292 HD
ENDBRANCH   5   8
ENDBRANCH   1   2
BRANCH   1  11
ATOM     10  N   UNL     1       2.948   0.552  -2.283  0.00  0.00    -0.308 N 
ATOM     11  C   UNL     1       4.006   0.672  -3.108  0.00  0.00    +0.239 C 
ATOM     12  O   UNL     1       5.116   0.847  -2.650  0.00  0.00    -0.273 OA
ATOM     13  H   UNL     1       2.060   0.413  -2.649  0.00  0.00    +0.149 HD
BRANCH  10  14
ATOM     14  C   UNL     1       3.137   0.631  -0.832  0.00  0.00    +0.030 C 
ATOM     15  C   UNL     1       3.904   1.909  -0.487  0.00  0.00    +0.031 C 
ATOM     16  C   UNL     1       3.932  -0.586  -0.354  0.00  0.00    +0.031 C 
BRANCH  14  17
ATOM     17  C   UNL     1       1.772   0.653  -0.140  0.00  0.00    +0.031 C 
BRANCH  17  19
ATOM     18  C   UNL     1       0.192   0.808  -2.069  0.00  0.00    +0.010 C 
ATOM     19  C   UNL     1       0.826   1.578  -0.908  0.00  0.00    -0.036 C 
ATOM     20  C   UNL     1       1.611   2.771  -1.456  0.00  0.00    +0.010 C 
ATOM     21  C   UNL     1      -0.273   2.078   0.032  0.00  0.00    +0.010 C 
ENDBRANCH  17  19
ENDBRANCH  14  17
ENDBRANCH  10  14
ENDBRANCH   1  11
BRANCH   1  22
ATOM     22  N   UNL     1       5.104   0.750  -5.271  0.00  0.00    -0.250 N 
ATOM     23  C   UNL     1       5.660  -0.292  -5.920  0.00  0.00    +0.255 C 
ATOM     24  O   UNL     1       5.046  -1.336  -6.030  0.00  0.00    -0.269 OA
BRANCH  22  25
ATOM     25  C   UNL     1       5.762   1.984  -5.238  0.00  0.00    +0.056 A 
ATOM     26  C   UNL     1       6.605   2.296  -4.178  0.00  0.00    +0.025 A 
ATOM     27  C   UNL     1       7.253   3.515  -4.149  0.00  0.00    +0.002 A 
ATOM     28  C   UNL     1       7.064   4.426  -5.172  0.00  0.00    +0.002 A 
ATOM     29  C   UNL     1       6.226   4.120  -6.228  0.00  0.00    +0.022 A 
ATOM     30  C   UNL     1       5.579   2.900  -6.267  0.00  0.00    +0.062 A 
ATOM     31 CL   UNL     1       4.532   2.513  -7.597  0.00  0.00    -0.082 Cl
ENDBRANCH  22  25
BRANCH  23  32
ATOM     32  C   UNL     1       7.012  -0.167  -6.496  0.00  0.00    +0.082 A 
ATOM     33  C   UNL     1       8.080   0.253  -5.697  0.00  0.00    +0.017 A 
ATOM     34  C   UNL     1       9.341   0.369  -6.239  0.00  0.00    +0.005 A 
ATOM     35  C   UNL     1       9.559   0.072  -7.574  0.00  0.00    +0.049 A 
ATOM     36  C   UNL     1       8.512  -0.345  -8.378  0.00  0.00    +0.159 A 
ATOM     37  C   UNL     1       7.234  -0.473  -7.844  0.00  0.00    +0.171 A 
BRANCH  37  38
ATOM     38  O   UNL     1       6.205  -0.887  -8.627  0.00  0.00    -0.503 OA
ATOM     39  H   UNL     1       5.736  -0.168  -9.073  0.00  0.00    +0.292 HD
ENDBRANCH  37  38
BRANCH  36  40
ATOM     40  O   UNL     1       8.734  -0.634  -9.688  0.00  0.00    -0.503 OA
ATOM     41  H   UNL     1       8.968  -1.558  -9.853  0.00  0.00    +0.292 HD
ENDBRANCH  36  40
ENDBRANCH  23  32
ENDBRANCH   1  22
TORSDOF 11
