REMARK  Name = ZINC59501638
REMARK  6 active torsions:
REMARK  status: ('A' for Active; 'I' for Inactive)
REMARK    1  A    between atoms: C_4  and  C_7
REMARK    2  A    between atoms: C_7  and  N_8
REMARK    3  A    between atoms: N_11  and  C_14
REMARK    4  A    between atoms: C_17  and  C_23
REMARK    5  A    between atoms: C_19  and  N_20
REMARK    6  A    between atoms: N_24  and  N_25
REMARK                            x       y       z     vdW  Elec       q    Type
REMARK                         _______ _______ _______ _____ _____    ______ ____
ROOT
ATOM      1  C   UNL     1       6.913  -0.795   4.396  0.00  0.00    +0.060 A 
ATOM      2  C   UNL     1       8.081  -0.290   3.834  0.00  0.00    +0.026 A 
ATOM      3  C   UNL     1       9.200  -0.106   4.615  0.00  0.00    +0.011 A 
ATOM      4  C   UNL     1       9.162  -0.428   5.975  0.00  0.00    -0.003 A 
ATOM      5  C   UNL     1       7.987  -0.935   6.536  0.00  0.00    +0.044 A 
ATOM      6  C   UNL     1       6.870  -1.111   5.750  0.00  0.00    +0.148 A 
ENDROOT
BRANCH   1  10
ATOM      7  N   UNL     1       4.143  -0.917   1.349  0.00  0.00    -0.295 NA
ATOM      8  C   UNL     1       4.464   0.342   2.034  0.00  0.00    +0.103 C 
ATOM      9  C   UNL     1       4.743   0.058   3.514  0.00  0.00    +0.120 C 
ATOM     10  N   UNL     1       5.781  -0.980   3.602  0.00  0.00    -0.326 N 
ATOM     11  C   UNL     1       5.594  -2.219   2.831  0.00  0.00    +0.120 C 
ATOM     12  C   UNL     1       5.281  -1.845   1.378  0.00  0.00    +0.103 C 
BRANCH   7  13
ATOM     13  C   UNL     1       3.701  -0.669  -0.030  0.00  0.00    +0.119 C 
BRANCH  13  17
ATOM     14  C   UNL     1      -0.004   1.457   0.020  0.00  0.00    +0.000 A 
ATOM     15  C   UNL     1       1.192   2.151   0.009  0.00  0.00    +0.000 A 
ATOM     16  C   UNL     1       2.390   1.463  -0.007  0.00  0.00    +0.005 A 
ATOM     17  C   UNL     1       2.394   0.081  -0.011  0.00  0.00    -0.033 A 
ATOM     18  C   UNL     1       1.199  -0.613   0.001  0.00  0.00    +0.005 A 
ATOM     19  C   UNL     1      -0.000   0.075   0.015  0.00  0.00    +0.000 A 
ENDBRANCH  13  17
ENDBRANCH   7  13
ENDBRANCH   1  10
BRANCH   6  20
ATOM     20  N   UNL     1       5.623  -1.642   6.346  0.00  0.00    +0.058 N 
ATOM     21  O   UNL     1       5.552  -1.823   7.539  0.00  0.00    -0.126 OA
ATOM     22  O   UNL     1       4.676  -1.896   5.638  0.00  0.00    -0.126 OA
ENDBRANCH   6  20
BRANCH   4  23
ATOM     23  C   UNL     1      10.358  -0.233   6.814  0.00  0.00    +0.140 C 
ATOM     24  N   UNL     1      11.448   0.238   6.291  0.00  0.00    -0.179 NA
BRANCH  24  25
ATOM     25  N   UNL     1      12.585   0.423   7.088  0.00  0.00    -0.249 N 
ATOM     26  C   UNL     1      13.736   0.920   6.536  0.00  0.00    +0.187 C 
ATOM     27  N   UNL     1      14.817   1.096   7.295  0.00  0.00    -0.370 N 
ATOM     28  N   UNL     1      13.774   1.227   5.240  0.00  0.00    -0.370 N 
ATOM     29  H   UNL     1      12.557   0.199   8.032  0.00  0.00    +0.192 HD
ATOM     30  H   UNL     1      14.789   0.872   8.238  0.00  0.00    +0.159 HD
ATOM     31  H   UNL     1      12.987   1.099   4.688  0.00  0.00    +0.159 HD
ATOM     32  H   UNL     1      14.589   1.579   4.849  0.00  0.00    +0.159 HD
ATOM     33  H   UNL     1      15.632   1.448   6.904  0.00  0.00    +0.159 HD
ENDBRANCH  24  25
ENDBRANCH   4  23
TORSDOF 6
