REMARK  Name = ZINC63494709
REMARK  8 active torsions:
REMARK  status: ('A' for Active; 'I' for Inactive)
REMARK    1  A    between atoms: C_4  and  C_7
REMARK    2  A    between atoms: C_7  and  N_8
REMARK    3  A    between atoms: C_13  and  C_24
REMARK    4  A    between atoms: C_24  and  C_25
REMARK    5  A    between atoms: C_25  and  C_26
REMARK    6  A    between atoms: N_28  and  C_29
REMARK    7  A    between atoms: C_29  and  C_30
REMARK    8  A    between atoms: C_30  and  C_31
REMARK                            x       y       z     vdW  Elec       q    Type
REMARK                         _______ _______ _______ _____ _____    ______ ____
ROOT
ATOM      1  N   UNL     1       4.152  -0.952   1.338  0.00  0.00    -0.254 N 
ATOM      2  C   UNL     1       4.985   0.038   2.019  0.00  0.00    +0.311 C 
ATOM      3  N   UNL     1       5.906   0.714   1.112  0.00  0.00    -0.147 NA
ATOM      4  N   UNL     1       7.075   0.626   1.499  0.00  0.00    -0.166 NA
ATOM      5  C   UNL     1       7.180  -0.157   2.738  0.00  0.00    +0.217 C 
ATOM      6  N   UNL     1       5.827  -0.675   3.005  0.00  0.00    -0.267 N 
ATOM      7  C   UNL     1       5.328  -1.640   3.850  0.00  0.00    +0.047 A 
ATOM      8  C   UNL     1       5.815  -1.906   5.112  0.00  0.00    +0.024 A 
ATOM      9  C   UNL     1       5.220  -2.890   5.881  0.00  0.00    +0.002 A 
ATOM     10  C   UNL     1       4.142  -3.610   5.390  0.00  0.00    +0.001 A 
ATOM     11  C   UNL     1       3.647  -3.362   4.126  0.00  0.00    +0.015 A 
ATOM     12  C   UNL     1       4.237  -2.380   3.338  0.00  0.00    +0.058 A 
ATOM     13  C   UNL     1       3.780  -2.090   1.967  0.00  0.00    +0.251 C 
ATOM     14  O   UNL     1       3.061  -2.885   1.393  0.00  0.00    -0.270 OA
ENDROOT
BRANCH   1  15
ATOM     15  C   UNL     1       3.711  -0.707  -0.038  0.00  0.00    +0.147 C 
BRANCH  15  19
ATOM     16  C   UNL     1      -0.017   1.378   0.010  0.00  0.00    +0.000 A 
ATOM     17  C   UNL     1       1.171   2.086   0.002  0.00  0.00    +0.000 A 
ATOM     18  C   UNL     1       2.377   1.411  -0.013  0.00  0.00    +0.005 A 
ATOM     19  C   UNL     1       2.396   0.029  -0.020  0.00  0.00    -0.030 A 
ATOM     20  C   UNL     1       1.208  -0.679  -0.012  0.00  0.00    +0.005 A 
ATOM     21  C   UNL     1       0.002  -0.004   0.002  0.00  0.00    +0.000 A 
ENDBRANCH  15  19
ENDBRANCH   1  15
BRANCH   5  22
ATOM     22  C   UNL     1       7.625   0.742   3.894  0.00  0.00    +0.058 C 
BRANCH  22  23
ATOM     23  C   UNL     1       9.006   1.324   3.586  0.00  0.00    +0.099 C 
BRANCH  23  24
ATOM     24  C   UNL     1       9.443   2.208   4.724  0.00  0.00    +0.213 C 
ATOM     25  O   UNL     1       8.722   2.359   5.688  0.00  0.00    -0.276 OA
ATOM     26  N   UNL     1      10.637   2.833   4.672  0.00  0.00    -0.315 N 
ATOM     27  H   UNL     1      11.214   2.713   3.902  0.00  0.00    +0.149 HD
BRANCH  26  28
ATOM     28  C   UNL     1      11.062   3.693   5.779  0.00  0.00    +0.108 C 
BRANCH  28  29
ATOM     29  C   UNL     1      12.443   4.275   5.471  0.00  0.00    +0.052 C 
BRANCH  29  30
ATOM     30  C   UNL     1      12.881   5.160   6.610  0.00  0.00    -0.040 C 
ATOM     31  C   UNL     1      13.665   4.812   7.655  0.00  0.00    -0.001 A 
ATOM     32  C   UNL     1      14.320   3.553   8.031  0.00  0.00    +0.010 A 
ATOM     33  C   UNL     1      15.059   3.510   9.163  0.00  0.00    +0.001 A 
ATOM     34  C   UNL     1      15.214   4.635   9.985  0.00  0.00    +0.002 A 
ATOM     35  C   UNL     1      14.644   5.826   9.706  0.00  0.00    +0.026 A 
ATOM     36  C   UNL     1      13.845   5.985   8.539  0.00  0.00    +0.043 A 
ATOM     37  N   UNL     1      13.198   7.019   8.059  0.00  0.00    -0.380 N 
ATOM     38  C   UNL     1      12.537   6.619   6.811  0.00  0.00    +0.144 C 
ATOM     39  H   UNL     1      13.164   7.902   8.460  0.00  0.00    +0.160 HD
ENDBRANCH  29  30
ENDBRANCH  28  29
ENDBRANCH  26  28
ENDBRANCH  23  24
ENDBRANCH  22  23
ENDBRANCH   5  22
TORSDOF 8
