REMARK  Name = ZINC06601000
REMARK  15 active torsions:
REMARK  status: ('A' for Active; 'I' for Inactive)
REMARK    1  A    between atoms: C_1  and  C_2
REMARK    2  A    between atoms: C_2  and  O_3
REMARK    3  A    between atoms: O_3  and  C_4
REMARK    4  A    between atoms: C_7  and  N_10
REMARK    5  A    between atoms: N_10  and  C_11
REMARK    6  A    between atoms: C_11  and  C_13
REMARK    7  A    between atoms: C_11  and  C_18
REMARK    8  A    between atoms: N_20  and  C_21
REMARK    9  A    between atoms: C_21  and  C_22
REMARK   10  A    between atoms: C_22  and  C_23
REMARK   11  A    between atoms: C_23  and  C_24
REMARK   12  A    between atoms: C_23  and  C_25
REMARK   13  A    between atoms: C_26  and  C_28
REMARK   14  A    between atoms: C_29  and  N_36
REMARK   15  A    between atoms: C_30  and  C_33
REMARK                            x       y       z     vdW  Elec       q    Type
REMARK                         _______ _______ _______ _____ _____    ______ ____
ROOT
ATOM      1  N   UNL     1       3.711   2.502   0.729  0.00  0.00    -0.248 N 
ATOM      2  C   UNL     1       3.041   3.652   0.941  0.00  0.00    +0.262 C 
ATOM      3  O   UNL     1       3.152   4.234   2.004  0.00  0.00    -0.269 OA
ENDROOT
BRANCH   1   7
ATOM      4  C   UNL     1       6.080   0.882   3.753  0.00  0.00    +0.121 A 
ATOM      5  C   UNL     1       5.666   2.204   3.829  0.00  0.00    +0.047 A 
ATOM      6  C   UNL     1       4.881   2.741   2.828  0.00  0.00    +0.027 A 
ATOM      7  C   UNL     1       4.507   1.958   1.744  0.00  0.00    +0.038 A 
ATOM      8  C   UNL     1       4.917   0.633   1.671  0.00  0.00    +0.027 A 
ATOM      9  C   UNL     1       5.706   0.099   2.671  0.00  0.00    +0.047 A 
BRANCH   4  10
ATOM     10  O   UNL     1       6.853   0.354   4.739  0.00  0.00    -0.492 OA
BRANCH  10  12
ATOM     11  C   UNL     1       8.101  -1.427   5.793  0.00  0.00    +0.048 C 
ATOM     12  C   UNL     1       7.243  -1.013   4.596  0.00  0.00    +0.225 C 
ENDBRANCH  10  12
ENDBRANCH   4  10
ENDBRANCH   1   7
BRANCH   2  13
ATOM     13  C   UNL     1       2.179   4.201  -0.108  0.00  0.00    +0.116 A 
ATOM     14  C   UNL     1       1.879   5.533  -0.400  0.00  0.00    +0.076 A 
ATOM     15  C   UNL     1       1.013   5.660  -1.486  0.00  0.00    +0.155 A 
ATOM     16  N   UNL     1       0.578   4.577  -2.091  0.00  0.00    -0.203 NA
ATOM     17  S   UNL     1       1.227   3.348  -1.348  0.00  0.00    +0.019 S 
BRANCH  15  18
ATOM     18  C   UNL     1       0.585   6.994  -1.945  0.00  0.00    +0.262 C 
ATOM     19  O   UNL     1       0.991   7.991  -1.380  0.00  0.00    -0.269 OA
ATOM     20  N   UNL     1      -0.256   7.108  -2.992  0.00  0.00    -0.324 N 
ATOM     21  H   UNL     1      -0.580   6.312  -3.443  0.00  0.00    +0.145 HD
ATOM     22  H   UNL     1      -0.537   7.985  -3.295  0.00  0.00    +0.145 HD
ENDBRANCH  15  18
BRANCH  14  23
ATOM     23  N   UNL     1       2.389   6.612   0.310  0.00  0.00    -0.355 N 
ATOM     24  H   UNL     1       2.990   6.461   1.056  0.00  0.00    +0.142 HD
ATOM     25  H   UNL     1       2.144   7.516   0.061  0.00  0.00    +0.142 HD
ENDBRANCH  14  23
ENDBRANCH   2  13
BRANCH   1  26
ATOM     26  C   UNL     1       3.608   1.821  -0.565  0.00  0.00    +0.233 C 
BRANCH  26  27
ATOM     27  C   UNL     1       4.989   1.569  -1.112  0.00  0.00    +0.135 A 
ATOM     28  C   UNL     1       5.323   1.523  -2.414  0.00  0.00    +0.047 A 
ATOM     29  C   UNL     1       6.710   1.256  -2.472  0.00  0.00    +0.041 A 
ATOM     30  C   UNL     1       7.143   1.165  -1.201  0.00  0.00    +0.195 A 
ATOM     31  O   UNL     1       6.095   1.352  -0.382  0.00  0.00    -0.465 OA
ENDBRANCH  26  27
BRANCH  26  32
ATOM     32  C   UNL     1       2.891   0.508  -0.385  0.00  0.00    +0.242 C 
ATOM     33  O   UNL     1       2.505   0.173   0.715  0.00  0.00    -0.273 OA
ATOM     34  N   UNL     1       2.679  -0.295  -1.447  0.00  0.00    -0.313 N 
ATOM     35  H   UNL     1       2.988  -0.027  -2.326  0.00  0.00    +0.149 HD
BRANCH  34  36
ATOM     36  C   UNL     1       1.983  -1.572  -1.272  0.00  0.00    +0.104 C 
BRANCH  36  37
ATOM     37  C   UNL     1       1.874  -2.282  -2.623  0.00  0.00    +0.022 C 
BRANCH  37  38
ATOM     38  C   UNL     1       1.147  -3.616  -2.441  0.00  0.00    -0.016 C 
ATOM     39  C   UNL     1      -0.296  -3.354  -2.004  0.00  0.00    +0.007 C 
ATOM     40  C   UNL     1       1.148  -4.383  -3.764  0.00  0.00    +0.007 C 
ENDBRANCH  37  38
ENDBRANCH  36  37
ENDBRANCH  34  36
ENDBRANCH  26  32
ENDBRANCH   1  26
TORSDOF 12
