REMARK  Name = ZINC05218089
REMARK  10 active torsions:
REMARK  status: ('A' for Active; 'I' for Inactive)
REMARK    1  A    between atoms: C_1  and  C_2
REMARK    2  A    between atoms: C_2  and  C_3
REMARK    3  A    between atoms: C_3  and  O_33
REMARK    4  A    between atoms: C_5  and  O_32
REMARK    5  A    between atoms: C_9  and  O_25
REMARK    6  A    between atoms: C_12  and  O_13
REMARK    7  A    between atoms: C_21  and  O_22
REMARK    8  A    between atoms: C_26  and  C_28
REMARK    9  A    between atoms: C_28  and  O_30
REMARK   10  A    between atoms: O_30  and  C_31
REMARK                            x       y       z     vdW  Elec       q    Type
REMARK                         _______ _______ _______ _____ _____    ______ ____
ROOT
ATOM      1  C   UNL     1       2.688   3.050   8.345  0.00  0.00    +0.086 C 
ATOM      2  C   UNL     1       1.189   3.283   8.121  0.00  0.00    +0.072 C 
ATOM      3  C   UNL     1       0.782   2.578   6.830  0.00  0.00    +0.151 C 
ATOM      4  C   UNL     1       1.699   2.969   5.699  0.00  0.00    +0.031 A 
ATOM      5  C   UNL     1       2.929   3.538   5.910  0.00  0.00    +0.020 A 
ATOM      6  C   UNL     1       3.746   3.870   4.820  0.00  0.00    +0.133 A 
ATOM      7  C   UNL     1       3.317   3.631   3.517  0.00  0.00    +0.078 A 
ATOM      8  C   UNL     1       2.050   3.050   3.301  0.00  0.00    +0.078 A 
ATOM      9  C   UNL     1       1.252   2.723   4.394  0.00  0.00    +0.134 A 
ATOM     10  C   UNL     1       1.587   2.797   1.923  0.00  0.00    +0.202 C 
ATOM     11  O   UNL     1       0.626   2.081   1.719  0.00  0.00    -0.286 OA
ATOM     12  C   UNL     1       2.302   3.429   0.797  0.00  0.00    +0.075 A 
ATOM     13  C   UNL     1       3.570   4.004   1.010  0.00  0.00    +0.037 A 
ATOM     14  C   UNL     1       4.246   4.595  -0.050  0.00  0.00    +0.012 A 
ATOM     15  C   UNL     1       3.674   4.612  -1.312  0.00  0.00    +0.004 A 
ATOM     16  C   UNL     1       2.435   4.046  -1.529  0.00  0.00    +0.046 A 
ATOM     17  C   UNL     1       1.740   3.448  -0.481  0.00  0.00    +0.128 A 
ATOM     18  C   UNL     1       4.167   3.978   2.364  0.00  0.00    +0.198 C 
ATOM     19  O   UNL     1       5.343   4.241   2.523  0.00  0.00    -0.286 OA
ATOM     20  C   UNL     1       3.460   3.837   7.288  0.00  0.00    +0.163 C 
ENDROOT
BRANCH   1  22
ATOM     21  C   UNL     1       2.307   2.745  10.796  0.00  0.00    +0.007 C 
ATOM     22  C   UNL     1       3.083   3.537   9.741  0.00  0.00    +0.032 C 
ENDBRANCH   1  22
BRANCH   9  23
ATOM     23  O   UNL     1       0.033   2.163   4.194  0.00  0.00    -0.506 OA
ATOM     24  H   UNL     1       0.044   1.196   4.162  0.00  0.00    +0.292 HD
ENDBRANCH   9  23
BRANCH  17  25
ATOM     25  O   UNL     1       0.522   2.893  -0.699  0.00  0.00    -0.506 OA
ATOM     26  H   UNL     1       0.555   1.959  -0.948  0.00  0.00    +0.292 HD
ENDBRANCH  17  25
BRANCH   6  27
ATOM     27  O   UNL     1       4.963   4.427   5.036  0.00  0.00    -0.506 OA
ATOM     28  H   UNL     1       4.953   5.394   5.071  0.00  0.00    +0.292 HD
ENDBRANCH   6  27
BRANCH  20  29
ATOM     29  C   UNL     1       4.917   3.457   7.353  0.00  0.00    +0.317 C 
ATOM     30  O   UNL     1       5.274   2.366   6.978  0.00  0.00    -0.250 OA
BRANCH  29  31
ATOM     31  O   UNL     1       5.818   4.332   7.826  0.00  0.00    -0.467 OA
ATOM     32  C   UNL     1       7.204   3.899   7.859  0.00  0.00    +0.280 C 
ENDBRANCH  29  31
ENDBRANCH  20  29
BRANCH   3  33
ATOM     33  O   UNL     1       0.850   1.163   7.024  0.00  0.00    -0.387 OA
ATOM     34  H   UNL     1       0.588   0.647   6.249  0.00  0.00    +0.210 HD
ENDBRANCH   3  33
BRANCH   1  35
ATOM     35  O   UNL     1       2.984   1.657   8.220  0.00  0.00    -0.387 OA
ATOM     36  H   UNL     1       2.526   1.099   8.862  0.00  0.00    +0.210 HD
ENDBRANCH   1  35
TORSDOF 8
