REMARK  Name = ZINC35274501
REMARK  9 active torsions:
REMARK  status: ('A' for Active; 'I' for Inactive)
REMARK    1  A    between atoms: C_2  and  C_27
REMARK    2  A    between atoms: C_4  and  O_10
REMARK    3  A    between atoms: C_6  and  N_7
REMARK    4  A    between atoms: O_10  and  C_11
REMARK    5  A    between atoms: C_13  and  O_26
REMARK    6  A    between atoms: C_15  and  O_25
REMARK    7  A    between atoms: C_17  and  O_24
REMARK    8  A    between atoms: C_19  and  C_22
REMARK    9  A    between atoms: C_22  and  O_23
REMARK                            x       y       z     vdW  Elec       q    Type
REMARK                         _______ _______ _______ _____ _____    ______ ____
ROOT
ATOM      1  O   UNL     1       3.585  -0.655  -0.036  0.00  0.00    -0.461 OA
ENDROOT
BRANCH   1   5
ATOM      2  C   UNL     1      -0.017   1.375   0.010  0.00  0.00    +0.046 A 
ATOM      3  C   UNL     1       1.183   2.089   0.002  0.00  0.00    +0.042 A 
ATOM      4  C   UNL     1       2.397   1.403  -0.013  0.00  0.00    +0.059 A 
ATOM      5  C   UNL     1       2.405   0.018  -0.021  0.00  0.00    +0.127 A 
ATOM      6  C   UNL     1       1.206  -0.683  -0.014  0.00  0.00    +0.078 A 
ATOM      7  C   UNL     1       0.002  -0.004   0.002  0.00  0.00    +0.130 A 
BRANCH   3   8
ATOM      8  C   UNL     1       1.167   3.568   0.010  0.00  0.00    +0.242 C 
ATOM      9  O   UNL     1       2.213   4.187   0.003  0.00  0.00    -0.270 OA
ATOM     10  N   UNL     1      -0.007   4.229   0.024  0.00  0.00    -0.325 N 
ATOM     11  H   UNL     1      -0.842   3.735   0.029  0.00  0.00    +0.145 HD
ATOM     12  H   UNL     1      -0.018   5.199   0.029  0.00  0.00    +0.145 HD
ENDBRANCH   3   8
BRANCH   7  13
ATOM     13  N   UNL     1      -1.271  -0.759   0.010  0.00  0.00    +0.057 N 
ATOM     14  O   UNL     1      -2.325  -0.167   0.023  0.00  0.00    -0.126 OA
ATOM     15  O   UNL     1      -1.257  -1.968   0.004  0.00  0.00    -0.126 OA
ENDBRANCH   7  13
ENDBRANCH   1   5
BRANCH   1  16
ATOM     16  C   UNL     1       3.518  -2.083  -0.043  0.00  0.00    +0.339 C 
ATOM     17  C   UNL     1       4.917  -2.661   0.191  0.00  0.00    +0.214 C 
ATOM     18  C   UNL     1       4.847  -4.189   0.122  0.00  0.00    +0.180 C 
ATOM     19  C   UNL     1       4.266  -4.602  -1.234  0.00  0.00    +0.177 C 
ATOM     20  C   UNL     1       2.893  -3.950  -1.412  0.00  0.00    +0.179 C 
ATOM     21  O   UNL     1       3.024  -2.530  -1.307  0.00  0.00    -0.331 OA
BRANCH  19  22
ATOM     22  O   UNL     1       5.141  -4.172  -2.279  0.00  0.00    -0.386 OA
ATOM     23  H   UNL     1       6.031  -4.544  -2.225  0.00  0.00    +0.210 HD
ENDBRANCH  19  22
BRANCH  18  24
ATOM     24  O   UNL     1       6.160  -4.735   0.268  0.00  0.00    -0.386 OA
ATOM     25  H   UNL     1       6.590  -4.507   1.104  0.00  0.00    +0.210 HD
ENDBRANCH  18  24
BRANCH  17  26
ATOM     26  O   UNL     1       5.808  -2.176  -0.816  0.00  0.00    -0.383 OA
ATOM     27  H   UNL     1       5.896  -1.213  -0.832  0.00  0.00    +0.210 HD
ENDBRANCH  17  26
BRANCH  20  28
ATOM     28  C   UNL     1       2.333  -4.309  -2.790  0.00  0.00    +0.190 C 
BRANCH  28  29
ATOM     29  O   UNL     1       1.004  -3.798  -2.912  0.00  0.00    -0.392 OA
ATOM     30  H   UNL     1       0.585  -3.989  -3.762  0.00  0.00    +0.210 HD
ENDBRANCH  28  29
ENDBRANCH  20  28
ENDBRANCH   1  16
TORSDOF 9
