REMARK  Name = ZINC63176311
REMARK  5 active torsions:
REMARK  status: ('A' for Active; 'I' for Inactive)
REMARK    1  A    between atoms: C_3  and  S_12
REMARK    2  A    between atoms: C_4  and  C_8
REMARK    3  A    between atoms: S_12  and  N_15
REMARK    4  A    between atoms: N_15  and  C_16
REMARK    5  A    between atoms: C_21  and  N_23
REMARK                            x       y       z     vdW  Elec       q    Type
REMARK                         _______ _______ _______ _____ _____    ______ ____
ROOT
ATOM      1  S   UNL     1       3.944   2.201  -0.200  0.00  0.00    +0.059 S 
ATOM      2  O   UNL     1       4.484   1.694  -1.413  0.00  0.00    -0.153 OA
ATOM      3  O   UNL     1       3.614   3.572  -0.027  0.00  0.00    -0.153 OA
ENDROOT
BRANCH   1   6
ATOM      4  C   UNL     1       1.337  -0.479   1.271  0.00  0.00    +0.022 A 
ATOM      5  C   UNL     1       2.491   0.239   1.022  0.00  0.00    +0.030 A 
ATOM      6  C   UNL     1       2.473   1.285   0.117  0.00  0.00    +0.117 A 
ATOM      7  C   UNL     1       1.300   1.613  -0.538  0.00  0.00    +0.082 A 
ATOM      8  C   UNL     1       0.146   0.895  -0.289  0.00  0.00    +0.034 A 
ATOM      9  C   UNL     1       0.163  -0.152   0.615  0.00  0.00    +0.042 A 
ATOM     10 CL   UNL     1      -1.286  -1.055   0.928  0.00  0.00    -0.084 Cl
BRANCH   7  11
ATOM     11  C   UNL     1       1.281   2.753  -1.523  0.00  0.00    +0.419 C 
ATOM     12  F   UNL     1       0.033   2.802  -2.154  0.00  0.00    -0.166 F 
ATOM     13  F   UNL     1       1.510   3.956  -0.848  0.00  0.00    -0.166 F 
ATOM     14  F   UNL     1       2.281   2.558  -2.482  0.00  0.00    -0.166 F 
ENDBRANCH   7  11
ENDBRANCH   1   6
BRANCH   1  15
ATOM     15  N   UNL     1       5.025   1.820   0.995  0.00  0.00    -0.188 NA
ATOM     16  H   UNL     1       5.299   2.495   1.635  0.00  0.00    +0.148 HD
BRANCH  15  17
ATOM     17  C   UNL     1       5.568   0.462   1.086  0.00  0.00    +0.062 C 
ATOM     18  C   UNL     1       6.962   0.407   0.435  0.00  0.00    +0.019 C 
ATOM     19  C   UNL     1       7.948  -0.020   1.541  0.00  0.00    -0.000 C 
ATOM     20  C   UNL     1       7.244   0.390   2.858  0.00  0.00    -0.015 C 
ATOM     21  C   UNL     1       5.756   0.066   2.565  0.00  0.00    -0.056 C 
BRANCH  21  22
ATOM     22  N   UNL     1       4.876   0.865   3.427  0.00  0.00    +0.381 N 
ATOM     23  H   UNL     1       3.914   0.707   3.165  0.00  0.00    -0.090 HD
ATOM     24  H   UNL     1       5.011   0.594   4.390  0.00  0.00    -0.090 HD
ATOM     25  H   UNL     1       5.097   1.844   3.320  0.00  0.00    -0.090 HD
ENDBRANCH  21  22
ENDBRANCH  15  17
ENDBRANCH   1  15
TORSDOF 5
