REMARK  Name = ZINC52905527
REMARK  7 active torsions:
REMARK  status: ('A' for Active; 'I' for Inactive)
REMARK    1  A    between atoms: C_3  and  N_12
REMARK    2  A    between atoms: C_4  and  C_8
REMARK    3  A    between atoms: N_9  and  O_10
REMARK    4  A    between atoms: N_12  and  C_13
REMARK    5  A    between atoms: N_12  and  C_16
REMARK    6  A    between atoms: C_13  and  C_14
REMARK    7  A    between atoms: C_14  and  O_15
REMARK                            x       y       z     vdW  Elec       q    Type
REMARK                         _______ _______ _______ _____ _____    ______ ____
ROOT
ATOM      1  C   UNL     1      -0.386   2.035   0.142  0.00  0.00    +0.003 A 
ATOM      2  C   UNL     1       0.876   2.594   0.092  0.00  0.00    +0.024 A 
ATOM      3  C   UNL     1       1.999   1.779   0.120  0.00  0.00    +0.042 A 
ATOM      4  C   UNL     1       1.846   0.387   0.199  0.00  0.00    +0.057 A 
ATOM      5  C   UNL     1       0.565  -0.164   0.249  0.00  0.00    +0.053 A 
ATOM      6  C   UNL     1      -0.541   0.662   0.220  0.00  0.00    +0.021 A 
ATOM      7 CL   UNL     1       0.362  -1.885   0.347  0.00  0.00    -0.083 Cl
ENDROOT
BRANCH   4   8
ATOM      8  C   UNL     1       3.035  -0.491   0.229  0.00  0.00    +0.166 C 
ATOM      9  N   UNL     1       3.541  -0.862   1.369  0.00  0.00    -0.071 NA
ATOM     10  N   UNL     1       3.609  -0.918  -0.956  0.00  0.00    -0.340 N 
ATOM     11  H   UNL     1       3.232  -0.642  -1.806  0.00  0.00    +0.144 HD
ATOM     12  H   UNL     1       4.389  -1.495  -0.937  0.00  0.00    +0.144 HD
BRANCH   9  13
ATOM     13  O   UNL     1       2.888  -0.521   2.579  0.00  0.00    -0.408 OA
ATOM     14  H   UNL     1       3.339  -0.840   3.372  0.00  0.00    +0.328 HD
ENDBRANCH   9  13
ENDBRANCH   4   8
BRANCH   3  15
ATOM     15  N   UNL     1       3.272   2.340   0.068  0.00  0.00    -0.324 N 
BRANCH  15  16
ATOM     16  C   UNL     1       3.867   2.691  -1.224  0.00  0.00    +0.074 C 
ATOM     17  C   UNL     1       5.275   2.073  -1.343  0.00  0.00    +0.022 C 
ATOM     18  C   UNL     1       6.099   3.148  -2.096  0.00  0.00    +0.002 C 
ATOM     19  C   UNL     1       5.556   4.472  -1.502  0.00  0.00    +0.002 C 
ATOM     20  C   UNL     1       4.045   4.216  -1.325  0.00  0.00    +0.022 C 
ENDBRANCH  15  16
BRANCH  15  21
ATOM     21  C   UNL     1       4.018   2.580   1.307  0.00  0.00    +0.133 C 
BRANCH  21  22
ATOM     22  C   UNL     1       3.604   3.929   1.898  0.00  0.00    +0.174 C 
BRANCH  22  23
ATOM     23  O   UNL     1       2.231   3.876   2.291  0.00  0.00    -0.393 OA
ATOM     24  H   UNL     1       1.900   4.699   2.675  0.00  0.00    +0.209 HD
ENDBRANCH  22  23
ENDBRANCH  21  22
ENDBRANCH  15  21
ENDBRANCH   3  15
TORSDOF 7
