REMARK  Name = ZINC25680313
REMARK  6 active torsions:
REMARK  status: ('A' for Active; 'I' for Inactive)
REMARK    1  A    between atoms: C_1  and  C_2
REMARK    2  A    between atoms: C_2  and  C_4
REMARK    3  A    between atoms: C_2  and  N_15
REMARK    4  A    between atoms: N_6  and  C_7
REMARK    5  A    between atoms: C_18  and  C_21
REMARK    6  A    between atoms: C_24  and  O_27
REMARK                            x       y       z     vdW  Elec       q    Type
REMARK                         _______ _______ _______ _____ _____    ______ ____
ROOT
ATOM      1  N   UNL     1       1.481   6.306   0.164  0.00  0.00    +0.390 N 
ATOM      2  C   UNL     1       1.214   5.752  -1.174  0.00  0.00    -0.073 C 
ATOM      3  C   UNL     1       1.693   4.297  -1.198  0.00  0.00    +0.017 C 
ATOM      4  C   UNL     1       1.149   3.566  -0.003  0.00  0.00    -0.048 C 
ATOM      5  C   UNL     1       0.666   4.187   1.050  0.00  0.00    -0.041 C 
ATOM      6  C   UNL     1       0.597   5.684   1.158  0.00  0.00    -0.050 C 
ATOM      7  H   UNL     1       2.522   6.078   0.435  0.00  0.00    -0.080 HD
ENDROOT
BRANCH   4   8
ATOM      8  C   UNL     1       1.164   2.088  -0.009  0.00  0.00    -0.022 A 
ATOM      9  C   UNL     1      -0.037   1.377   0.001  0.00  0.00    +0.012 A 
ATOM     10  C   UNL     1      -0.020  -0.002  -0.005  0.00  0.00    +0.046 A 
ATOM     11  C   UNL     1       1.190  -0.683  -0.021  0.00  0.00    +0.117 A 
ATOM     12  C   UNL     1       2.387   0.021  -0.030  0.00  0.00    +0.046 A 
ATOM     13  C   UNL     1       2.378   1.400  -0.024  0.00  0.00    +0.012 A 
BRANCH  11  14
ATOM     14  O   UNL     1       1.203  -2.041  -0.026  0.00  0.00    -0.507 OA
ATOM     15  H   UNL     1       2.161  -2.582  -0.038  0.00  0.00    +0.292 HD
ENDBRANCH  11  14
ENDBRANCH   4   8
BRANCH   1  17
ATOM     16  C   UNL     1      -0.031   8.142  -0.422  0.00  0.00    -0.004 C 
ATOM     17  C   UNL     1       1.330   7.767   0.168  0.00  0.00    +0.017 C 
BRANCH  17  18
ATOM     18  C   UNL     1       2.425   8.387  -0.663  0.00  0.00    +0.203 C 
ATOM     19  O   UNL     1       3.193   7.679  -1.280  0.00  0.00    -0.277 OA
ATOM     20  N   UNL     1       2.551   9.727  -0.720  0.00  0.00    -0.284 N 
ATOM     21  H   UNL     1       1.917  10.367  -0.087  0.00  0.00    +0.155 HD
BRANCH  20  22
ATOM     22  C   UNL     1       3.489  10.307  -1.583  0.00  0.00    +0.072 A 
ATOM     23  C   UNL     1       3.912   9.619  -2.712  0.00  0.00    +0.064 A 
ATOM     24  C   UNL     1       4.839  10.194  -3.564  0.00  0.00    +0.125 A 
ATOM     25  C   UNL     1       5.343  11.455  -3.291  0.00  0.00    +0.041 A 
ATOM     26  C   UNL     1       4.922  12.142  -2.167  0.00  0.00    +0.043 A 
ATOM     27  C   UNL     1       3.993  11.575  -1.315  0.00  0.00    +0.145 A 
ATOM     28  F   UNL     1       3.578  12.249  -0.221  0.00  0.00    -0.204 F 
ATOM     29  F   UNL     1       5.251   9.525  -4.662  0.00  0.00    -0.205 F 
ENDBRANCH  20  22
ENDBRANCH  17  18
ENDBRANCH   1  17
TORSDOF 5
