REMARK  Name = ZINC39990703
REMARK  7 active torsions:
REMARK  status: ('A' for Active; 'I' for Inactive)
REMARK    1  A    between atoms: C_1  and  C_2
REMARK    2  A    between atoms: C_2  and  C_4
REMARK    3  A    between atoms: C_2  and  S_16
REMARK    4  A    between atoms: N_6  and  C_7
REMARK    5  A    between atoms: S_16  and  C_17
REMARK    6  A    between atoms: C_21  and  C_26
REMARK    7  A    between atoms: N_22  and  C_23
REMARK                            x       y       z     vdW  Elec       q    Type
REMARK                         _______ _______ _______ _____ _____    ______ ____
ROOT
ATOM      1  C   UNL     1       2.481  -0.108   1.263  0.00  0.00    +0.238 C 
ATOM      2  N   UNL     1       2.630   1.355   1.327  0.00  0.00    -0.237 N 
ATOM      3  N   UNL     1       3.193   1.751   0.108  0.00  0.00    -0.169 NA
ATOM      4  C   UNL     1       3.401   0.725  -0.674  0.00  0.00    +0.147 C 
ATOM      5  N   UNL     1       3.001  -0.471  -0.065  0.00  0.00    -0.282 N 
ATOM      6  H   UNL     1       2.385   1.932   2.068  0.00  0.00    +0.171 HD
ENDROOT
BRANCH   4   7
ATOM      7  C   UNL     1       3.955   0.811  -1.960  0.00  0.00    +0.022 C 
ATOM      8  C   UNL     1       4.465   1.950  -2.586  0.00  0.00    +0.006 A 
ATOM      9  C   UNL     1       4.585   3.292  -2.169  0.00  0.00    +0.010 A 
ATOM     10  C   UNL     1       5.135   4.210  -3.005  0.00  0.00    +0.001 A 
ATOM     11  C   UNL     1       5.588   3.860  -4.279  0.00  0.00    +0.002 A 
ATOM     12  C   UNL     1       5.504   2.590  -4.744  0.00  0.00    +0.026 A 
ATOM     13  C   UNL     1       4.941   1.575  -3.927  0.00  0.00    +0.043 A 
ATOM     14  N   UNL     1       4.750   0.288  -4.142  0.00  0.00    -0.380 N 
ATOM     15  C   UNL     1       4.132  -0.314  -2.957  0.00  0.00    +0.152 C 
ATOM     16  H   UNL     1       4.984  -0.186  -4.955  0.00  0.00    +0.160 HD
ENDBRANCH   4   7
BRANCH   5  17
ATOM     17  C   UNL     1       3.083  -1.817  -0.636  0.00  0.00    +0.078 C 
ATOM     18  C   UNL     1       2.516  -2.971   0.193  0.00  0.00    +0.024 C 
ATOM     19  C   UNL     1       4.029  -2.813   0.036  0.00  0.00    +0.024 C 
ENDBRANCH   5  17
BRANCH   1  20
ATOM     20  S   UNL     1       0.734  -0.574   1.409  0.00  0.00    -0.106 S 
BRANCH  20  22
ATOM     21  C   UNL     1       0.030   1.827   0.305  0.00  0.00    +0.029 C 
ATOM     22  C   UNL     1      -0.075   0.322   0.055  0.00  0.00    +0.133 C 
BRANCH  22  23
ATOM     23  C   UNL     1      -1.526  -0.076  -0.015  0.00  0.00    +0.230 C 
ATOM     24  O   UNL     1      -2.089  -0.495   0.975  0.00  0.00    -0.274 OA
ATOM     25  N   UNL     1      -2.200   0.033  -1.177  0.00  0.00    -0.285 N 
ATOM     26  H   UNL     1      -1.770   0.428  -1.952  0.00  0.00    +0.155 HD
BRANCH  25  27
ATOM     27  C   UNL     1      -3.520  -0.422  -1.266  0.00  0.00    +0.034 A 
ATOM     28  C   UNL     1      -4.375  -0.298  -0.178  0.00  0.00    +0.023 A 
ATOM     29  C   UNL     1      -5.676  -0.748  -0.271  0.00  0.00    +0.006 A 
ATOM     30  C   UNL     1      -6.134  -1.325  -1.445  0.00  0.00    -0.044 A 
ATOM     31  C   UNL     1      -5.285  -1.450  -2.530  0.00  0.00    -0.042 A 
ATOM     32  C   UNL     1      -3.981  -0.995  -2.442  0.00  0.00    +0.027 A 
ATOM     33  C   UNL     1      -6.019  -2.107  -3.680  0.00  0.00    +0.036 C 
ATOM     34  C   UNL     1      -7.263  -2.762  -3.044  0.00  0.00    +0.009 C 
ATOM     35  C   UNL     1      -7.495  -1.888  -1.793  0.00  0.00    +0.036 C 
ENDBRANCH  25  27
ENDBRANCH  22  23
ENDBRANCH  20  22
ENDBRANCH   1  20
TORSDOF 6
