REMARK  Name = ZINC12562428
REMARK  10 active torsions:
REMARK  status: ('A' for Active; 'I' for Inactive)
REMARK    1  A    between atoms: C_1  and  C_2
REMARK    2  A    between atoms: C_2  and  C_3
REMARK    3  A    between atoms: C_2  and  C_4
REMARK    4  A    between atoms: C_4  and  C_6
REMARK    5  A    between atoms: C_4  and  N_54
REMARK    6  A    between atoms: C_6  and  N_7
REMARK    7  A    between atoms: N_7  and  C_8
REMARK    8  A    between atoms: C_11  and  S_17
REMARK    9  A    between atoms: C_13  and  N_14
REMARK   10  A    between atoms: S_17  and  N_20
REMARK                            x       y       z     vdW  Elec       q    Type
REMARK                         _______ _______ _______ _____ _____    ______ ____
ROOT
ATOM      1  N   UNL     1      -1.787   1.622  -1.290  0.00  0.00    -0.344 N 
ATOM      2  H   UNL     1      -2.285   1.256  -0.542  0.00  0.00    +0.146 HD
ENDROOT
BRANCH   1   3
ATOM      3  C   UNL     1      -2.465   2.089  -2.418  0.00  0.00    +0.058 A 
ATOM      4  C   UNL     1      -1.753   2.489  -3.542  0.00  0.00    +0.027 A 
ATOM      5  C   UNL     1      -2.426   2.950  -4.656  0.00  0.00    +0.030 A 
ATOM      6  C   UNL     1      -3.807   3.014  -4.654  0.00  0.00    +0.107 A 
ATOM      7  C   UNL     1      -4.519   2.616  -3.537  0.00  0.00    +0.063 A 
ATOM      8  C   UNL     1      -3.852   2.148  -2.421  0.00  0.00    +0.149 A 
BRANCH   8   9
ATOM      9  N   UNL     1      -4.615   1.717  -1.229  0.00  0.00    +0.058 N 
ATOM     10  O   UNL     1      -5.831   1.661  -1.271  0.00  0.00    -0.126 OA
ATOM     11  O   UNL     1      -4.027   1.419  -0.205  0.00  0.00    -0.126 OA
ENDBRANCH   8   9
BRANCH   6  12
ATOM     12  S   UNL     1      -4.662   3.603  -6.077  0.00  0.00    +0.056 S 
ATOM     13  O   UNL     1      -5.923   4.079  -5.626  0.00  0.00    -0.153 OA
ATOM     14  O   UNL     1      -3.748   4.426  -6.788  0.00  0.00    -0.153 OA
BRANCH  12  15
ATOM     15  N   UNL     1      -4.968   2.293  -7.042  0.00  0.00    -0.204 NA
ATOM     16  H   UNL     1      -5.753   2.283  -7.613  0.00  0.00    +0.144 HD
ATOM     17  H   UNL     1      -4.363   1.534  -7.037  0.00  0.00    +0.144 HD
ENDBRANCH  12  15
ENDBRANCH   6  12
ENDBRANCH   1   3
BRANCH   1  18
ATOM     18  C   UNL     1      -0.324   1.685  -1.235  0.00  0.00    +0.086 C 
BRANCH  18  19
ATOM     19  C   UNL     1       0.151   1.297   0.166  0.00  0.00    -0.049 C 
BRANCH  19  26
ATOM     20  C   UNL     1      -1.550   2.800   1.035  0.00  0.00    -0.078 C 
ATOM     21  C   UNL     1      -1.825   4.088   1.762  0.00  0.00    -0.019 C 
ATOM     22  C   UNL     1      -1.738   5.250   0.750  0.00  0.00    -0.002 C 
ATOM     23  C   UNL     1      -0.358   5.620   0.453  0.00  0.00    -0.002 C 
ATOM     24  C   UNL     1       0.434   4.455  -0.177  0.00  0.00    -0.019 C 
ATOM     25  C   UNL     1       0.837   3.504   0.917  0.00  0.00    -0.078 C 
ATOM     26  N   UNL     1      -0.116   2.365   1.143  0.00  0.00    +0.383 N 
ATOM     27  H   UNL     1       0.040   1.995   2.089  0.00  0.00    -0.081 HD
ENDBRANCH  19  26
BRANCH  19  29
ATOM     28  C   UNL     1       2.164   0.810   1.564  0.00  0.00    +0.005 C 
ATOM     29  C   UNL     1       1.656   1.022   0.136  0.00  0.00    -0.029 C 
ATOM     30  C   UNL     1       1.929  -0.234  -0.694  0.00  0.00    +0.005 C 
ENDBRANCH  19  29
ENDBRANCH  18  19
ENDBRANCH   1  18
TORSDOF 8
