REMARK  Name = ZINC63339560
REMARK  6 active torsions:
REMARK  status: ('A' for Active; 'I' for Inactive)
REMARK    1  A    between atoms: C_1  and  C_2
REMARK    2  A    between atoms: C_8  and  C_11
REMARK    3  A    between atoms: C_11  and  C_12
REMARK    4  A    between atoms: C_12  and  N_13
REMARK    5  A    between atoms: C_14  and  C_32
REMARK    6  A    between atoms: N_22  and  C_25
REMARK                            x       y       z     vdW  Elec       q    Type
REMARK                         _______ _______ _______ _____ _____    ______ ____
ROOT
ATOM      1  N   UNL     1      -1.173  -2.603   5.629  0.00  0.00    -0.311 N 
ATOM      2  C   UNL     1      -1.354  -3.650   6.460  0.00  0.00    +0.033 A 
ATOM      3  C   UNL     1      -1.559  -3.437   7.799  0.00  0.00    +0.085 A 
ATOM      4  C   UNL     1      -1.577  -2.059   8.312  0.00  0.00    +0.075 A 
ATOM      5  C   UNL     1      -1.386  -1.028   7.418  0.00  0.00    +0.098 A 
ATOM      6  C   UNL     1      -1.179  -1.334   6.067  0.00  0.00    +0.254 A 
ATOM      7  O   UNL     1      -1.005  -0.426   5.269  0.00  0.00    -0.268 OA
ATOM      8  N   UNL     1      -1.798  -2.146   9.664  0.00  0.00    -0.289 N 
ATOM      9  H   UNL     1      -1.860  -1.390  10.268  0.00  0.00    +0.187 HD
ATOM     10  N   UNL     1      -1.921  -3.487  10.040  0.00  0.00    -0.219 N 
ATOM     11  C   UNL     1      -1.786  -4.296   8.970  0.00  0.00    +0.281 A 
ATOM     12  O   UNL     1      -1.844  -5.511   8.973  0.00  0.00    -0.265 OA
ATOM     13  C   UNL     1      -1.332  -5.055   5.916  0.00  0.00    +0.064 C 
ENDROOT
BRANCH  10  14
ATOM     14  C   UNL     1      -2.151  -3.929  11.347  0.00  0.00    +0.067 A 
ATOM     15  C   UNL     1      -2.251  -5.288  11.615  0.00  0.00    +0.029 A 
ATOM     16  C   UNL     1      -2.478  -5.721  12.906  0.00  0.00    +0.022 A 
ATOM     17  C   UNL     1      -2.607  -4.803  13.933  0.00  0.00    +0.041 A 
ATOM     18  C   UNL     1      -2.509  -3.448  13.669  0.00  0.00    +0.022 A 
ATOM     19  C   UNL     1      -2.275  -3.009  12.381  0.00  0.00    +0.029 A 
ATOM     20 CL   UNL     1      -2.893  -5.351  15.555  0.00  0.00    -0.084 Cl
ENDBRANCH  10  14
BRANCH   1  21
ATOM     21  C   UNL     1      -0.957  -2.860   4.203  0.00  0.00    +0.129 C 
BRANCH  21  22
ATOM     22  C   UNL     1      -2.301  -2.837   3.471  0.00  0.00    +0.055 C 
BRANCH  22  30
ATOM     23  C   UNL     1      -2.801  -8.059   1.427  0.00  0.00    +0.044 C 
ATOM     24  C   UNL     1      -2.482  -6.666   0.948  0.00  0.00    -0.050 A 
ATOM     25  C   UNL     1      -2.200  -6.458  -0.409  0.00  0.00    +0.005 A 
ATOM     26  C   UNL     1      -1.905  -5.242  -0.915  0.00  0.00    +0.026 A 
ATOM     27  C   UNL     1      -1.869  -4.101  -0.067  0.00  0.00    +0.043 A 
ATOM     28  N   UNL     1      -1.612  -2.839  -0.313  0.00  0.00    -0.380 N 
ATOM     29  C   UNL     1      -1.715  -2.087   0.943  0.00  0.00    +0.144 C 
ATOM     30  C   UNL     1      -2.079  -3.101   2.004  0.00  0.00    -0.040 C 
ATOM     31  C   UNL     1      -2.163  -4.293   1.371  0.00  0.00    -0.001 A 
ATOM     32  C   UNL     1      -2.480  -5.648   1.839  0.00  0.00    +0.013 A 
ATOM     33  H   UNL     1      -1.391  -2.464  -1.180  0.00  0.00    +0.160 HD
ENDBRANCH  22  30
ENDBRANCH  21  22
ENDBRANCH   1  21
TORSDOF 4
