REMARK  Name = ZINC20490492
REMARK  13 active torsions:
REMARK  status: ('A' for Active; 'I' for Inactive)
REMARK    1  A    between atoms: C_1  and  C_2
REMARK    2  A    between atoms: C_2  and  C_3
REMARK    3  A    between atoms: C_6  and  C_9
REMARK    4  A    between atoms: C_11  and  C_31
REMARK    5  A    between atoms: C_15  and  C_18
REMARK    6  A    between atoms: N_20  and  C_21
REMARK    7  A    between atoms: C_24  and  O_27
REMARK    8  A    between atoms: O_27  and  C_28
REMARK    9  A    between atoms: C_28  and  C_29
REMARK   10  A    between atoms: C_35  and  O_39
REMARK   11  A    between atoms: C_36  and  O_37
REMARK   12  A    between atoms: O_37  and  C_38
REMARK   13  A    between atoms: O_39  and  C_40
REMARK                            x       y       z     vdW  Elec       q    Type
REMARK                         _______ _______ _______ _____ _____    ______ ____
ROOT
ATOM      1  C   UNL     1      -5.389  -1.994   0.044  0.00  0.00    +0.053 C 
ATOM      2  C   UNL     1      -6.078  -2.239  -1.269  0.00  0.00    +0.088 C 
ATOM      3  C   UNL     1      -7.038  -3.430  -1.178  0.00  0.00    +0.149 C 
ATOM      4  N   UNL     1      -7.762  -3.333   0.094  0.00  0.00    -0.238 N 
ATOM      5  C   UNL     1      -7.208  -2.752   1.202  0.00  0.00    +0.164 A 
ATOM      6  C   UNL     1      -8.147  -2.842   2.220  0.00  0.00    +0.100 A 
ATOM      7  C   UNL     1      -9.281  -3.489   1.677  0.00  0.00    +0.149 A 
ATOM      8  N   UNL     1      -9.040  -3.769   0.422  0.00  0.00    -0.176 NA
ATOM      9  N   UNL     1      -5.971  -2.216   1.193  0.00  0.00    -0.232 NA
ENDROOT
BRANCH   1  13
ATOM     10  C   UNL     1      -1.403  -0.546   0.019  0.00  0.00    -0.048 A 
ATOM     11  C   UNL     1      -2.040  -0.788   1.224  0.00  0.00    +0.004 A 
ATOM     12  C   UNL     1      -3.336  -1.258   1.240  0.00  0.00    +0.010 A 
ATOM     13  C   UNL     1      -4.007  -1.492   0.035  0.00  0.00    -0.004 A 
ATOM     14  C   UNL     1      -3.356  -1.245  -1.178  0.00  0.00    +0.010 A 
ATOM     15  C   UNL     1      -2.062  -0.769  -1.178  0.00  0.00    +0.004 A 
BRANCH  10  17
ATOM     16  C   UNL     1       0.001   1.498   0.025  0.00  0.00    +0.009 C 
ATOM     17  C   UNL     1       0.014  -0.032   0.010  0.00  0.00    +0.032 C 
ENDBRANCH  10  17
ENDBRANCH   1  13
BRANCH   3  18
ATOM     18  C   UNL     1      -6.257  -4.718  -1.223  0.00  0.00    +0.023 A 
ATOM     19  C   UNL     1      -5.311  -4.988  -0.251  0.00  0.00    +0.009 A 
ATOM     20  C   UNL     1      -4.594  -6.169  -0.290  0.00  0.00    +0.004 A 
ATOM     21  C   UNL     1      -4.818  -7.085  -1.300  0.00  0.00    +0.049 A 
ATOM     22  C   UNL     1      -5.764  -6.821  -2.277  0.00  0.00    +0.162 A 
ATOM     23  C   UNL     1      -6.492  -5.635  -2.235  0.00  0.00    +0.167 A 
BRANCH  23  24
ATOM     24  O   UNL     1      -7.425  -5.374  -3.188  0.00  0.00    -0.491 OA
ATOM     25  C   UNL     1      -6.982  -4.685  -4.359  0.00  0.00    +0.277 C 
ENDBRANCH  23  24
BRANCH  22  26
ATOM     26  O   UNL     1      -5.986  -7.721  -3.272  0.00  0.00    -0.491 OA
ATOM     27  C   UNL     1      -5.208  -8.919  -3.249  0.00  0.00    +0.277 C 
ENDBRANCH  22  26
ENDBRANCH   3  18
BRANCH   6  28
ATOM     28  C   UNL     1      -7.992  -2.359   3.600  0.00  0.00    +0.253 C 
ATOM     29  O   UNL     1      -6.958  -1.817   3.941  0.00  0.00    -0.270 OA
ATOM     30  N   UNL     1      -8.995  -2.517   4.486  0.00  0.00    -0.281 N 
ATOM     31  H   UNL     1      -9.843  -2.888   4.197  0.00  0.00    +0.155 HD
BRANCH  30  32
ATOM     32  C   UNL     1      -8.812  -2.145   5.824  0.00  0.00    +0.034 A 
ATOM     33  C   UNL     1      -8.035  -1.038   6.137  0.00  0.00    +0.027 A 
ATOM     34  C   UNL     1      -7.855  -0.672   7.456  0.00  0.00    +0.047 A 
ATOM     35  C   UNL     1      -8.451  -1.411   8.469  0.00  0.00    +0.121 A 
ATOM     36  C   UNL     1      -9.227  -2.517   8.156  0.00  0.00    +0.047 A 
ATOM     37  C   UNL     1      -9.413  -2.880   6.837  0.00  0.00    +0.027 A 
BRANCH  35  38
ATOM     38  O   UNL     1      -8.273  -1.050   9.768  0.00  0.00    -0.492 OA
BRANCH  38  39
ATOM     39  C   UNL     1      -8.915  -1.855  10.758  0.00  0.00    +0.225 C 
ATOM     40  C   UNL     1      -8.602  -1.300  12.149  0.00  0.00    +0.048 C 
ENDBRANCH  38  39
ENDBRANCH  35  38
ENDBRANCH  30  32
ENDBRANCH   6  28
TORSDOF 9
