REMARK  Name = ZINC03007132
REMARK  11 active torsions:
REMARK  status: ('A' for Active; 'I' for Inactive)
REMARK    1  A    between atoms: C_1  and  C_2
REMARK    2  A    between atoms: N_8  and  S_9
REMARK    3  A    between atoms: S_9  and  C_12
REMARK    4  A    between atoms: C_15  and  C_18
REMARK    5  A    between atoms: N_20  and  C_21
REMARK    6  A    between atoms: C_22  and  C_32
REMARK    7  A    between atoms: C_29  and  C_30
REMARK    8  A    between atoms: C_29  and  C_31
REMARK    9  A    between atoms: C_29  and  N_68
REMARK   10  A    between atoms: C_32  and  O_34
REMARK   11  A    between atoms: O_34  and  C_35
REMARK                            x       y       z     vdW  Elec       q    Type
REMARK                         _______ _______ _______ _____ _____    ______ ____
ROOT
ATOM      1  C   UNL     1      -1.950  -1.097   0.214  0.00  0.00    +0.249 C 
ATOM      2  O   UNL     1      -0.748  -1.222   0.347  0.00  0.00    -0.270 OA
ATOM      3  N   UNL     1      -2.491   0.133   0.106  0.00  0.00    -0.275 N 
ATOM      4  H   UNL     1      -3.451   0.232   0.000  0.00  0.00    +0.156 HD
ENDROOT
BRANCH   3   5
ATOM      5  C   UNL     1      -1.679   1.253   0.147  0.00  0.00    +0.086 A 
ATOM      6  C   UNL     1      -2.048   2.591   0.053  0.00  0.00    +0.091 A 
ATOM      7  C   UNL     1      -0.990   3.581   0.125  0.00  0.00    -0.025 A 
ATOM      8  C   UNL     1       0.259   3.084   0.277  0.00  0.00    -0.021 A 
ATOM      9  S   UNL     1       0.043   1.329   0.326  0.00  0.00    -0.079 S 
ATOM     10  C   UNL     1       1.524   3.876   0.376  0.00  0.00    -0.035 C 
ATOM     11  C   UNL     1       0.043   5.781   0.590  0.00  0.00    -0.073 C 
ATOM     12  C   UNL     1      -1.208   5.088   0.043  0.00  0.00    +0.018 C 
ATOM     13  N   UNL     1       1.237   5.252  -0.100  0.00  0.00    +0.384 N 
ATOM     14  H   UNL     1       1.056   5.225  -1.110  0.00  0.00    -0.081 HD
BRANCH  13  15
ATOM     15  C   UNL     1       2.400   6.128   0.157  0.00  0.00    -0.074 C 
ATOM     16  C   UNL     1       2.713   6.178   1.654  0.00  0.00    -0.014 C 
ATOM     17  C   UNL     1       3.612   5.581  -0.599  0.00  0.00    -0.014 C 
ENDBRANCH  13  15
BRANCH   6  18
ATOM     18  C   UNL     1      -3.448   2.984  -0.118  0.00  0.00    +0.342 C 
ATOM     19  O   UNL     1      -4.145   3.189   0.857  0.00  0.00    -0.245 OA
BRANCH  18  20
ATOM     20  O   UNL     1      -3.964   3.118  -1.357  0.00  0.00    -0.464 OA
ATOM     21  C   UNL     1      -5.359   3.511  -1.451  0.00  0.00    +0.280 C 
ENDBRANCH  18  20
ENDBRANCH   6  18
ENDBRANCH   3   5
BRANCH   1  25
ATOM     22  C   UNL     1      -4.441  -4.534   0.092  0.00  0.00    +0.106 A 
ATOM     23  C   UNL     1      -3.073  -4.680   0.242  0.00  0.00    +0.029 A 
ATOM     24  C   UNL     1      -2.258  -3.568   0.283  0.00  0.00    +0.015 A 
ATOM     25  C   UNL     1      -2.816  -2.293   0.171  0.00  0.00    +0.037 A 
ATOM     26  C   UNL     1      -4.197  -2.153   0.025  0.00  0.00    +0.015 A 
ATOM     27  C   UNL     1      -5.000  -3.274  -0.019  0.00  0.00    +0.029 A 
BRANCH  22  28
ATOM     28  S   UNL     1      -5.474  -5.961   0.041  0.00  0.00    +0.061 S 
ATOM     29  O   UNL     1      -6.718  -5.541  -0.502  0.00  0.00    -0.153 OA
ATOM     30  O   UNL     1      -4.701  -7.002  -0.540  0.00  0.00    -0.153 OA
BRANCH  28  37
ATOM     31  C   UNL     1      -7.548  -4.725   1.520  0.00  0.00    +0.026 C 
ATOM     32  C   UNL     1      -6.786  -5.712   2.407  0.00  0.00    +0.077 C 
ATOM     33  C   UNL     1      -7.760  -6.755   2.974  0.00  0.00    +0.020 C 
ATOM     34  C   UNL     1      -6.971  -7.814   3.748  0.00  0.00    +0.003 C 
ATOM     35  C   UNL     1      -6.003  -8.525   2.799  0.00  0.00    +0.017 C 
ATOM     36  C   UNL     1      -5.013  -7.505   2.228  0.00  0.00    +0.110 C 
ATOM     37  N   UNL     1      -5.768  -6.408   1.608  0.00  0.00    -0.174 NA
ENDBRANCH  28  37
ENDBRANCH  22  28
ENDBRANCH   1  25
TORSDOF 7
