REMARK  Name = ZINC54615219
REMARK  15 active torsions:
REMARK  status: ('A' for Active; 'I' for Inactive)
REMARK    1  A    between atoms: C_1  and  C_2
REMARK    2  A    between atoms: C_2  and  C_3
REMARK    3  A    between atoms: C_3  and  C_4
REMARK    4  A    between atoms: C_4  and  S_5
REMARK    5  A    between atoms: S_5  and  C_6
REMARK    6  A    between atoms: C_11  and  C_28
REMARK    7  A    between atoms: C_13  and  C_17
REMARK    8  A    between atoms: C_14  and  C_16
REMARK    9  A    between atoms: N_19  and  C_20
REMARK   10  A    between atoms: C_24  and  C_27
REMARK   11  A    between atoms: C_25  and  C_26
REMARK   12  A    between atoms: C_31  and  O_34
REMARK   13  A    between atoms: O_34  and  C_35
REMARK   14  A    between atoms: C_35  and  C_36
REMARK   15  A    between atoms: C_35  and  C_37
REMARK                            x       y       z     vdW  Elec       q    Type
REMARK                         _______ _______ _______ _____ _____    ______ ____
ROOT
ATOM      1  C   UNL     1       0.805  -3.813  -5.362  0.00  0.00    +0.210 A 
ATOM      2  N   UNL     1       0.202  -3.903  -4.168  0.00  0.00    -0.187 NA
ATOM      3  C   UNL     1       0.498  -5.047  -3.615  0.00  0.00    +0.219 A 
ATOM      4  N   UNL     1       1.309  -5.728  -4.462  0.00  0.00    -0.220 N 
ATOM      5  N   UNL     1       1.491  -4.915  -5.580  0.00  0.00    -0.141 NA
ATOM      6  C   UNL     1       1.837  -7.060  -4.181  0.00  0.00    +0.177 C 
ATOM      7  C   UNL     1       1.595  -7.400  -2.734  0.00  0.00    +0.060 C 
ATOM      8  C   UNL     1       0.783  -6.686  -1.941  0.00  0.00    +0.018 C 
ATOM      9  N   UNL     1       0.114  -5.573  -2.389  0.00  0.00    -0.287 N 
ATOM     10  C   UNL     1       0.599  -7.119  -0.509  0.00  0.00    +0.061 C 
ATOM     11  H   UNL     1      -0.600  -5.171  -1.870  0.00  0.00    +0.155 HD
ENDROOT
BRANCH   6  12
ATOM     12  C   UNL     1       1.144  -8.071  -5.057  0.00  0.00    -0.018 A 
ATOM     13  C   UNL     1      -0.228  -8.226  -4.980  0.00  0.00    +0.009 A 
ATOM     14  C   UNL     1      -0.866  -9.152  -5.782  0.00  0.00    +0.046 A 
ATOM     15  C   UNL     1      -0.129  -9.927  -6.666  0.00  0.00    +0.121 A 
ATOM     16  C   UNL     1       1.247  -9.769  -6.742  0.00  0.00    +0.046 A 
ATOM     17  C   UNL     1       1.879  -8.837  -5.942  0.00  0.00    +0.009 A 
BRANCH  15  18
ATOM     18  O   UNL     1      -0.754 -10.839  -7.456  0.00  0.00    -0.489 OA
BRANCH  18  19
ATOM     19  C   UNL     1      -2.154 -11.033  -7.240  0.00  0.00    +0.167 C 
ATOM     20  C   UNL     1      -2.941  -9.976  -8.018  0.00  0.00    +0.051 C 
ATOM     21  C   UNL     1      -2.556 -12.428  -7.725  0.00  0.00    +0.051 C 
ENDBRANCH  18  19
ENDBRANCH  15  18
ENDBRANCH   6  12
BRANCH   7  22
ATOM     22  C   UNL     1       2.254  -8.525  -2.187  0.00  0.00    +0.248 C 
ATOM     23  O   UNL     1       3.413  -8.435  -1.823  0.00  0.00    -0.270 OA
ATOM     24  N   UNL     1       1.600  -9.697  -2.068  0.00  0.00    -0.281 N 
ATOM     25  H   UNL     1       0.695  -9.784  -2.405  0.00  0.00    +0.155 HD
BRANCH  24  26
ATOM     26  C   UNL     1       2.226 -10.789  -1.458  0.00  0.00    +0.037 A 
ATOM     27  C   UNL     1       3.609 -10.911  -1.502  0.00  0.00    +0.023 A 
ATOM     28  C   UNL     1       4.225 -11.991  -0.898  0.00  0.00    +0.002 A 
ATOM     29  C   UNL     1       3.466 -12.949  -0.252  0.00  0.00    +0.004 A 
ATOM     30  C   UNL     1       2.089 -12.830  -0.207  0.00  0.00    -0.046 A 
ATOM     31  C   UNL     1       1.468 -11.750  -0.803  0.00  0.00    -0.026 A 
ATOM     32  C   UNL     1      -0.033 -11.618  -0.748  0.00  0.00    +0.046 C 
ATOM     33  C   UNL     1       1.266 -13.877   0.499  0.00  0.00    +0.044 C 
ENDBRANCH  24  26
ENDBRANCH   7  22
BRANCH   1  34
ATOM     34  S   UNL     1       0.692  -2.443  -6.465  0.00  0.00    -0.084 S 
BRANCH  34  35
ATOM     35  C   UNL     1      -0.381  -1.267  -5.596  0.00  0.00    +0.077 C 
BRANCH  35  36
ATOM     36  C   UNL     1      -0.566  -0.014  -6.455  0.00  0.00    +0.011 C 
BRANCH  36  38
ATOM     37  C   UNL     1      -1.655   2.230  -6.580  0.00  0.00    +0.004 C 
ATOM     38  C   UNL     1      -1.471   0.977  -5.722  0.00  0.00    -0.003 C 
ENDBRANCH  36  38
ENDBRANCH  35  36
ENDBRANCH  34  35
ENDBRANCH   1  34
TORSDOF 9
