REMARK  Name = ZINC03353255
REMARK  7 active torsions:
REMARK  status: ('A' for Active; 'I' for Inactive)
REMARK    1  A    between atoms: C_4  and  C_27
REMARK    2  A    between atoms: C_5  and  N_10
REMARK    3  A    between atoms: C_11  and  C_12
REMARK    4  A    between atoms: N_13  and  C_14
REMARK    5  A    between atoms: C_18  and  C_19
REMARK    6  A    between atoms: N_21  and  N_22
REMARK    7  A    between atoms: N_29  and  N_30
REMARK                            x       y       z     vdW  Elec       q    Type
REMARK                         _______ _______ _______ _____ _____    ______ ____
ROOT
ATOM      1  N   UNL     1       5.105   1.650  -3.409  0.00  0.00    -0.246 NA
ATOM      2  C   UNL     1       5.534   0.899  -4.397  0.00  0.00    +0.131 C 
ENDROOT
BRANCH   1   7
ATOM      3  C   UNL     1      -0.019   1.527   0.010  0.00  0.00    +0.005 C 
ATOM      4  C   UNL     1       1.411   2.068  -0.000  0.00  0.00    +0.037 C 
ATOM      5  C   UNL     1       2.170   1.433  -1.163  0.00  0.00    -0.023 A 
ATOM      6  C   UNL     1       3.353   1.976  -1.683  0.00  0.00    +0.074 A 
ATOM      7  C   UNL     1       3.978   1.320  -2.754  0.00  0.00    +0.114 A 
ATOM      8  S   UNL     1       2.886  -0.067  -3.020  0.00  0.00    -0.073 S 
ATOM      9  C   UNL     1       1.710   0.292  -1.743  0.00  0.00    -0.004 A 
ATOM     10  C   UNL     1       0.482  -0.482  -1.377  0.00  0.00    +0.043 C 
ATOM     11  C   UNL     1       0.002  -0.004   0.002  0.00  0.00    +0.005 C 
BRANCH   6  12
ATOM     12  C   UNL     1       3.925   3.206  -1.119  0.00  0.00    +0.260 C 
ATOM     13  O   UNL     1       4.726   3.140  -0.204  0.00  0.00    -0.269 OA
ATOM     14  N   UNL     1       3.564   4.406  -1.613  0.00  0.00    -0.249 N 
ATOM     15  H   UNL     1       2.926   4.458  -2.342  0.00  0.00    +0.169 HD
BRANCH  14  16
ATOM     16  N   UNL     1       4.096   5.549  -1.089  0.00  0.00    -0.254 NA
ATOM     17  H   UNL     1       5.105   5.529  -1.126  0.00  0.00    +0.140 HD
ATOM     18  H   UNL     1       3.734   6.366  -1.558  0.00  0.00    +0.140 HD
ENDBRANCH  14  16
ENDBRANCH   6  12
ENDBRANCH   1   7
BRANCH   2  19
ATOM     19  C   UNL     1       6.716   1.245  -5.084  0.00  0.00    +0.131 C 
ATOM     20  N   UNL     1       7.144   0.494  -6.071  0.00  0.00    -0.246 NA
BRANCH  20  21
ATOM     21  C   UNL     1       8.271   0.824  -6.726  0.00  0.00    +0.114 A 
ATOM     22  S   UNL     1       9.367   2.208  -6.456  0.00  0.00    -0.073 S 
ATOM     23  C   UNL     1      10.541   1.851  -7.736  0.00  0.00    -0.004 A 
ATOM     24  C   UNL     1      10.077   0.715  -8.321  0.00  0.00    -0.023 A 
ATOM     25  C   UNL     1       8.897   0.168  -7.797  0.00  0.00    +0.074 A 
ATOM     26  C   UNL     1      10.831   0.084  -9.489  0.00  0.00    +0.037 C 
ATOM     27  C   UNL     1      11.767   1.130 -10.095  0.00  0.00    +0.005 C 
ATOM     28  C   UNL     1      12.648   1.739  -9.000  0.00  0.00    +0.005 C 
ATOM     29  C   UNL     1      11.772   2.622  -8.099  0.00  0.00    +0.043 C 
BRANCH  25  30
ATOM     30  C   UNL     1       8.325  -1.062  -8.361  0.00  0.00    +0.260 C 
ATOM     31  O   UNL     1       7.525  -0.998  -9.275  0.00  0.00    -0.269 OA
ATOM     32  N   UNL     1       8.687  -2.262  -7.865  0.00  0.00    -0.249 N 
ATOM     33  H   UNL     1       9.325  -2.313  -7.136  0.00  0.00    +0.169 HD
BRANCH  32  34
ATOM     34  N   UNL     1       8.155  -3.406  -8.389  0.00  0.00    -0.254 NA
ATOM     35  H   UNL     1       8.518  -4.222  -7.918  0.00  0.00    +0.140 HD
ATOM     36  H   UNL     1       7.147  -3.386  -8.352  0.00  0.00    +0.140 HD
ENDBRANCH  32  34
ENDBRANCH  25  30
ENDBRANCH  20  21
ENDBRANCH   2  19
TORSDOF 7
