REMARK  Name = ZINC05043999
REMARK  8 active torsions:
REMARK  status: ('A' for Active; 'I' for Inactive)
REMARK    1  A    between atoms: C_1  and  C_2
REMARK    2  A    between atoms: C_2  and  O_3
REMARK    3  A    between atoms: O_3  and  C_4
REMARK    4  A    between atoms: C_4  and  C_6
REMARK    5  A    between atoms: C_8  and  C_20
REMARK    6  A    between atoms: C_14  and  C_15
REMARK    7  A    between atoms: C_14  and  O_19
REMARK    8  A    between atoms: C_22  and  N_26
REMARK                            x       y       z     vdW  Elec       q    Type
REMARK                         _______ _______ _______ _____ _____    ______ ____
ROOT
ATOM      1  C   UNL     1      -2.897   6.044  -1.401  0.00  0.00    +0.181 C 
ATOM      2  C   UNL     1      -3.810   5.266  -0.448  0.00  0.00    +0.127 C 
ATOM      3  N   UNL     1      -3.458   5.598   0.934  0.00  0.00    -0.291 N 
ATOM      4  C   UNL     1      -2.208   5.955   1.268  0.00  0.00    +0.302 C 
ATOM      5  O   UNL     1      -1.965   6.210   2.431  0.00  0.00    -0.253 OA
ATOM      6  N   UNL     1      -1.215   6.040   0.369  0.00  0.00    -0.264 N 
ATOM      7  C   UNL     1      -1.439   5.733  -1.044  0.00  0.00    +0.246 C 
ATOM      8  H   UNL     1      -4.142   5.560   1.620  0.00  0.00    +0.151 HD
ATOM      9  H   UNL     1      -0.331   6.311   0.662  0.00  0.00    +0.153 HD
ENDROOT
BRANCH   2  10
ATOM     10  C   UNL     1      -3.628   3.786  -0.672  0.00  0.00    +0.023 A 
ATOM     11  C   UNL     1      -2.829   3.051   0.182  0.00  0.00    +0.042 A 
ATOM     12  C   UNL     1      -2.658   1.695  -0.026  0.00  0.00    +0.127 A 
ATOM     13  C   UNL     1      -3.294   1.069  -1.083  0.00  0.00    +0.036 A 
ATOM     14  C   UNL     1      -4.098   1.800  -1.937  0.00  0.00    +0.053 A 
ATOM     15  C   UNL     1      -4.267   3.162  -1.733  0.00  0.00    +0.184 A 
ATOM     16  O   UNL     1      -5.058   3.882  -2.571  0.00  0.00    -0.288 OA
BRANCH  12  17
ATOM     17  N   UNL     1      -1.797   0.910   0.887  0.00  0.00    +0.056 N 
ATOM     18  O   UNL     1      -1.649  -0.285   0.707  0.00  0.00    -0.126 OA
ATOM     19  O   UNL     1      -1.232   1.461   1.815  0.00  0.00    -0.126 OA
ENDBRANCH  12  17
ENDBRANCH   2  10
BRANCH   7  20
ATOM     20  C   UNL     1      -0.508   6.585  -1.908  0.00  0.00    +0.436 C 
ATOM     21  F   UNL     1      -0.672   7.935  -1.579  0.00  0.00    -0.166 F 
ATOM     22  F   UNL     1       0.819   6.207  -1.677  0.00  0.00    -0.166 F 
ATOM     23  F   UNL     1      -0.819   6.393  -3.259  0.00  0.00    -0.166 F 
ENDBRANCH   7  20
BRANCH   1  24
ATOM     24  C   UNL     1      -3.150   7.522  -1.251  0.00  0.00    +0.317 C 
ATOM     25  O   UNL     1      -3.230   8.012  -0.149  0.00  0.00    -0.250 OA
BRANCH  24  26
ATOM     26  O   UNL     1      -3.287   8.294  -2.340  0.00  0.00    -0.465 OA
BRANCH  26  28
ATOM     27  C   UNL     1      -3.657  10.420  -3.468  0.00  0.00    +0.048 C 
ATOM     28  C   UNL     1      -3.529   9.708  -2.120  0.00  0.00    +0.229 C 
ENDBRANCH  26  28
ENDBRANCH  24  26
ENDBRANCH   1  24
BRANCH   7  29
ATOM     29  O   UNL     1      -1.175   4.348  -1.280  0.00  0.00    -0.364 OA
ATOM     30  H   UNL     1      -0.269   4.080  -1.075  0.00  0.00    +0.212 HD
ENDBRANCH   7  29
TORSDOF 7
