REMARK  Name = ZINC38101474
REMARK  6 active torsions:
REMARK  status: ('A' for Active; 'I' for Inactive)
REMARK    1  A    between atoms: N_3  and  S_16
REMARK    2  A    between atoms: C_7  and  C_9
REMARK    3  A    between atoms: C_9  and  C_11
REMARK    4  A    between atoms: C_9  and  N_15
REMARK    5  A    between atoms: C_11  and  C_12
REMARK    6  A    between atoms: S_16  and  N_19
REMARK                            x       y       z     vdW  Elec       q    Type
REMARK                         _______ _______ _______ _____ _____    ______ ____
ROOT
ATOM      1  C   UNL     1      -0.018   1.465   0.010  0.00  0.00    +0.125 C 
ATOM      2  C   UNL     1       1.429   1.975  -0.001  0.00  0.00    +0.129 C 
ATOM      3  N   UNL     1       2.183   1.271   1.046  0.00  0.00    -0.164 NA
ATOM      4  C   UNL     1       2.203  -0.198   1.038  0.00  0.00    +0.129 C 
ATOM      5  C   UNL     1       0.756  -0.708   1.049  0.00  0.00    +0.125 C 
ATOM      6  N   UNL     1       0.002  -0.004   0.002  0.00  0.00    -0.300 N 
ATOM      7  C   UNL     1      -0.660  -0.694  -0.948  0.00  0.00    +0.202 C 
ATOM      8  O   UNL     1      -1.279  -0.102  -1.807  0.00  0.00    -0.277 OA
ENDROOT
BRANCH   3   9
ATOM      9  S   UNL     1       2.996   2.119   2.213  0.00  0.00    +0.095 S 
ATOM     10  O   UNL     1       4.025   1.265   2.692  0.00  0.00    -0.141 OA
ATOM     11  O   UNL     1       3.264   3.404   1.670  0.00  0.00    -0.141 OA
BRANCH   9  12
ATOM     12  N   UNL     1       1.946   2.347   3.473  0.00  0.00    -0.193 NA
ATOM     13  H   UNL     1       1.042   2.000   3.420  0.00  0.00    +0.145 HD
ATOM     14  H   UNL     1       2.235   2.829   4.264  0.00  0.00    +0.145 HD
ENDBRANCH   9  12
ENDBRANCH   3   9
BRANCH   7  15
ATOM     15  C   UNL     1      -0.630  -2.200  -0.944  0.00  0.00    +0.022 C 
BRANCH  15  16
ATOM     16  N   UNL     1      -0.987  -2.701  -2.278  0.00  0.00    +0.386 N 
ATOM     17  H   UNL     1      -0.967  -3.710  -2.275  0.00  0.00    -0.089 HD
ATOM     18  H   UNL     1      -1.913  -2.384  -2.520  0.00  0.00    -0.089 HD
ATOM     19  H   UNL     1      -0.325  -2.354  -2.955  0.00  0.00    -0.089 HD
ENDBRANCH  15  16
BRANCH  15  20
ATOM     20  C   UNL     1      -1.634  -2.727   0.084  0.00  0.00    +0.088 C 
BRANCH  20  21
ATOM     21  C   UNL     1      -1.518  -4.227   0.177  0.00  0.00    +0.209 C 
ATOM     22  O   UNL     1      -0.712  -4.816  -0.511  0.00  0.00    -0.276 OA
ATOM     23  N   UNL     1      -2.310  -4.913   1.024  0.00  0.00    -0.329 N 
ATOM     24  H   UNL     1      -2.955  -4.441   1.574  0.00  0.00    +0.145 HD
ATOM     25  H   UNL     1      -2.235  -5.878   1.084  0.00  0.00    +0.145 HD
ENDBRANCH  20  21
ENDBRANCH  15  20
ENDBRANCH   7  15
TORSDOF 6
