REMARK  Name = ZINC62082446
REMARK  8 active torsions:
REMARK  status: ('A' for Active; 'I' for Inactive)
REMARK    1  A    between atoms: C_1  and  C_2
REMARK    2  A    between atoms: C_2  and  C_3
REMARK    3  A    between atoms: C_2  and  N_4
REMARK    4  A    between atoms: C_7  and  C_10
REMARK    5  A    between atoms: C_7  and  N_12
REMARK    6  A    between atoms: C_10  and  N_11
REMARK    7  A    between atoms: N_15  and  S_18
REMARK    8  A    between atoms: S_18  and  C_21
REMARK                            x       y       z     vdW  Elec       q    Type
REMARK                         _______ _______ _______ _____ _____    ______ ____
ROOT
ATOM      1  N   UNL     1       0.840  -0.064   1.603  0.00  0.00    +0.381 N 
ATOM      2  C   UNL     1       0.903  -1.495   1.283  0.00  0.00    -0.077 C 
ATOM      3  C   UNL     1       1.619  -2.243   2.409  0.00  0.00    +0.002 C 
ATOM      4  C   UNL     1       0.847  -2.045   3.717  0.00  0.00    +0.003 C 
ATOM      5  C   UNL     1       0.723  -0.546   4.003  0.00  0.00    +0.002 C 
ATOM      6  C   UNL     1       0.040   0.139   2.817  0.00  0.00    -0.077 C 
ATOM      7  H   UNL     1       1.774   0.286   1.754  0.00  0.00    -0.081 HD
ENDROOT
BRANCH   4   8
ATOM      8  N   UNL     1       1.570  -2.697   4.817  0.00  0.00    -0.296 NA
ATOM      9  C   UNL     1       0.813  -2.603   6.073  0.00  0.00    +0.102 C 
ATOM     10  C   UNL     1       1.508  -3.445   7.149  0.00  0.00    +0.124 C 
ATOM     11  N   UNL     1       2.914  -3.022   7.237  0.00  0.00    -0.179 NA
ATOM     12  C   UNL     1       3.701  -2.959   5.996  0.00  0.00    +0.124 C 
ATOM     13  C   UNL     1       2.920  -2.136   4.965  0.00  0.00    +0.102 C 
BRANCH  11  14
ATOM     14  S   UNL     1       3.594  -2.629   8.695  0.00  0.00    +0.029 S 
ATOM     15  O   UNL     1       4.647  -1.731   8.373  0.00  0.00    -0.158 OA
ATOM     16  O   UNL     1       2.502  -2.206   9.501  0.00  0.00    -0.158 OA
ATOM     17  C   UNL     1       4.272  -4.187   9.329  0.00  0.00    +0.215 C 
ENDBRANCH  11  14
ENDBRANCH   4   8
BRANCH   1  19
ATOM     18  C   UNL     1       0.163   2.153   0.814  0.00  0.00    -0.014 C 
ATOM     19  C   UNL     1       0.222   0.660   0.485  0.00  0.00    -0.075 C 
ATOM     20  C   UNL     1       1.054   0.449  -0.782  0.00  0.00    -0.014 C 
ENDBRANCH   1  19
BRANCH   4  21
ATOM     21  C   UNL     1      -0.548  -2.658   3.585  0.00  0.00    -0.064 C 
BRANCH  21  22
ATOM     22  N   UNL     1      -0.430  -4.113   3.420  0.00  0.00    +0.379 N 
ATOM     23  H   UNL     1       0.148  -4.315   2.618  0.00  0.00    -0.090 HD
ATOM     24  H   UNL     1      -0.011  -4.513   4.246  0.00  0.00    -0.090 HD
ATOM     25  H   UNL     1      -1.347  -4.511   3.282  0.00  0.00    -0.090 HD
ENDBRANCH  21  22
ENDBRANCH   4  21
TORSDOF 5
