REMARK  Name = ZINC13568663
REMARK  4 active torsions:
REMARK  status: ('A' for Active; 'I' for Inactive)
REMARK    1  A    between atoms: C_1  and  O_2
REMARK    2  A    between atoms: O_2  and  C_3
REMARK    3  A    between atoms: C_8  and  C_9
REMARK    4  A    between atoms: C_14  and  C_24
REMARK                            x       y       z     vdW  Elec       q    Type
REMARK                         _______ _______ _______ _____ _____    ______ ____
ROOT
ATOM      1  C   UNL     1      -0.559   9.322  -2.199  0.00  0.00    +0.035 C 
ATOM      2  C   UNL     1      -1.194   9.340  -0.809  0.00  0.00    +0.060 C 
ATOM      3  C   UNL     1      -2.282   8.282  -0.725  0.00  0.00    +0.017 C 
ATOM      4  C   UNL     1      -2.163   7.130  -1.405  0.00  0.00    +0.036 C 
ATOM      5  C   UNL     1      -3.144   5.982  -1.383  0.00  0.00    +0.136 C 
ATOM      6  N   UNL     1      -4.413   6.291  -0.759  0.00  0.00    -0.331 N 
ATOM      7  C   UNL     1      -4.492   6.605   0.596  0.00  0.00    +0.049 A 
ATOM      8  C   UNL     1      -5.162   5.787   1.492  0.00  0.00    +0.025 A 
ATOM      9  C   UNL     1      -5.174   6.116   2.836  0.00  0.00    +0.002 A 
ATOM     10  C   UNL     1      -4.522   7.249   3.285  0.00  0.00    +0.002 A 
ATOM     11  C   UNL     1      -3.866   8.079   2.391  0.00  0.00    +0.025 A 
ATOM     12  C   UNL     1      -3.871   7.762   1.044  0.00  0.00    +0.052 A 
ATOM     13  N   UNL     1      -3.324   8.604   0.083  0.00  0.00    -0.316 N 
ATOM     14  C   UNL     1      -1.043   6.908  -2.240  0.00  0.00    +0.163 C 
ATOM     15  O   UNL     1      -0.956   5.851  -2.834  0.00  0.00    -0.292 OA
ATOM     16  C   UNL     1       0.040   7.929  -2.420  0.00  0.00    +0.088 C 
ATOM     17  H   UNL     1      -5.223   6.280  -1.294  0.00  0.00    +0.147 HD
ATOM     18  H   UNL     1      -3.716   9.486  -0.018  0.00  0.00    +0.152 HD
ENDROOT
BRANCH   5  19
ATOM     19  C   UNL     1      -2.516   4.830  -0.643  0.00  0.00    -0.019 A 
ATOM     20  C   UNL     1      -2.237   4.947   0.706  0.00  0.00    +0.009 A 
ATOM     21  C   UNL     1      -1.661   3.893   1.390  0.00  0.00    +0.050 A 
ATOM     22  C   UNL     1      -1.360   2.716   0.724  0.00  0.00    +0.166 A 
ATOM     23  C   UNL     1      -1.641   2.598  -0.635  0.00  0.00    +0.167 A 
ATOM     24  C   UNL     1      -2.219   3.658  -1.314  0.00  0.00    +0.055 A 
ATOM     25  O   UNL     1      -1.257   1.357  -1.054  0.00  0.00    -0.453 OA
ATOM     26  C   UNL     1      -0.366   0.866  -0.035  0.00  0.00    +0.466 C 
ATOM     27  O   UNL     1      -0.796   1.548   1.158  0.00  0.00    -0.453 OA
ENDBRANCH   5  19
BRANCH   1  33
ATOM     28  C   UNL     1       0.461  11.363  -3.238  0.00  0.00    +0.124 A 
ATOM     29  C   UNL     1       1.461  12.323  -3.306  0.00  0.00    +0.046 A 
ATOM     30  C   UNL     1       2.524  12.276  -2.425  0.00  0.00    +0.004 A 
ATOM     31  C   UNL     1       2.589  11.275  -1.473  0.00  0.00    +0.001 A 
ATOM     32  C   UNL     1       1.592  10.321  -1.399  0.00  0.00    +0.007 A 
ATOM     33  C   UNL     1       0.527  10.364  -2.278  0.00  0.00    -0.002 A 
BRANCH  28  35
ATOM     34  C   UNL     1      -0.584  12.462  -5.069  0.00  0.00    +0.277 C 
ATOM     35  O   UNL     1      -0.582  11.405  -4.107  0.00  0.00    -0.495 OA
ENDBRANCH  28  35
ENDBRANCH   1  33
TORSDOF 3
