REMARK  Name = ZINC34676881
REMARK  6 active torsions:
REMARK  status: ('A' for Active; 'I' for Inactive)
REMARK    1  A    between atoms: C_1  and  C_2
REMARK    2  A    between atoms: C_2  and  N_3
REMARK    3  A    between atoms: N_3  and  C_4
REMARK    4  A    between atoms: N_14  and  C_17
REMARK    5  A    between atoms: N_25  and  S_27
REMARK    6  A    between atoms: S_27  and  C_30
REMARK                            x       y       z     vdW  Elec       q    Type
REMARK                         _______ _______ _______ _____ _____    ______ ____
ROOT
ATOM      1  N   UNL     1       0.688  -0.479  -1.221  0.00  0.00    -0.318 N 
ATOM      2  C   UNL     1       1.268   0.844  -0.977  0.00  0.00    +0.130 C 
ATOM      3  C   UNL     1      -0.033  -0.716  -2.380  0.00  0.00    +0.131 A 
ATOM      4  C   UNL     1       0.592  -1.273  -3.502  0.00  0.00    +0.027 A 
ATOM      5  C   UNL     1      -0.157  -1.499  -4.630  0.00  0.00    +0.028 A 
ATOM      6  N   UNL     1      -1.446  -1.167  -4.622  0.00  0.00    -0.331 N 
ATOM      7  C   UNL     1      -2.013  -0.639  -3.550  0.00  0.00    +0.198 A 
ATOM      8  N   UNL     1      -1.327  -0.421  -2.438  0.00  0.00    -0.201 NA
ATOM      9  N   UNL     1      -3.357  -0.312  -3.589  0.00  0.00    -0.298 N 
ATOM     10  C   UNL     1      -4.180  -0.664  -4.755  0.00  0.00    +0.127 C 
ATOM     11  C   UNL     1      -5.384  -1.484  -4.275  0.00  0.00    +0.124 C 
ATOM     12  N   UNL     1      -6.015  -0.778  -3.151  0.00  0.00    -0.327 N 
ATOM     13  C   UNL     1      -5.192  -0.425  -1.985  0.00  0.00    +0.124 C 
ATOM     14  C   UNL     1      -3.989   0.390  -2.462  0.00  0.00    +0.127 C 
ATOM     15  C   UNL     1       0.410  -2.121  -5.877  0.00  0.00    +0.071 C 
ATOM     16  C   UNL     1       1.933  -1.994  -5.901  0.00  0.00    +0.116 C 
ATOM     17  N   UNL     1       2.446  -2.408  -4.585  0.00  0.00    -0.172 NA
ATOM     18  C   UNL     1       2.061  -1.595  -3.425  0.00  0.00    +0.149 C 
ATOM     19  H   UNL     1      -1.981  -1.315  -5.418  0.00  0.00    +0.168 HD
ENDROOT
BRANCH  12  20
ATOM     20  C   UNL     1      -7.371  -0.448  -3.190  0.00  0.00    +0.030 A 
ATOM     21  C   UNL     1      -8.112  -0.682  -4.341  0.00  0.00    +0.023 A 
ATOM     22  C   UNL     1      -9.453  -0.354  -4.376  0.00  0.00    +0.002 A 
ATOM     23  C   UNL     1     -10.059   0.206  -3.267  0.00  0.00    +0.000 A 
ATOM     24  C   UNL     1      -9.324   0.441  -2.119  0.00  0.00    +0.002 A 
ATOM     25  C   UNL     1      -7.984   0.110  -2.075  0.00  0.00    +0.023 A 
ENDBRANCH  12  20
BRANCH  17  26
ATOM     26  S   UNL     1       3.420  -3.737  -4.419  0.00  0.00    +0.061 S 
ATOM     27  O   UNL     1       3.277  -4.180  -3.076  0.00  0.00    -0.153 OA
ATOM     28  O   UNL     1       3.152  -4.578  -5.532  0.00  0.00    -0.153 OA
BRANCH  26  29
ATOM     29  C   UNL     1       5.085  -3.188  -4.593  0.00  0.00    +0.105 A 
ATOM     30  C   UNL     1       5.676  -3.158  -5.842  0.00  0.00    +0.028 A 
ATOM     31  C   UNL     1       6.983  -2.727  -5.978  0.00  0.00    +0.002 A 
ATOM     32  C   UNL     1       7.698  -2.326  -4.866  0.00  0.00    +0.000 A 
ATOM     33  C   UNL     1       7.107  -2.354  -3.617  0.00  0.00    +0.002 A 
ATOM     34  C   UNL     1       5.799  -2.781  -3.481  0.00  0.00    +0.028 A 
ENDBRANCH  26  29
ENDBRANCH  17  26
BRANCH   1  36
ATOM     35  C   UNL     1      -0.278  -1.516   0.772  0.00  0.00    +0.024 C 
ATOM     36  C   UNL     1       0.870  -1.551  -0.239  0.00  0.00    +0.103 C 
ENDBRANCH   1  36
TORSDOF 4
