REMARK  Name = ZINC23446489
REMARK  7 active torsions:
REMARK  status: ('A' for Active; 'I' for Inactive)
REMARK    1  A    between atoms: C_4  and  C_7
REMARK    2  A    between atoms: C_7  and  C_9
REMARK    3  A    between atoms: C_7  and  O_17
REMARK    4  A    between atoms: O_17  and  C_18
REMARK    5  A    between atoms: C_18  and  C_19
REMARK    6  A    between atoms: C_19  and  N_20
REMARK    7  A    between atoms: N_28  and  C_29
REMARK                            x       y       z     vdW  Elec       q    Type
REMARK                         _______ _______ _______ _____ _____    ______ ____
ROOT
ATOM      1  N   UNL     1      -3.144   1.017  -7.800  0.00  0.00    +0.383 N 
ATOM      2  C   UNL     1      -3.552   2.428  -7.824  0.00  0.00    -0.059 C 
ATOM      3  C   UNL     1      -2.425   3.291  -7.246  0.00  0.00    +0.091 C 
ATOM      4  N   UNL     1      -2.071   2.769  -5.918  0.00  0.00    -0.289 N 
ATOM      5  C   UNL     1      -1.776   1.333  -5.791  0.00  0.00    +0.091 C 
ATOM      6  C   UNL     1      -2.934   0.546  -6.425  0.00  0.00    -0.059 C 
ATOM      7  C   UNL     1      -2.011   3.585  -4.847  0.00  0.00    +0.306 C 
ATOM      8  O   UNL     1      -2.350   4.748  -4.949  0.00  0.00    -0.252 OA
ATOM      9  N   UNL     1      -1.576   3.111  -3.662  0.00  0.00    -0.266 N 
ATOM     10  H   UNL     1      -1.220   2.073  -3.582  0.00  0.00    +0.156 HD
ATOM     11  H   UNL     1      -2.184   0.937  -8.332  0.00  0.00    -0.082 HD
ENDROOT
BRANCH   9  12
ATOM     12  C   UNL     1      -1.578   3.941  -2.533  0.00  0.00    +0.080 A 
ATOM     13  C   UNL     1      -1.430   5.312  -2.678  0.00  0.00    +0.065 A 
ATOM     14  C   UNL     1      -1.433   6.129  -1.562  0.00  0.00    +0.126 A 
ATOM     15  C   UNL     1      -1.580   5.579  -0.300  0.00  0.00    +0.048 A 
ATOM     16  C   UNL     1      -1.726   4.212  -0.149  0.00  0.00    +0.024 A 
ATOM     17  C   UNL     1      -1.727   3.389  -1.262  0.00  0.00    +0.150 A 
ATOM     18  O   UNL     1      -1.874   2.043  -1.127  0.00  0.00    -0.464 OA
ATOM     19  C   UNL     1      -1.660   1.496   0.177  0.00  0.00    +0.395 C 
ATOM     20  O   UNL     1      -2.376   2.289   1.132  0.00  0.00    -0.339 OA
ATOM     21  C   UNL     1      -1.879   3.627   1.233  0.00  0.00    +0.202 C 
ATOM     22  F   UNL     1      -1.290   7.465  -1.703  0.00  0.00    -0.205 F 
ENDBRANCH   9  12
BRANCH   1  23
ATOM     23  C   UNL     1      -4.122   0.174  -8.502  0.00  0.00    -0.050 C 
BRANCH  23  24
ATOM     24  C   UNL     1      -5.348  -0.035  -7.610  0.00  0.00    +0.142 C 
BRANCH  24  25
ATOM     25  O   UNL     1      -6.030   1.209  -7.439  0.00  0.00    -0.369 OA
BRANCH  25  26
ATOM     26  C   UNL     1      -7.196   1.124  -6.617  0.00  0.00    +0.178 C 
BRANCH  26  27
ATOM     27  C   UNL     1      -7.407   2.437  -5.908  0.00  0.00    -0.012 A 
ATOM     28  C   UNL     1      -7.182   3.627  -6.575  0.00  0.00    +0.009 A 
ATOM     29  C   UNL     1      -7.380   4.832  -5.928  0.00  0.00    +0.041 A 
ATOM     30  C   UNL     1      -7.794   4.848  -4.607  0.00  0.00    +0.158 A 
ATOM     31  C   UNL     1      -8.015   3.655  -3.937  0.00  0.00    +0.159 A 
ATOM     32  C   UNL     1      -7.821   2.450  -4.589  0.00  0.00    +0.047 A 
ATOM     33  F   UNL     1      -8.420   3.669  -2.648  0.00  0.00    -0.202 F 
ATOM     34  F   UNL     1      -7.982   6.026  -3.972  0.00  0.00    -0.202 F 
ENDBRANCH  26  27
BRANCH  26  38
ATOM     35  C   UNL     1     -10.596   0.261  -9.055  0.00  0.00    +0.000 A 
ATOM     36  C   UNL     1     -10.509  -0.264  -7.779  0.00  0.00    +0.000 A 
ATOM     37  C   UNL     1      -9.409   0.015  -6.990  0.00  0.00    +0.006 A 
ATOM     38  C   UNL     1      -8.395   0.819  -7.477  0.00  0.00    -0.015 A 
ATOM     39  C   UNL     1      -8.485   1.348  -8.752  0.00  0.00    +0.006 A 
ATOM     40  C   UNL     1      -9.582   1.065  -9.542  0.00  0.00    +0.000 A 
ENDBRANCH  26  38
ENDBRANCH  25  26
ENDBRANCH  24  25
ENDBRANCH  23  24
ENDBRANCH   1  23
TORSDOF 7
