REMARK  Name = ZINC50169144
REMARK  9 active torsions:
REMARK  status: ('A' for Active; 'I' for Inactive)
REMARK    1  A    between atoms: C_1  and  C_2
REMARK    2  A    between atoms: C_2  and  C_3
REMARK    3  A    between atoms: C_3  and  N_4
REMARK    4  A    between atoms: C_5  and  C_7
REMARK    5  A    between atoms: C_7  and  C_8
REMARK    6  A    between atoms: C_8  and  N_9
REMARK    7  A    between atoms: N_12  and  C_13
REMARK    8  A    between atoms: C_13  and  C_14
REMARK    9  A    between atoms: C_18  and  C_23
REMARK                            x       y       z     vdW  Elec       q    Type
REMARK                         _______ _______ _______ _____ _____    ______ ____
ROOT
ATOM      1  N   UNL     1       2.078  -6.088  -3.560  0.00  0.00    -0.299 N 
ATOM      2  C   UNL     1       2.660  -6.748  -4.580  0.00  0.00    +0.300 C 
ATOM      3  O   UNL     1       3.170  -6.128  -5.494  0.00  0.00    -0.253 OA
ATOM      4  N   UNL     1       2.679  -8.096  -4.587  0.00  0.00    -0.294 N 
ATOM      5  H   UNL     1       1.671  -6.582  -2.831  0.00  0.00    +0.150 HD
ATOM      6  H   UNL     1       2.272  -8.591  -3.859  0.00  0.00    +0.151 HD
ENDROOT
BRANCH   1   7
ATOM      7  C   UNL     1       2.058  -4.623  -3.552  0.00  0.00    +0.115 C 
BRANCH   7   8
ATOM      8  C   UNL     1       1.341  -4.130  -2.293  0.00  0.00    +0.114 C 
BRANCH   8  10
ATOM      9  N   UNL     1       0.738  -1.962  -1.265  0.00  0.00    -0.315 N 
ATOM     10  C   UNL     1       1.321  -2.623  -2.285  0.00  0.00    +0.215 C 
ATOM     11  O   UNL     1       1.829  -2.004  -3.196  0.00  0.00    -0.276 OA
ATOM     12  H   UNL     1       0.332  -2.457  -0.536  0.00  0.00    +0.149 HD
BRANCH   9  13
ATOM     13  C   UNL     1       0.718  -0.497  -1.257  0.00  0.00    +0.104 C 
BRANCH  13  15
ATOM     14  C   UNL     1      -0.019   1.526   0.010  0.00  0.00    +0.005 C 
ATOM     15  C   UNL     1       0.002  -0.004   0.002  0.00  0.00    +0.015 C 
ENDBRANCH  13  15
ENDBRANCH   9  13
ENDBRANCH   8  10
ENDBRANCH   7   8
ENDBRANCH   1   7
BRANCH   4  16
ATOM     16  C   UNL     1       3.312  -8.814  -5.696  0.00  0.00    +0.160 C 
BRANCH  16  17
ATOM     17  C   UNL     1       3.197 -10.298  -5.465  0.00  0.00    +0.051 A 
ATOM     18  C   UNL     1       4.133 -11.080  -4.883  0.00  0.00    +0.115 A 
ATOM     19  N   UNL     1       3.639 -12.356  -4.865  0.00  0.00    -0.308 N 
ATOM     20  C   UNL     1       4.146 -13.536  -4.404  0.00  0.00    +0.096 A 
ATOM     21  C   UNL     1       3.436 -14.679  -4.511  0.00  0.00    -0.034 A 
ATOM     22  C   UNL     1       2.161 -14.668  -5.101  0.00  0.00    +0.008 A 
ATOM     23  C   UNL     1       1.644 -13.498  -5.565  0.00  0.00    +0.045 A 
ATOM     24  C   UNL     1       2.398 -12.314  -5.445  0.00  0.00    +0.115 A 
ATOM     25  N   UNL     1       2.151 -11.059  -5.795  0.00  0.00    -0.342 N 
ATOM     26  C   UNL     1       4.013 -15.972  -3.996  0.00  0.00    +0.045 C 
ATOM     27  H   UNL     1       1.340 -10.745  -6.224  0.00  0.00    +0.167 HD
ENDBRANCH  16  17
ENDBRANCH   4  16
TORSDOF 7
