REMARK  Name = ZINC09128227
REMARK  4 active torsions:
REMARK  status: ('A' for Active; 'I' for Inactive)
REMARK    1  A    between atoms: C_6  and  S_11
REMARK    2  A    between atoms: S_11  and  N_14
REMARK    3  A    between atoms: C_22  and  C_24
REMARK    4  A    between atoms: C_24  and  N_60
REMARK                            x       y       z     vdW  Elec       q    Type
REMARK                         _______ _______ _______ _____ _____    ______ ____
ROOT
ATOM      1  N   UNL     1      -1.983   2.430   1.607  0.00  0.00    -0.199 N 
ATOM      2  C   UNL     1      -1.213   3.244   2.418  0.00  0.00    +0.150 A 
ATOM      3  C   UNL     1      -1.626   3.535   3.748  0.00  0.00    +0.052 A 
ATOM      4  C   UNL     1      -2.819   3.071   4.459  0.00  0.00    -0.025 A 
ATOM      5  C   UNL     1      -2.975   3.491   5.730  0.00  0.00    -0.004 A 
ATOM      6  S   UNL     1      -1.562   4.511   6.057  0.00  0.00    -0.073 S 
ATOM      7  C   UNL     1      -0.760   4.370   4.481  0.00  0.00    +0.114 A 
ATOM      8  N   UNL     1       0.349   4.849   3.952  0.00  0.00    -0.227 NA
ATOM      9  C   UNL     1       0.677   4.548   2.710  0.00  0.00    +0.116 A 
ATOM     10  N   UNL     1      -0.084   3.766   1.966  0.00  0.00    -0.217 NA
ATOM     11  C   UNL     1      -4.102   3.164   6.662  0.00  0.00    +0.043 C 
ATOM     12  C   UNL     1      -5.255   2.572   5.840  0.00  0.00    +0.005 C 
ATOM     13  C   UNL     1      -4.691   1.499   4.904  0.00  0.00    +0.005 C 
ATOM     14  C   UNL     1      -3.852   2.156   3.807  0.00  0.00    +0.037 C 
ATOM     15  H   UNL     1      -2.914   2.268   1.826  0.00  0.00    +0.175 HD
ENDROOT
BRANCH   1  16
ATOM     16  S   UNL     1      -1.317   1.734   0.260  0.00  0.00    +0.074 S 
ATOM     17  O   UNL     1      -0.643   2.769  -0.442  0.00  0.00    -0.150 OA
ATOM     18  O   UNL     1      -2.338   0.947  -0.338  0.00  0.00    -0.150 OA
BRANCH  16  24
ATOM     19  C   UNL     1       2.563  -3.318   2.369  0.00  0.00    +0.001 A 
ATOM     20  C   UNL     1       1.253  -3.767   2.209  0.00  0.00    +0.001 A 
ATOM     21  C   UNL     1       0.270  -2.924   1.788  0.00  0.00    +0.008 A 
ATOM     22  C   UNL     1       0.577  -1.581   1.511  0.00  0.00    -0.016 A 
ATOM     23  C   UNL     1      -0.411  -0.682   1.074  0.00  0.00    +0.037 A 
ATOM     24  C   UNL     1      -0.077   0.611   0.814  0.00  0.00    +0.109 A 
ATOM     25  C   UNL     1       1.233   1.060   0.974  0.00  0.00    +0.029 A 
ATOM     26  C   UNL     1       2.216   0.218   1.395  0.00  0.00    +0.010 A 
ATOM     27  C   UNL     1       1.909  -1.125   1.673  0.00  0.00    -0.018 A 
ATOM     28  C   UNL     1       2.897  -2.025   2.109  0.00  0.00    +0.008 A 
ENDBRANCH  16  24
ENDBRANCH   1  16
BRANCH   9  29
ATOM     29  C   UNL     1       1.950   5.107   2.128  0.00  0.00    -0.001 C 
BRANCH  29  35
ATOM     30  C   UNL     1       0.802   6.224   0.311  0.00  0.00    -0.050 C 
ATOM     31  C   UNL     1       0.486   7.595  -0.291  0.00  0.00    +0.141 C 
ATOM     32  O   UNL     1       1.710   8.261  -0.615  0.00  0.00    -0.383 OA
ATOM     33  C   UNL     1       2.578   8.448   0.506  0.00  0.00    +0.141 C 
ATOM     34  C   UNL     1       2.915   7.085   1.117  0.00  0.00    -0.050 C 
ATOM     35  N   UNL     1       1.656   6.414   1.503  0.00  0.00    +0.387 N 
ATOM     36  H   UNL     1       1.157   7.004   2.180  0.00  0.00    -0.081 HD
ENDBRANCH  29  35
ENDBRANCH   9  29
TORSDOF 4
