REMARK  Name = ZINC09485414
REMARK  2 active torsions:
REMARK  status: ('A' for Active; 'I' for Inactive)
REMARK    1  A    between atoms: C_7  and  C_11
REMARK    2  A    between atoms: N_12  and  N_13
REMARK                            x       y       z     vdW  Elec       q    Type
REMARK                         _______ _______ _______ _____ _____    ______ ____
ROOT
ATOM      1  N   UNL     1      -1.541  -4.104  -0.049  0.00  0.00    -0.198 N 
ATOM      2  C   UNL     1      -2.949  -3.864  -0.112  0.00  0.00    +0.136 C 
ATOM      3  C   UNL     1      -3.567  -2.506  -0.406  0.00  0.00    +0.191 C 
ATOM      4  S   UNL     1      -5.316  -3.012  -0.747  0.00  0.00    -0.028 S 
ATOM      5  O   UNL     1      -5.673  -2.591  -2.056  0.00  0.00    -0.174 OA
ATOM      6  O   UNL     1      -6.130  -2.637   0.356  0.00  0.00    -0.174 OA
ATOM      7  C   UNL     1      -5.096  -4.854  -0.741  0.00  0.00    +0.182 C 
ATOM      8  C   UNL     1      -3.597  -4.896  -1.110  0.00  0.00    +0.099 C 
ATOM      9  S   UNL     1      -2.699  -6.340  -0.419  0.00  0.00    -0.084 S 
ATOM     10  C   UNL     1      -1.180  -5.460  -0.030  0.00  0.00    +0.148 C 
ATOM     11  N   UNL     1      -0.004  -5.970   0.217  0.00  0.00    -0.380 N 
ATOM     12  H   UNL     1       0.726  -5.394   0.491  0.00  0.00    +0.158 HD
ATOM     13  H   UNL     1       0.139  -6.925   0.127  0.00  0.00    +0.158 HD
ENDROOT
BRANCH   1  15
ATOM     14  C   UNL     1       0.222  -2.904  -1.008  0.00  0.00    +0.140 C 
ATOM     15  N   UNL     1      -0.597  -3.070  -0.014  0.00  0.00    -0.185 NA
BRANCH  14  22
ATOM     16  C   UNL     1       0.950   0.628   1.966  0.00  0.00    +0.001 A 
ATOM     17  C   UNL     1       1.940   1.497   1.530  0.00  0.00    +0.002 A 
ATOM     18  C   UNL     1       2.592   1.276   0.337  0.00  0.00    +0.026 A 
ATOM     19  C   UNL     1       2.257   0.171  -0.440  0.00  0.00    +0.047 A 
ATOM     20  C   UNL     1       1.254  -0.705   0.008  0.00  0.00    +0.008 A 
ATOM     21  C   UNL     1       0.607  -0.464   1.218  0.00  0.00    +0.010 A 
ATOM     22  C   UNL     1       1.140  -1.753  -1.022  0.00  0.00    +0.020 A 
ATOM     23  C   UNL     1       2.048  -1.449  -1.987  0.00  0.00    +0.093 A 
ATOM     24  N   UNL     1       2.715  -0.308  -1.649  0.00  0.00    -0.360 N 
ATOM     25  H   UNL     1       3.411   0.106  -2.182  0.00  0.00    +0.165 HD
ENDBRANCH  14  22
ENDBRANCH   1  15
TORSDOF 2
