REMARK  Name = ZINC45679044
REMARK  6 active torsions:
REMARK  status: ('A' for Active; 'I' for Inactive)
REMARK    1  A    between atoms: C_1  and  C_2
REMARK    2  A    between atoms: C_5  and  C_7
REMARK    3  A    between atoms: C_7  and  N_8
REMARK    4  A    between atoms: N_11  and  N_12
REMARK    5  A    between atoms: C_13  and  C_15
REMARK    6  A    between atoms: N_19  and  C_20
REMARK                            x       y       z     vdW  Elec       q    Type
REMARK                         _______ _______ _______ _____ _____    ______ ____
ROOT
ATOM      1  N   UNL     1       0.269  -4.828  -1.457  0.00  0.00    -0.294 N 
ATOM      2  C   UNL     1       0.665  -6.090  -1.717  0.00  0.00    +0.316 C 
ATOM      3  O   UNL     1       0.735  -6.903  -0.816  0.00  0.00    -0.251 OA
ATOM      4  N   UNL     1       0.983  -6.450  -2.977  0.00  0.00    -0.218 N 
ATOM      5  H   UNL     1       0.213  -4.179  -2.176  0.00  0.00    +0.151 HD
ATOM      6  H   UNL     1       1.268  -7.359  -3.164  0.00  0.00    +0.174 HD
ENDROOT
BRANCH   4   7
ATOM      7  N   UNL     1       0.902  -5.513  -4.015  0.00  0.00    -0.228 N 
ATOM      8  C   UNL     1       1.220  -5.874  -5.274  0.00  0.00    +0.277 C 
ATOM      9  O   UNL     1       1.675  -6.981  -5.494  0.00  0.00    -0.267 OA
ATOM     10  H   UNL     1       0.617  -4.605  -3.828  0.00  0.00    +0.173 HD
BRANCH   8  11
ATOM     11  C   UNL     1       1.018  -4.932  -6.380  0.00  0.00    +0.107 A 
ATOM     12  C   UNL     1       0.592  -3.625  -6.269  0.00  0.00    +0.047 A 
ATOM     13  C   UNL     1       0.540  -3.098  -7.564  0.00  0.00    +0.036 A 
ATOM     14  C   UNL     1       0.926  -4.072  -8.424  0.00  0.00    +0.101 A 
ATOM     15  N   UNL     1       1.224  -5.189  -7.716  0.00  0.00    -0.345 N 
ATOM     16  C   UNL     1       1.686  -6.460  -8.280  0.00  0.00    +0.149 C 
ATOM     17 BR   UNL     1       0.021  -1.341  -8.032  0.00  0.00    -0.049 Br
ENDBRANCH   8  11
ENDBRANCH   4   7
BRANCH   1  18
ATOM     18  C   UNL     1      -0.076  -4.436  -0.088  0.00  0.00    +0.148 C 
BRANCH  18  23
ATOM     19  C   UNL     1      -0.645   1.195   0.146  0.00  0.00    +0.051 C 
ATOM     20  C   UNL     1      -0.754  -0.305   0.043  0.00  0.00    -0.013 A 
ATOM     21  C   UNL     1      -1.853  -1.068  -0.173  0.00  0.00    +0.011 A 
ATOM     22  C   UNL     1      -1.714  -2.442  -0.231  0.00  0.00    +0.013 A 
ATOM     23  C   UNL     1      -0.483  -2.986  -0.069  0.00  0.00    +0.007 A 
ATOM     24  S   UNL     1       0.532  -1.536   0.167  0.00  0.00    -0.097 S 
ENDBRANCH  18  23
ENDBRANCH   1  18
TORSDOF 4
