REMARK  Name = ZINC35724528
REMARK  5 active torsions:
REMARK  status: ('A' for Active; 'I' for Inactive)
REMARK    1  A    between atoms: C_4  and  C_7
REMARK    2  A    between atoms: C_11  and  C_22
REMARK    3  A    between atoms: C_13  and  S_16
REMARK    4  A    between atoms: S_16  and  C_17
REMARK    5  A    between atoms: C_22  and  N_23
REMARK                            x       y       z     vdW  Elec       q    Type
REMARK                         _______ _______ _______ _____ _____    ______ ____
ROOT
ATOM      1  C   UNL     1       3.711  -0.707  -0.038  0.00  0.00    +0.020 C 
ATOM      2  C   UNL     1       3.817  -1.592   1.206  0.00  0.00    +0.008 C 
ATOM      3  C   UNL     1       5.152  -2.339   1.188  0.00  0.00    +0.003 C 
ATOM      4  C   UNL     1       5.232  -3.211  -0.066  0.00  0.00    -0.015 C 
ATOM      5  C   UNL     1       5.126  -2.326  -1.310  0.00  0.00    +0.055 C 
ATOM      6  C   UNL     1       3.791  -1.579  -1.292  0.00  0.00    +0.023 C 
ENDROOT
BRANCH   1  10
ATOM      7  C   UNL     1      -0.017   1.378   0.010  0.00  0.00    +0.000 A 
ATOM      8  C   UNL     1       1.171   2.086   0.002  0.00  0.00    +0.000 A 
ATOM      9  C   UNL     1       2.377   1.411  -0.013  0.00  0.00    +0.004 A 
ATOM     10  C   UNL     1       2.396   0.029  -0.020  0.00  0.00    -0.044 A 
ATOM     11  C   UNL     1       1.208  -0.679  -0.012  0.00  0.00    +0.004 A 
ATOM     12  C   UNL     1       0.002  -0.004   0.002  0.00  0.00    +0.000 A 
ENDBRANCH   1  10
BRANCH   5  13
ATOM     13  S   UNL     1       6.489  -1.129  -1.318  0.00  0.00    -0.093 S 
BRANCH  13  14
ATOM     14  C   UNL     1       6.316  -0.297  -2.862  0.00  0.00    +0.159 A 
ATOM     15  N   UNL     1       5.417  -0.461  -3.824  0.00  0.00    -0.135 NA
ATOM     16  N   UNL     1       5.440   0.229  -4.880  0.00  0.00    -0.149 NA
ATOM     17  C   UNL     1       6.354   1.155  -5.094  0.00  0.00    +0.182 A 
ATOM     18  S   UNL     1       7.297   1.018  -3.578  0.00  0.00    -0.048 S 
ENDBRANCH  13  14
ENDBRANCH   5  13
BRANCH   4  19
ATOM     19  C   UNL     1       6.567  -3.958  -0.084  0.00  0.00    -0.082 C 
BRANCH  19  20
ATOM     20  N   UNL     1       6.619  -4.896   1.046  0.00  0.00    +0.378 N 
ATOM     21  H   UNL     1       5.862  -5.558   0.967  0.00  0.00    -0.090 HD
ATOM     22  H   UNL     1       7.500  -5.388   1.034  0.00  0.00    -0.090 HD
ATOM     23  H   UNL     1       6.531  -4.385   1.911  0.00  0.00    -0.090 HD
ENDBRANCH  19  20
ENDBRANCH   4  19
TORSDOF 5
