REMARK  Name = ZINC38768793
REMARK  11 active torsions:
REMARK  status: ('A' for Active; 'I' for Inactive)
REMARK    1  A    between atoms: C_1  and  C_2
REMARK    2  A    between atoms: C_3  and  C_25
REMARK    3  A    between atoms: C_4  and  C_8
REMARK    4  A    between atoms: C_11  and  O_15
REMARK    5  A    between atoms: C_13  and  O_14
REMARK    6  A    between atoms: O_15  and  C_16
REMARK    7  A    between atoms: C_16  and  C_17
REMARK    8  A    between atoms: C_28  and  O_33
REMARK    9  A    between atoms: C_29  and  O_31
REMARK   10  A    between atoms: O_31  and  C_32
REMARK   11  A    between atoms: O_33  and  C_34
REMARK                            x       y       z     vdW  Elec       q    Type
REMARK                         _______ _______ _______ _____ _____    ______ ____
ROOT
ATOM      1  C   UNL     1      -0.966  -2.939  -1.248  0.00  0.00    +0.022 A 
ATOM      2  C   UNL     1      -0.098  -3.061  -2.316  0.00  0.00    +0.013 A 
ATOM      3  C   UNL     1      -0.490  -3.739  -3.454  0.00  0.00    +0.046 A 
ATOM      4  C   UNL     1      -1.758  -4.298  -3.528  0.00  0.00    +0.124 A 
ATOM      5  C   UNL     1      -2.631  -4.177  -2.458  0.00  0.00    +0.091 A 
ATOM      6  C   UNL     1      -2.232  -3.502  -1.314  0.00  0.00    +0.126 A 
ENDROOT
BRANCH   1  10
ATOM      7  C   UNL     1      -0.018   1.503   0.010  0.00  0.00    +0.068 C 
ATOM      8  C   UNL     1       0.002  -0.004   0.002  0.00  0.00    +0.064 C 
ATOM      9  C   UNL     1      -1.101  -0.791   0.003  0.00  0.00    +0.011 C 
ATOM     10  C   UNL     1      -0.535  -2.200  -0.007  0.00  0.00    +0.164 C 
ATOM     11  N   UNL     1       0.920  -1.969  -0.013  0.00  0.00    -0.297 N 
ATOM     12  N   UNL     1       1.112  -0.751  -0.013  0.00  0.00    -0.182 NA
ATOM     13  H   UNL     1       1.606  -2.654  -0.020  0.00  0.00    +0.183 HD
BRANCH   9  14
ATOM     14  C   UNL     1      -2.512  -0.378   0.012  0.00  0.00    -0.014 A 
ATOM     15  C   UNL     1      -3.322  -0.672   1.115  0.00  0.00    +0.012 A 
ATOM     16  C   UNL     1      -4.644  -0.284   1.121  0.00  0.00    +0.050 A 
ATOM     17  C   UNL     1      -5.176   0.400   0.036  0.00  0.00    +0.162 A 
ATOM     18  C   UNL     1      -4.375   0.697  -1.066  0.00  0.00    +0.162 A 
ATOM     19  C   UNL     1      -3.048   0.316  -1.079  0.00  0.00    +0.057 A 
BRANCH  18  20
ATOM     20  O   UNL     1      -4.900   1.367  -2.127  0.00  0.00    -0.491 OA
ATOM     21  C   UNL     1      -4.023   1.639  -3.221  0.00  0.00    +0.277 C 
ENDBRANCH  18  20
BRANCH  17  22
ATOM     22  O   UNL     1      -6.480   0.780   0.048  0.00  0.00    -0.491 OA
ATOM     23  C   UNL     1      -7.244   0.443   1.208  0.00  0.00    +0.277 C 
ENDBRANCH  17  22
ENDBRANCH   9  14
ENDBRANCH   1  10
BRANCH   6  24
ATOM     24  O   UNL     1      -3.084  -3.387  -0.261  0.00  0.00    -0.506 OA
ATOM     25  H   UNL     1      -3.647  -2.602  -0.294  0.00  0.00    +0.292 HD
ENDBRANCH   6  24
BRANCH   4  26
ATOM     26  O   UNL     1      -2.143  -4.964  -4.648  0.00  0.00    -0.487 OA
BRANCH  26  27
ATOM     27  C   UNL     1      -1.193  -5.049  -5.712  0.00  0.00    +0.264 C 
BRANCH  27  28
ATOM     28  C   UNL     1      -1.793  -5.817  -6.861  0.00  0.00    -0.009 A 
ATOM     29  C   UNL     1      -1.649  -7.191  -6.925  0.00  0.00    +0.008 A 
ATOM     30  C   UNL     1      -2.198  -7.896  -7.979  0.00  0.00    +0.022 A 
ATOM     31  C   UNL     1      -2.893  -7.227  -8.971  0.00  0.00    +0.059 A 
ATOM     32  C   UNL     1      -3.038  -5.852  -8.907  0.00  0.00    +0.060 A 
ATOM     33  C   UNL     1      -2.491  -5.148  -7.849  0.00  0.00    +0.028 A 
ATOM     34 CL   UNL     1      -3.909  -5.012 -10.152  0.00  0.00    -0.082 Cl
ATOM     35 CL   UNL     1      -3.583  -8.113 -10.295  0.00  0.00    -0.082 Cl
ENDBRANCH  27  28
ENDBRANCH  26  27
ENDBRANCH   4  26
TORSDOF 8
