REMARK  Name = ZINC16292698
REMARK  11 active torsions:
REMARK  status: ('A' for Active; 'I' for Inactive)
REMARK    1  A    between atoms: C_1  and  C_2
REMARK    2  A    between atoms: C_5  and  N_8
REMARK    3  A    between atoms: C_12  and  N_13
REMARK    4  A    between atoms: N_13  and  C_14
REMARK    5  A    between atoms: C_17  and  C_36
REMARK    6  A    between atoms: C_18  and  N_20
REMARK    7  A    between atoms: N_20  and  C_21
REMARK    8  A    between atoms: C_23  and  C_35
REMARK    9  A    between atoms: N_25  and  C_28
REMARK   10  A    between atoms: C_31  and  C_34
REMARK   11  A    between atoms: C_37  and  C_39
REMARK                            x       y       z     vdW  Elec       q    Type
REMARK                         _______ _______ _______ _____ _____    ______ ____
ROOT
ATOM      1  C   UNL     1       0.114  -8.585   3.470  0.00  0.00    +0.033 A 
ATOM      2  C   UNL     1       0.136  -9.827   2.846  0.00  0.00    +0.023 A 
ATOM      3  C   UNL     1       0.150 -10.982   3.603  0.00  0.00    +0.007 A 
ATOM      4  C   UNL     1       0.143 -10.908   4.983  0.00  0.00    -0.029 A 
ATOM      5  C   UNL     1       0.122  -9.670   5.614  0.00  0.00    +0.036 A 
ATOM      6  C   UNL     1       0.114  -8.507   4.856  0.00  0.00    +0.046 A 
ATOM      7  C   UNL     1       0.159 -12.171   5.804  0.00  0.00    +0.045 C 
ENDROOT
BRANCH   1   8
ATOM      8  N   UNL     1       0.100  -7.417   2.704  0.00  0.00    -0.320 N 
ATOM      9  H   UNL     1       0.089  -6.550   3.140  0.00  0.00    +0.152 HD
BRANCH   8  14
ATOM     10  N   UNL     1       0.058  -4.171  -0.021  0.00  0.00    -0.156 N 
ATOM     11  C   UNL     1       0.069  -4.949   1.080  0.00  0.00    +0.273 C 
ATOM     12  O   UNL     1       0.064  -4.577   2.242  0.00  0.00    -0.268 OA
ATOM     13  C   UNL     1       0.086  -6.336   0.597  0.00  0.00    +0.075 C 
ATOM     14  C   UNL     1       0.101  -7.494   1.356  0.00  0.00    +0.087 C 
ATOM     15  C   UNL     1       0.085  -6.227  -0.870  0.00  0.00    +0.070 C 
ATOM     16  N   UNL     1       0.062  -4.964  -1.168  0.00  0.00    -0.176 NA
ATOM     17  C   UNL     1       0.099  -7.373  -1.848  0.00  0.00    +0.068 C 
BRANCH  10  22
ATOM     18  C   UNL     1      -0.018   1.503   0.010  0.00  0.00    +0.044 C 
ATOM     19  C   UNL     1       0.002  -0.004   0.002  0.00  0.00    -0.050 A 
ATOM     20  C   UNL     1       0.006  -0.687  -1.200  0.00  0.00    +0.005 A 
ATOM     21  C   UNL     1       0.024  -2.068  -1.211  0.00  0.00    +0.026 A 
ATOM     22  C   UNL     1       0.040  -2.771  -0.013  0.00  0.00    +0.060 A 
ATOM     23  C   UNL     1       0.036  -2.081   1.192  0.00  0.00    +0.026 A 
ATOM     24  C   UNL     1       0.023  -0.700   1.197  0.00  0.00    +0.005 A 
ENDBRANCH  10  22
ENDBRANCH   8  14
ENDBRANCH   1   8
BRANCH   5  25
ATOM     25  N   UNL     1       0.115  -9.596   7.009  0.00  0.00    -0.320 N 
ATOM     26  H   UNL     1       0.125 -10.409   7.538  0.00  0.00    +0.152 HD
BRANCH  25  27
ATOM     27  C   UNL     1       0.095  -8.393   7.621  0.00  0.00    +0.087 C 
ATOM     28  C   UNL     1       0.087  -8.320   9.004  0.00  0.00    +0.075 C 
ATOM     29  C   UNL     1       0.060  -7.108   9.836  0.00  0.00    +0.070 C 
ATOM     30  N   UNL     1       0.061  -7.486  11.078  0.00  0.00    -0.176 NA
ATOM     31  N   UNL     1       0.088  -8.876  11.185  0.00  0.00    -0.156 N 
ATOM     32  C   UNL     1       0.099  -9.435   9.958  0.00  0.00    +0.273 C 
ATOM     33  O   UNL     1       0.118 -10.626   9.695  0.00  0.00    -0.268 OA
ATOM     34  C   UNL     1       0.035  -5.686   9.338  0.00  0.00    +0.068 C 
BRANCH  31  35
ATOM     35  C   UNL     1       0.097  -9.588  12.392  0.00  0.00    +0.060 A 
ATOM     36  C   UNL     1       0.130 -10.976  12.380  0.00  0.00    +0.026 A 
ATOM     37  C   UNL     1       0.139 -11.675  13.571  0.00  0.00    +0.005 A 
ATOM     38  C   UNL     1       0.113 -10.993  14.775  0.00  0.00    -0.050 A 
ATOM     39  C   UNL     1       0.079  -9.611  14.789  0.00  0.00    +0.005 A 
ATOM     40  C   UNL     1       0.077  -8.906  13.601  0.00  0.00    +0.026 A 
ATOM     41  C   UNL     1       0.121 -11.759  16.073  0.00  0.00    +0.044 C 
ENDBRANCH  31  35
ENDBRANCH  25  27
ENDBRANCH   5  25
TORSDOF 6
