REMARK  Name = ZINC21252147
REMARK  8 active torsions:
REMARK  status: ('A' for Active; 'I' for Inactive)
REMARK    1  A    between atoms: C_1  and  C_2
REMARK    2  A    between atoms: C_3  and  C_30
REMARK    3  A    between atoms: C_4  and  N_18
REMARK    4  A    between atoms: C_6  and  C_7
REMARK    5  A    between atoms: N_9  and  C_10
REMARK    6  A    between atoms: C_19  and  C_21
REMARK    7  A    between atoms: C_30  and  O_32
REMARK    8  A    between atoms: O_32  and  C_33
REMARK                            x       y       z     vdW  Elec       q    Type
REMARK                         _______ _______ _______ _____ _____    ______ ____
ROOT
ATOM      1  C   UNL     1      -0.016   1.065   0.012  0.00  0.00    +0.046 C 
ATOM      2  C   UNL     1      -0.722   1.548   1.253  0.00  0.00    -0.015 A 
ATOM      3  C   UNL     1      -0.025   1.781   2.430  0.00  0.00    +0.091 A 
ATOM      4  C   UNL     1      -0.752   2.228   3.539  0.00  0.00    +0.087 A 
ATOM      5  S   UNL     1      -2.373   2.316   2.930  0.00  0.00    -0.068 S 
ATOM      6  C   UNL     1      -2.071   1.778   1.257  0.00  0.00    +0.080 A 
ENDROOT
BRANCH   6   7
ATOM      7  C   UNL     1      -3.028   1.620   0.161  0.00  0.00    +0.255 C 
ATOM      8  O   UNL     1      -2.646   1.236  -0.930  0.00  0.00    -0.269 OA
ATOM      9  N   UNL     1      -4.331   1.899   0.359  0.00  0.00    -0.280 N 
ATOM     10  H   UNL     1      -4.689   2.175   1.362  0.00  0.00    +0.155 HD
BRANCH   9  11
ATOM     11  C   UNL     1      -5.230   1.839  -0.712  0.00  0.00    +0.054 A 
ATOM     12  C   UNL     1      -5.060   0.888  -1.710  0.00  0.00    +0.025 A 
ATOM     13  C   UNL     1      -5.949   0.830  -2.766  0.00  0.00    +0.003 A 
ATOM     14  C   UNL     1      -7.007   1.718  -2.831  0.00  0.00    +0.021 A 
ATOM     15  C   UNL     1      -7.181   2.667  -1.839  0.00  0.00    +0.061 A 
ATOM     16  C   UNL     1      -6.298   2.726  -0.775  0.00  0.00    +0.080 A 
ATOM     17 CL   UNL     1      -6.519   3.911   0.473  0.00  0.00    -0.080 Cl
ATOM     18 CL   UNL     1      -8.511   3.779  -1.925  0.00  0.00    -0.082 Cl
ENDBRANCH   9  11
ENDBRANCH   6   7
BRANCH   4  19
ATOM     19  N   UNL     1      -0.293   2.527   4.805  0.00  0.00    -0.275 N 
ATOM     20  C   UNL     1      -1.153   2.949   5.753  0.00  0.00    +0.249 C 
ATOM     21  O   UNL     1      -2.335   3.066   5.492  0.00  0.00    -0.270 OA
ATOM     22  H   UNL     1       0.776   2.420   5.042  0.00  0.00    +0.156 HD
BRANCH  20  23
ATOM     23  C   UNL     1      -0.662   3.268   7.107  0.00  0.00    +0.041 A 
ATOM     24  C   UNL     1       0.695   3.127   7.410  0.00  0.00    +0.017 A 
ATOM     25  C   UNL     1       1.153   3.432   8.673  0.00  0.00    +0.050 A 
ATOM     26  C   UNL     1       0.269   3.866   9.652  0.00  0.00    +0.166 A 
ATOM     27  C   UNL     1      -1.088   4.003   9.357  0.00  0.00    +0.167 A 
ATOM     28  C   UNL     1      -1.553   3.705   8.091  0.00  0.00    +0.062 A 
ATOM     29  O   UNL     1      -1.735   4.441  10.477  0.00  0.00    -0.453 OA
ATOM     30  C   UNL     1      -0.833   4.179  11.568  0.00  0.00    +0.466 C 
ATOM     31  O   UNL     1       0.468   4.219  10.954  0.00  0.00    -0.453 OA
ENDBRANCH  20  23
ENDBRANCH   4  19
BRANCH   3  32
ATOM     32  C   UNL     1       1.423   1.565   2.510  0.00  0.00    +0.342 C 
ATOM     33  O   UNL     1       2.189   2.472   2.248  0.00  0.00    -0.245 OA
BRANCH  32  34
ATOM     34  O   UNL     1       1.906   0.359   2.873  0.00  0.00    -0.464 OA
ATOM     35  C   UNL     1       3.350   0.217   2.931  0.00  0.00    +0.280 C 
ENDBRANCH  32  34
ENDBRANCH   3  32
TORSDOF 6
