REMARK  Name = ZINC44135698
REMARK  14 active torsions:
REMARK  status: ('A' for Active; 'I' for Inactive)
REMARK    1  A    between atoms: C_3  and  O_8
REMARK    2  A    between atoms: C_6  and  N_7
REMARK    3  A    between atoms: O_8  and  C_9
REMARK    4  A    between atoms: C_11  and  O_40
REMARK    5  A    between atoms: C_13  and  O_39
REMARK    6  A    between atoms: C_15  and  O_22
REMARK    7  A    between atoms: C_17  and  C_20
REMARK    8  A    between atoms: C_20  and  O_21
REMARK    9  A    between atoms: O_22  and  C_23
REMARK   10  A    between atoms: C_25  and  O_38
REMARK   11  A    between atoms: C_27  and  O_37
REMARK   12  A    between atoms: C_29  and  O_36
REMARK   13  A    between atoms: C_31  and  C_34
REMARK   14  A    between atoms: C_34  and  O_35
REMARK                            x       y       z     vdW  Elec       q    Type
REMARK                         _______ _______ _______ _____ _____    ______ ____
ROOT
ATOM      1  C   UNL     1       4.801   2.071  -0.373  0.00  0.00    +0.339 C 
ATOM      2  C   UNL     1       5.974   3.054  -0.311  0.00  0.00    +0.214 C 
ATOM      3  C   UNL     1       5.954   3.776   1.040  0.00  0.00    +0.180 C 
ATOM      4  C   UNL     1       6.008   2.735   2.163  0.00  0.00    +0.184 C 
ATOM      5  C   UNL     1       4.834   1.764   2.005  0.00  0.00    +0.179 C 
ATOM      6  O   UNL     1       4.895   1.151   0.716  0.00  0.00    -0.331 OA
ENDROOT
BRANCH   3   7
ATOM      7  O   UNL     1       7.085   4.643   1.135  0.00  0.00    -0.386 OA
ATOM      8  H   UNL     1       7.118   5.324   0.449  0.00  0.00    +0.210 HD
ENDBRANCH   3   7
BRANCH   2   9
ATOM      9  O   UNL     1       5.851   4.010  -1.366  0.00  0.00    -0.383 OA
ATOM     10  H   UNL     1       5.852   3.621  -2.252  0.00  0.00    +0.210 HD
ENDBRANCH   2   9
BRANCH   1  11
ATOM     11  O   UNL     1       3.570   2.792  -0.284  0.00  0.00    -0.461 OA
BRANCH  11  14
ATOM     12  C   UNL     1       0.029   1.984  -0.500  0.00  0.00    +0.026 A 
ATOM     13  C   UNL     1       1.194   2.712  -0.353  0.00  0.00    +0.047 A 
ATOM     14  C   UNL     1       2.424   2.075  -0.429  0.00  0.00    +0.124 A 
ATOM     15  C   UNL     1       2.485   0.707  -0.652  0.00  0.00    +0.047 A 
ATOM     16  C   UNL     1       1.321  -0.021  -0.800  0.00  0.00    +0.026 A 
ATOM     17  C   UNL     1       0.089   0.615  -0.724  0.00  0.00    +0.025 A 
BRANCH  17  18
ATOM     18  N   UNL     1      -1.091  -0.122  -0.873  0.00  0.00    -0.358 N 
ATOM     19  H   UNL     1      -1.951   0.323  -0.820  0.00  0.00    +0.142 HD
ATOM     20  H   UNL     1      -1.048  -1.079  -1.029  0.00  0.00    +0.142 HD
ENDBRANCH  17  18
ENDBRANCH  11  14
ENDBRANCH   1  11
BRANCH   5  21
ATOM     21  C   UNL     1       4.915   0.686   3.088  0.00  0.00    +0.190 C 
BRANCH  21  22
ATOM     22  O   UNL     1       3.769  -0.163   3.001  0.00  0.00    -0.392 OA
ATOM     23  H   UNL     1       3.753  -0.871   3.659  0.00  0.00    +0.210 HD
ENDBRANCH  21  22
ENDBRANCH   5  21
BRANCH   4  24
ATOM     24  O   UNL     1       5.918   3.393   3.428  0.00  0.00    -0.340 OA
BRANCH  24  25
ATOM     25  C   UNL     1       7.174   3.846   3.938  0.00  0.00    +0.282 C 
ATOM     26  C   UNL     1       6.935   4.795   5.114  0.00  0.00    +0.201 C 
ATOM     27  C   UNL     1       6.225   4.035   6.238  0.00  0.00    +0.179 C 
ATOM     28  C   UNL     1       7.072   2.821   6.633  0.00  0.00    +0.177 C 
ATOM     29  C   UNL     1       7.306   1.948   5.398  0.00  0.00    +0.178 C 
ATOM     30  O   UNL     1       7.941   2.724   4.380  0.00  0.00    -0.341 OA
BRANCH  28  31
ATOM     31  O   UNL     1       6.385   2.064   7.632  0.00  0.00    -0.386 OA
ATOM     32  H   UNL     1       6.200   2.558   8.442  0.00  0.00    +0.210 HD
ENDBRANCH  28  31
BRANCH  27  33
ATOM     33  O   UNL     1       6.061   4.894   7.368  0.00  0.00    -0.386 OA
ATOM     34  H   UNL     1       5.539   5.687   7.186  0.00  0.00    +0.210 HD
ENDBRANCH  27  33
BRANCH  26  35
ATOM     35  O   UNL     1       8.188   5.291   5.590  0.00  0.00    -0.384 OA
ATOM     36  H   UNL     1       8.695   5.781   4.927  0.00  0.00    +0.210 HD
ENDBRANCH  26  35
BRANCH  29  37
ATOM     37  C   UNL     1       8.201   0.765   5.771  0.00  0.00    +0.190 C 
BRANCH  37  38
ATOM     38  O   UNL     1       8.324  -0.112   4.650  0.00  0.00    -0.392 OA
ATOM     39  H   UNL     1       8.879  -0.887   4.815  0.00  0.00    +0.210 HD
ENDBRANCH  37  38
ENDBRANCH  29  37
ENDBRANCH  24  25
ENDBRANCH   4  24
TORSDOF 14
