REMARK  Name = ZINC19606801
REMARK  11 active torsions:
REMARK  status: ('A' for Active; 'I' for Inactive)
REMARK    1  A    between atoms: C_1  and  C_2
REMARK    2  A    between atoms: C_3  and  C_7
REMARK    3  A    between atoms: C_7  and  N_8
REMARK    4  A    between atoms: N_8  and  C_9
REMARK    5  A    between atoms: N_8  and  C_10
REMARK    6  A    between atoms: C_10  and  C_11
REMARK    7  A    between atoms: C_13  and  C_30
REMARK    8  A    between atoms: C_16  and  O_17
REMARK    9  A    between atoms: O_17  and  C_18
REMARK   10  A    between atoms: C_18  and  C_19
REMARK   11  A    between atoms: N_21  and  C_22
REMARK                            x       y       z     vdW  Elec       q    Type
REMARK                         _______ _______ _______ _____ _____    ______ ____
ROOT
ATOM      1  C   UNL     1       0.003  -0.004  -0.005  0.00  0.00    -0.022 A 
ATOM      2  C   UNL     1      -0.016   1.376  -0.004  0.00  0.00    +0.013 A 
ATOM      3  C   UNL     1       1.182   2.087  -0.022  0.00  0.00    -0.017 A 
ATOM      4  C   UNL     1       2.396   1.402  -0.041  0.00  0.00    +0.012 A 
ATOM      5  C   UNL     1       2.408   0.023  -0.041  0.00  0.00    +0.046 A 
ATOM      6  C   UNL     1       1.213  -0.683  -0.023  0.00  0.00    +0.123 A 
ENDROOT
BRANCH   3   7
ATOM      7  C   UNL     1       1.165   3.571  -0.022  0.00  0.00    -0.014 A 
ATOM      8  C   UNL     1      -0.048   4.255  -0.004  0.00  0.00    +0.012 A 
ATOM      9  C   UNL     1      -0.063   5.635  -0.003  0.00  0.00    +0.050 A 
ATOM     10  C   UNL     1       1.128   6.345  -0.019  0.00  0.00    +0.166 A 
ATOM     11  C   UNL     1       2.345   5.665  -0.038  0.00  0.00    +0.167 A 
ATOM     12  C   UNL     1       2.364   4.282  -0.034  0.00  0.00    +0.058 A 
ATOM     13  O   UNL     1       3.357   6.582  -0.052  0.00  0.00    -0.453 OA
ATOM     14  C   UNL     1       2.746   7.822  -0.454  0.00  0.00    +0.466 C 
ATOM     15  O   UNL     1       1.379   7.687  -0.021  0.00  0.00    -0.453 OA
ENDBRANCH   3   7
BRANCH   1  16
ATOM     16  C   UNL     1      -1.293  -0.774   0.015  0.00  0.00    -0.039 C 
BRANCH  16  17
ATOM     17  N   UNL     1      -1.570  -1.231   1.383  0.00  0.00    +0.384 N 
ATOM     18  C   UNL     1      -0.572  -2.216   1.821  0.00  0.00    -0.095 C 
ATOM     19  H   UNL     1      -1.502  -0.360   2.051  0.00  0.00    -0.081 HD
BRANCH  17  20
ATOM     20  C   UNL     1      -2.930  -1.777   1.490  0.00  0.00    -0.017 C 
BRANCH  20  23
ATOM     21  C   UNL     1      -4.281   0.331   3.401  0.00  0.00    +0.071 C 
ATOM     22  C   UNL     1      -3.870  -1.064   3.795  0.00  0.00    +0.103 A 
ATOM     23  C   UNL     1      -3.266  -2.007   2.941  0.00  0.00    +0.091 A 
ATOM     24  N   UNL     1      -3.049  -3.107   3.597  0.00  0.00    -0.056 NA
ATOM     25  O   UNL     1      -3.506  -2.907   4.925  0.00  0.00    -0.242 OA
ATOM     26  N   UNL     1      -4.019  -1.585   4.977  0.00  0.00    -0.054 NA
ENDBRANCH  20  23
ENDBRANCH  17  20
ENDBRANCH  16  17
ENDBRANCH   1  16
BRANCH   6  27
ATOM     27  O   UNL     1       1.228  -2.042  -0.023  0.00  0.00    -0.483 OA
BRANCH  27  28
ATOM     28  C   UNL     1       2.508  -2.676  -0.042  0.00  0.00    +0.324 C 
BRANCH  28  29
ATOM     29  C   UNL     1       2.328  -4.172  -0.039  0.00  0.00    +0.255 C 
ATOM     30  O   UNL     1       1.212  -4.648  -0.022  0.00  0.00    -0.272 OA
ATOM     31  N   UNL     1       3.405  -4.981  -0.055  0.00  0.00    -0.283 N 
ATOM     32  H   UNL     1       4.414  -4.552  -0.147  0.00  0.00    +0.155 HD
BRANCH  31  33
ATOM     33  C   UNL     1       3.241  -6.368   0.045  0.00  0.00    +0.036 A 
ATOM     34  C   UNL     1       4.182  -7.132   0.724  0.00  0.00    +0.026 A 
ATOM     35  C   UNL     1       4.016  -8.499   0.828  0.00  0.00    +0.043 A 
ATOM     36  C   UNL     1       2.919  -9.111   0.245  0.00  0.00    +0.159 A 
ATOM     37  C   UNL     1       1.982  -8.352  -0.439  0.00  0.00    +0.160 A 
ATOM     38  C   UNL     1       2.142  -6.982  -0.539  0.00  0.00    +0.064 A 
ATOM     39  F   UNL     1       0.912  -8.950  -1.006  0.00  0.00    -0.202 F 
ATOM     40  F   UNL     1       2.762 -10.450   0.343  0.00  0.00    -0.202 F 
ENDBRANCH  31  33
ENDBRANCH  28  29
ENDBRANCH  27  28
ENDBRANCH   6  27
TORSDOF 9
