REMARK  Name = ZINC39763440
REMARK  8 active torsions:
REMARK  status: ('A' for Active; 'I' for Inactive)
REMARK    1  A    between atoms: C_1  and  C_2
REMARK    2  A    between atoms: C_2  and  C_3
REMARK    3  A    between atoms: C_2  and  C_4
REMARK    4  A    between atoms: C_4  and  C_6
REMARK    5  A    between atoms: C_4  and  S_12
REMARK    6  A    between atoms: S_12  and  C_13
REMARK    7  A    between atoms: C_17  and  C_22
REMARK    8  A    between atoms: N_18  and  C_19
REMARK                            x       y       z     vdW  Elec       q    Type
REMARK                         _______ _______ _______ _____ _____    ______ ____
ROOT
ATOM      1  C   UNL     1       2.580   1.893   1.473  0.00  0.00    +0.238 C 
ATOM      2  N   UNL     1       1.624   2.575   0.585  0.00  0.00    -0.237 N 
ATOM      3  N   UNL     1       0.561   2.996   1.394  0.00  0.00    -0.169 NA
ATOM      4  C   UNL     1       0.752   2.659   2.642  0.00  0.00    +0.147 C 
ATOM      5  N   UNL     1       1.964   1.977   2.807  0.00  0.00    -0.282 N 
ATOM      6  H   UNL     1       1.713   2.707  -0.372  0.00  0.00    +0.171 HD
ENDROOT
BRANCH   4   7
ATOM      7  C   UNL     1      -0.142   2.946   3.684  0.00  0.00    +0.022 C 
ATOM      8  C   UNL     1      -1.378   3.585   3.584  0.00  0.00    +0.006 A 
ATOM      9  C   UNL     1      -2.091   4.115   2.487  0.00  0.00    +0.010 A 
ATOM     10  C   UNL     1      -3.303   4.693   2.687  0.00  0.00    +0.001 A 
ATOM     11  C   UNL     1      -3.870   4.780   3.960  0.00  0.00    +0.002 A 
ATOM     12  C   UNL     1      -3.242   4.292   5.058  0.00  0.00    +0.026 A 
ATOM     13  C   UNL     1      -1.972   3.674   4.928  0.00  0.00    +0.043 A 
ATOM     14  N   UNL     1      -1.171   3.130   5.823  0.00  0.00    -0.380 N 
ATOM     15  C   UNL     1       0.030   2.622   5.152  0.00  0.00    +0.152 C 
ATOM     16  H   UNL     1      -1.349   3.071   6.774  0.00  0.00    +0.160 HD
ENDBRANCH   4   7
BRANCH   5  17
ATOM     17  C   UNL     1       2.512   1.449   4.059  0.00  0.00    +0.078 C 
ATOM     18  C   UNL     1       3.801   2.082   4.588  0.00  0.00    +0.024 C 
ATOM     19  C   UNL     1       3.830   0.676   3.984  0.00  0.00    +0.024 C 
ENDBRANCH   5  17
BRANCH   1  20
ATOM     20  S   UNL     1       2.784   0.161   0.975  0.00  0.00    -0.105 S 
BRANCH  20  21
ATOM     21  C   UNL     1       1.084  -0.445   0.788  0.00  0.00    +0.138 C 
BRANCH  21  22
ATOM     22  C   UNL     1       0.476  -0.663   2.150  0.00  0.00    +0.234 C 
ATOM     23  O   UNL     1       1.191  -0.791   3.120  0.00  0.00    -0.274 OA
ATOM     24  N   UNL     1      -0.864  -0.717   2.288  0.00  0.00    -0.239 N 
ATOM     25  C   UNL     1      -1.408  -0.913   3.506  0.00  0.00    +0.303 C 
ATOM     26  O   UNL     1      -0.690  -1.041   4.479  0.00  0.00    -0.253 OA
ATOM     27  N   UNL     1      -2.747  -0.966   3.645  0.00  0.00    -0.313 N 
ATOM     28  H   UNL     1      -1.437  -0.615   1.512  0.00  0.00    +0.159 HD
ATOM     29  H   UNL     1      -3.320  -0.864   2.869  0.00  0.00    +0.146 HD
ATOM     30  H   UNL     1      -3.139  -1.107   4.521  0.00  0.00    +0.146 HD
ENDBRANCH  21  22
BRANCH  21  32
ATOM     31  C   UNL     1       1.678  -1.536  -1.379  0.00  0.00    +0.009 C 
ATOM     32  C   UNL     1       1.095  -1.766   0.016  0.00  0.00    +0.005 C 
ATOM     33  C   UNL     1       1.953  -2.787   0.766  0.00  0.00    +0.009 C 
ENDBRANCH  21  32
ENDBRANCH  20  21
ENDBRANCH   1  20
TORSDOF 6
