REMARK  Name = ZINC19357169
REMARK  6 active torsions:
REMARK  status: ('A' for Active; 'I' for Inactive)
REMARK    1  A    between atoms: C_1  and  C_2
REMARK    2  A    between atoms: C_2  and  O_3
REMARK    3  A    between atoms: O_3  and  C_4
REMARK    4  A    between atoms: C_6  and  C_12
REMARK    5  A    between atoms: C_9  and  O_10
REMARK    6  A    between atoms: O_10  and  C_11
REMARK                            x       y       z     vdW  Elec       q    Type
REMARK                         _______ _______ _______ _____ _____    ______ ____
ROOT
ATOM      1  C   UNL     1      -0.229  -4.969   0.477  0.00  0.00    +0.209 C 
ATOM      2  N   UNL     1      -0.847  -6.131  -0.189  0.00  0.00    -0.294 N 
ATOM      3  C   UNL     1      -0.013  -7.160  -0.600  0.00  0.00    +0.159 C 
ATOM      4  N   UNL     1       0.860  -7.676   0.359  0.00  0.00    -0.259 N 
ATOM      5  C   UNL     1       1.345  -6.745   1.277  0.00  0.00    +0.205 A 
ATOM      6  N   UNL     1       0.837  -5.469   1.351  0.00  0.00    -0.288 N 
ATOM      7  C   UNL     1       1.511  -4.812   2.358  0.00  0.00    +0.076 A 
ATOM      8  C   UNL     1       1.442  -3.533   2.894  0.00  0.00    +0.077 A 
ATOM      9  C   UNL     1       2.280  -3.178   3.933  0.00  0.00    +0.164 A 
ATOM     10  C   UNL     1       3.197  -4.092   4.445  0.00  0.00    +0.164 A 
ATOM     11  C   UNL     1       3.281  -5.365   3.921  0.00  0.00    +0.079 A 
ATOM     12  C   UNL     1       2.437  -5.738   2.870  0.00  0.00    +0.095 A 
ATOM     13  N   UNL     1       2.286  -6.896   2.163  0.00  0.00    -0.214 NA
ATOM     14  O   UNL     1       4.015  -3.722   5.474  0.00  0.00    -0.488 OA
ATOM     15  C   UNL     1       5.008  -2.744   5.162  0.00  0.00    +0.232 C 
ATOM     16  C   UNL     1       4.433  -1.340   5.263  0.00  0.00    +0.082 C 
ATOM     17  C   UNL     1       3.348  -1.083   4.230  0.00  0.00    +0.232 C 
ATOM     18  O   UNL     1       2.215  -1.921   4.465  0.00  0.00    -0.488 OA
ATOM     19  N   UNL     1      -0.043  -7.622  -1.817  0.00  0.00    -0.375 N 
ATOM     20  H   UNL     1      -1.805  -6.174  -0.334  0.00  0.00    +0.151 HD
ATOM     21  H   UNL     1      -0.660  -7.246  -2.464  0.00  0.00    +0.158 HD
ATOM     22  H   UNL     1       1.111  -8.612   0.386  0.00  0.00    +0.158 HD
ATOM     23  H   UNL     1       0.552  -8.343  -2.078  0.00  0.00    +0.158 HD
ENDROOT
BRANCH   1  26
ATOM     24  C   UNL     1       0.777  -1.811  -1.336  0.00  0.00    +0.162 A 
ATOM     25  C   UNL     1       0.243  -2.669  -0.388  0.00  0.00    +0.056 A 
ATOM     26  C   UNL     1       0.352  -4.037  -0.555  0.00  0.00    -0.003 A 
ATOM     27  C   UNL     1       0.992  -4.552  -1.667  0.00  0.00    +0.011 A 
ATOM     28  C   UNL     1       1.526  -3.702  -2.616  0.00  0.00    +0.050 A 
ATOM     29  C   UNL     1       1.416  -2.330  -2.458  0.00  0.00    +0.162 A 
BRANCH  29  30
ATOM     30  O   UNL     1       1.936  -1.492  -3.394  0.00  0.00    -0.491 OA
ATOM     31  C   UNL     1       2.578  -2.095  -4.520  0.00  0.00    +0.277 C 
ENDBRANCH  29  30
BRANCH  24  32
ATOM     32  O   UNL     1       0.671  -0.465  -1.174  0.00  0.00    -0.489 OA
BRANCH  32  34
ATOM     33  C   UNL     1      -0.019   1.526   0.010  0.00  0.00    +0.048 C 
ATOM     34  C   UNL     1       0.002  -0.004   0.002  0.00  0.00    +0.226 C 
ENDBRANCH  32  34
ENDBRANCH  24  32
ENDBRANCH   1  26
TORSDOF 4
