REMARK  Name = ZINC56159798
REMARK  9 active torsions:
REMARK  status: ('A' for Active; 'I' for Inactive)
REMARK    1  A    between atoms: C_1  and  C_2
REMARK    2  A    between atoms: C_2  and  C_4
REMARK    3  A    between atoms: C_2  and  N_17
REMARK    4  A    between atoms: C_7  and  N_10
REMARK    5  A    between atoms: N_13  and  C_14
REMARK    6  A    between atoms: N_17  and  C_18
REMARK    7  A    between atoms: C_18  and  C_20
REMARK    8  A    between atoms: C_18  and  C_26
REMARK    9  A    between atoms: N_28  and  C_29
REMARK                            x       y       z     vdW  Elec       q    Type
REMARK                         _______ _______ _______ _____ _____    ______ ____
ROOT
ATOM      1  C   UNL     1       0.017   1.539  -0.039  0.00  0.00    -0.009 C 
ATOM      2  C   UNL     1      -0.062   0.011  -0.072  0.00  0.00    -0.043 C 
ENDROOT
BRANCH   2   3
ATOM      3  C   UNL     1       0.624  -0.554   1.145  0.00  0.00    -0.061 A 
ATOM      4  C   UNL     1       2.003  -0.653   1.176  0.00  0.00    +0.004 A 
ATOM      5  C   UNL     1       2.635  -1.171   2.290  0.00  0.00    +0.023 A 
ATOM      6  C   UNL     1       1.883  -1.591   3.380  0.00  0.00    +0.035 A 
ATOM      7  C   UNL     1       0.499  -1.489   3.346  0.00  0.00    +0.023 A 
ATOM      8  C   UNL     1      -0.127  -0.966   2.231  0.00  0.00    +0.004 A 
BRANCH   6   9
ATOM      9  N   UNL     1       2.520  -2.116   4.510  0.00  0.00    -0.269 N 
ATOM     10  C   UNL     1       3.713  -1.625   4.900  0.00  0.00    +0.304 C 
ATOM     11  O   UNL     1       4.276  -0.786   4.223  0.00  0.00    -0.253 OA
ATOM     12  N   UNL     1       4.282  -2.064   6.040  0.00  0.00    -0.296 N 
ATOM     13  H   UNL     1       2.103  -2.832   5.013  0.00  0.00    +0.156 HD
ATOM     14  H   UNL     1       3.833  -2.733   6.580  0.00  0.00    +0.151 HD
BRANCH  12  15
ATOM     15  C   UNL     1       5.580  -1.531   6.464  0.00  0.00    +0.075 C 
ATOM     16  C   UNL     1       6.617  -2.528   6.986  0.00  0.00    +0.024 C 
ATOM     17  C   UNL     1       5.910  -1.580   7.957  0.00  0.00    +0.024 C 
ENDBRANCH  12  15
ENDBRANCH   6   9
ENDBRANCH   2   3
BRANCH   2  18
ATOM     18  N   UNL     1       0.603  -0.487  -1.284  0.00  0.00    +0.394 N 
ATOM     19  H   UNL     1       0.206  -0.036  -2.095  0.00  0.00    -0.083 HD
ATOM     20  H   UNL     1       1.590  -0.282  -1.235  0.00  0.00    -0.083 HD
BRANCH  18  21
ATOM     21  C   UNL     1       0.410  -1.939  -1.387  0.00  0.00    +0.048 C 
BRANCH  21  22
ATOM     22  C   UNL     1      -1.052  -2.238  -1.601  0.00  0.00    -0.053 A 
ATOM     23  C   UNL     1      -1.804  -1.440  -2.443  0.00  0.00    +0.002 A 
ATOM     24  C   UNL     1      -3.145  -1.714  -2.639  0.00  0.00    +0.000 A 
ATOM     25  C   UNL     1      -3.733  -2.785  -1.994  0.00  0.00    +0.000 A 
ATOM     26  C   UNL     1      -2.981  -3.583  -1.153  0.00  0.00    +0.000 A 
ATOM     27  C   UNL     1      -1.639  -3.312  -0.960  0.00  0.00    +0.002 A 
ENDBRANCH  21  22
BRANCH  21  28
ATOM     28  C   UNL     1       1.206  -2.471  -2.550  0.00  0.00    +0.204 C 
ATOM     29  O   UNL     1       1.870  -1.715  -3.227  0.00  0.00    -0.277 OA
ATOM     30  N   UNL     1       1.181  -3.788  -2.838  0.00  0.00    -0.314 N 
ATOM     31  H   UNL     1       0.651  -4.393  -2.297  0.00  0.00    +0.149 HD
BRANCH  30  32
ATOM     32  C   UNL     1       1.956  -4.305  -3.969  0.00  0.00    +0.073 C 
ATOM     33  C   UNL     1       1.275  -5.324  -4.885  0.00  0.00    +0.024 C 
ATOM     34  C   UNL     1       2.377  -5.775  -3.924  0.00  0.00    +0.024 C 
ENDBRANCH  30  32
ENDBRANCH  21  28
ENDBRANCH  18  21
ENDBRANCH   2  18
TORSDOF 8
