REMARK  Name = ZINC41631623
REMARK  9 active torsions:
REMARK  status: ('A' for Active; 'I' for Inactive)
REMARK    1  A    between atoms: C_1  and  C_2
REMARK    2  A    between atoms: C_2  and  C_3
REMARK    3  A    between atoms: C_6  and  C_8
REMARK    4  A    between atoms: C_8  and  C_10
REMARK    5  A    between atoms: C_8  and  N_11
REMARK    6  A    between atoms: N_11  and  C_12
REMARK    7  A    between atoms: C_12  and  C_13
REMARK    8  A    between atoms: C_17  and  S_19
REMARK    9  A    between atoms: S_19  and  N_22
REMARK                            x       y       z     vdW  Elec       q    Type
REMARK                         _______ _______ _______ _____ _____    ______ ____
ROOT
ATOM      1  C   UNL     1       5.798  -1.374   4.717  0.00  0.00    -0.046 C 
ENDROOT
BRANCH   1   2
ATOM      2  C   UNL     1       7.015  -0.522   4.461  0.00  0.00    -0.063 A 
ATOM      3  C   UNL     1       7.978  -0.944   3.563  0.00  0.00    +0.002 A 
ATOM      4  C   UNL     1       9.094  -0.164   3.329  0.00  0.00    +0.002 A 
ATOM      5  C   UNL     1       9.248   1.040   3.991  0.00  0.00    +0.028 A 
ATOM      6  C   UNL     1       8.285   1.463   4.888  0.00  0.00    +0.105 A 
ATOM      7  C   UNL     1       7.166   0.683   5.120  0.00  0.00    +0.030 A 
BRANCH   6   8
ATOM      8  S   UNL     1       8.480   2.996   5.734  0.00  0.00    +0.056 S 
ATOM      9  O   UNL     1       7.710   2.905   6.924  0.00  0.00    -0.153 OA
ATOM     10  O   UNL     1       9.873   3.277   5.747  0.00  0.00    -0.153 OA
BRANCH   8  11
ATOM     11  N   UNL     1       7.771   4.165   4.798  0.00  0.00    -0.204 NA
ATOM     12  H   UNL     1       7.379   4.948   5.215  0.00  0.00    +0.144 HD
ATOM     13  H   UNL     1       7.747   4.065   3.834  0.00  0.00    +0.144 HD
ENDBRANCH   8  11
ENDBRANCH   6   8
ENDBRANCH   1   2
BRANCH   1  14
ATOM     14  N   UNL     1       4.736  -1.005   3.772  0.00  0.00    +0.386 N 
ATOM     15  H   UNL     1       5.058  -1.155   2.828  0.00  0.00    -0.085 HD
ATOM     16  H   UNL     1       4.498  -0.033   3.896  0.00  0.00    -0.085 HD
BRANCH  14  17
ATOM     17  C   UNL     1       3.550  -1.835   4.021  0.00  0.00    -0.037 C 
ATOM     18  C   UNL     1       3.876  -3.298   3.713  0.00  0.00    -0.008 C 
BRANCH  17  22
ATOM     19  C   UNL     1       0.731  -0.503   1.223  0.00  0.00    -0.010 A 
ATOM     20  C   UNL     1       0.236  -0.806   2.448  0.00  0.00    +0.011 A 
ATOM     21  C   UNL     1       1.102  -1.254   3.429  0.00  0.00    +0.010 A 
ATOM     22  C   UNL     1       2.420  -1.375   3.136  0.00  0.00    -0.024 A 
ATOM     23  S   UNL     1       2.469  -0.856   1.429  0.00  0.00    -0.100 S 
BRANCH  19  25
ATOM     24  C   UNL     1      -0.019   1.526   0.010  0.00  0.00    +0.009 C 
ATOM     25  C   UNL     1       0.002  -0.004   0.002  0.00  0.00    +0.039 C 
ENDBRANCH  19  25
ENDBRANCH  17  22
ENDBRANCH  14  17
ENDBRANCH   1  14
TORSDOF 7
