REMARK  Name = ZINC63151085
REMARK  8 active torsions:
REMARK  status: ('A' for Active; 'I' for Inactive)
REMARK    1  A    between atoms: C_1  and  C_2
REMARK    2  A    between atoms: C_4  and  C_9
REMARK    3  A    between atoms: C_5  and  C_8
REMARK    4  A    between atoms: C_9  and  S_10
REMARK    5  A    between atoms: S_10  and  C_11
REMARK    6  A    between atoms: C_16  and  C_17
REMARK    7  A    between atoms: N_19  and  N_20
REMARK    8  A    between atoms: C_21  and  C_23
REMARK                            x       y       z     vdW  Elec       q    Type
REMARK                         _______ _______ _______ _____ _____    ______ ____
ROOT
ATOM      1  C   UNL     1      -3.310  -2.513  -4.756  0.00  0.00    +0.261 C 
ATOM      2  O   UNL     1      -3.092  -2.792  -3.593  0.00  0.00    -0.269 OA
ATOM      3  N   UNL     1      -4.325  -3.107  -5.414  0.00  0.00    -0.230 N 
ATOM      4  H   UNL     1      -4.499  -2.884  -6.342  0.00  0.00    +0.173 HD
ENDROOT
BRANCH   1  10
ATOM      5  C   UNL     1      -1.404  -0.902  -4.767  0.00  0.00    +0.020 A 
ATOM      6  C   UNL     1      -0.609   0.025  -5.432  0.00  0.00    +0.015 A 
ATOM      7  C   UNL     1      -0.865   0.334  -6.751  0.00  0.00    +0.001 A 
ATOM      8  C   UNL     1      -1.914  -0.274  -7.424  0.00  0.00    +0.001 A 
ATOM      9  C   UNL     1      -2.712  -1.195  -6.782  0.00  0.00    +0.014 A 
ATOM     10  C   UNL     1      -2.463  -1.524  -5.447  0.00  0.00    +0.052 A 
BRANCH   5  11
ATOM     11  S   UNL     1      -1.079  -1.300  -3.081  0.00  0.00    -0.120 S 
BRANCH  11  12
ATOM     12  C   UNL     1       0.349  -0.266  -2.654  0.00  0.00    +0.109 C 
BRANCH  12  15
ATOM     13  C   UNL     1      -0.019   1.526   0.010  0.00  0.00    +0.045 C 
ATOM     14  C   UNL     1       0.002  -0.004   0.002  0.00  0.00    +0.174 C 
ATOM     15  C   UNL     1       0.735  -0.512  -1.218  0.00  0.00    -0.008 C 
ATOM     16  C   UNL     1       1.772  -1.208  -0.801  0.00  0.00    +0.038 C 
ATOM     17  N   UNL     1       1.832  -1.235   0.581  0.00  0.00    -0.269 N 
ATOM     18  O   UNL     1       0.748  -0.498   1.124  0.00  0.00    -0.267 OA
ATOM     19  C   UNL     1       2.763  -1.888  -1.710  0.00  0.00    +0.065 C 
ATOM     20  H   UNL     1       2.513  -1.690   1.100  0.00  0.00    +0.194 HD
ENDBRANCH  12  15
ENDBRANCH  11  12
ENDBRANCH   5  11
ENDBRANCH   1  10
BRANCH   3  21
ATOM     21  N   UNL     1      -5.130  -4.047  -4.757  0.00  0.00    -0.230 N 
ATOM     22  C   UNL     1      -6.146  -4.641  -5.414  0.00  0.00    +0.258 C 
ATOM     23  O   UNL     1      -6.363  -4.361  -6.578  0.00  0.00    -0.269 OA
ATOM     24  H   UNL     1      -4.957  -4.270  -3.829  0.00  0.00    +0.173 HD
BRANCH  22  25
ATOM     25  C   UNL     1      -6.988  -5.625  -4.727  0.00  0.00    +0.044 C 
ATOM     26  C   UNL     1      -8.054  -6.321  -5.254  0.00  0.00    +0.008 A 
ATOM     27  C   UNL     1      -8.660  -6.330  -6.536  0.00  0.00    +0.010 A 
ATOM     28  C   UNL     1      -9.719  -7.131  -6.782  0.00  0.00    +0.001 A 
ATOM     29  C   UNL     1     -10.267  -7.978  -5.805  0.00  0.00    +0.002 A 
ATOM     30  C   UNL     1      -9.764  -8.045  -4.553  0.00  0.00    +0.026 A 
ATOM     31  C   UNL     1      -8.609  -7.206  -4.200  0.00  0.00    +0.043 A 
ATOM     32  N   UNL     1      -7.936  -7.072  -3.091  0.00  0.00    -0.380 N 
ATOM     33  C   UNL     1      -6.864  -6.092  -3.293  0.00  0.00    +0.154 C 
ATOM     34  H   UNL     1      -8.114  -7.547  -2.265  0.00  0.00    +0.160 HD
ENDBRANCH  22  25
ENDBRANCH   3  21
TORSDOF 6
