REMARK  Name = ZINC63351318
REMARK  3 active torsions:
REMARK  status: ('A' for Active; 'I' for Inactive)
REMARK    1  A    between atoms: C_8  and  C_16
REMARK    2  A    between atoms: C_18  and  O_33
REMARK    3  A    between atoms: N_20  and  C_26
REMARK                            x       y       z     vdW  Elec       q    Type
REMARK                         _______ _______ _______ _____ _____    ______ ____
ROOT
ATOM      1  C   UNL     1       3.076  -2.038   2.165  0.00  0.00    +0.144 C 
ATOM      2  C   UNL     1       3.897  -2.991   3.045  0.00  0.00    +0.224 C 
ATOM      3  N   UNL     1       3.070  -4.182   3.301  0.00  0.00    -0.227 N 
ATOM      4  C   UNL     1       1.796  -3.990   3.755  0.00  0.00    +0.335 C 
ATOM      5  O   UNL     1       1.191  -4.948   4.481  0.00  0.00    -0.250 OA
ATOM      6  N   UNL     1       1.156  -2.868   3.483  0.00  0.00    -0.127 NA
ATOM      7  C   UNL     1       1.696  -1.896   2.753  0.00  0.00    +0.249 C 
ATOM      8  O   UNL     1       1.068  -0.874   2.558  0.00  0.00    -0.273 OA
ENDROOT
BRANCH   1  15
ATOM      9  C   UNL     1       0.749   2.669   0.592  0.00  0.00    +0.001 A 
ATOM     10  C   UNL     1       2.103   3.021   0.505  0.00  0.00    +0.002 A 
ATOM     11  C   UNL     1       3.078   2.113   0.287  0.00  0.00    +0.026 A 
ATOM     12  C   UNL     1       2.761   0.737   0.133  0.00  0.00    +0.043 A 
ATOM     13  N   UNL     1       3.520  -0.319  -0.059  0.00  0.00    -0.376 N 
ATOM     14  C   UNL     1       2.658  -1.482  -0.239  0.00  0.00    +0.124 C 
ATOM     15  C   UNL     1       2.974  -2.608   0.749  0.00  0.00    +0.096 C 
ATOM     16  N   UNL     1       1.885  -3.596   0.689  0.00  0.00    -0.310 NA
ATOM     17  C   UNL     1       0.608  -3.079   1.189  0.00  0.00    +0.085 C 
ATOM     18  C   UNL     1       0.100  -1.950   0.274  0.00  0.00    +0.048 C 
ATOM     19  C   UNL     1       1.253  -0.992   0.074  0.00  0.00    -0.036 C 
ATOM     20  C   UNL     1       1.335   0.335   0.230  0.00  0.00    -0.001 A 
ATOM     21  C   UNL     1       0.338   1.387   0.465  0.00  0.00    +0.010 A 
ATOM     22  H   UNL     1       1.784  -3.967  -0.244  0.00  0.00    +0.122 HD
ATOM     23  H   UNL     1       4.490  -0.323  -0.079  0.00  0.00    +0.160 HD
ENDBRANCH   1  15
BRANCH   3  24
ATOM     24  C   UNL     1       3.573  -5.471   3.087  0.00  0.00    +0.040 A 
ATOM     25  C   UNL     1       3.333  -6.120   1.884  0.00  0.00    +0.026 A 
ATOM     26  C   UNL     1       3.830  -7.392   1.675  0.00  0.00    +0.040 A 
ATOM     27  C   UNL     1       4.568  -8.019   2.665  0.00  0.00    +0.124 A 
ATOM     28  C   UNL     1       4.808  -7.373   3.866  0.00  0.00    +0.040 A 
ATOM     29  C   UNL     1       4.318  -6.099   4.077  0.00  0.00    +0.026 A 
ATOM     30  F   UNL     1       5.054  -9.262   2.459  0.00  0.00    -0.205 F 
ENDBRANCH   3  24
BRANCH   2  31
ATOM     31  O   UNL     1       5.095  -3.369   2.365  0.00  0.00    -0.373 OA
ATOM     32  H   UNL     1       5.694  -3.912   2.895  0.00  0.00    +0.212 HD
ENDBRANCH   2  31
TORSDOF 3
