REMARK  Name = ZINC36017445
REMARK  13 active torsions:
REMARK  status: ('A' for Active; 'I' for Inactive)
REMARK    1  A    between atoms: C_1  and  C_2
REMARK    2  A    between atoms: C_2  and  O_3
REMARK    3  A    between atoms: O_3  and  C_4
REMARK    4  A    between atoms: C_4  and  C_6
REMARK    5  A    between atoms: C_7  and  C_23
REMARK    6  A    between atoms: N_8  and  C_20
REMARK    7  A    between atoms: C_12  and  C_14
REMARK    8  A    between atoms: C_20  and  C_21
REMARK    9  A    between atoms: C_23  and  N_24
REMARK   10  A    between atoms: N_33  and  C_34
REMARK   11  A    between atoms: C_34  and  C_35
REMARK   12  A    between atoms: C_34  and  C_36
REMARK   13  A    between atoms: C_34  and  C_37
REMARK                            x       y       z     vdW  Elec       q    Type
REMARK                         _______ _______ _______ _____ _____    ______ ____
ROOT
ATOM      1  C   UNL     1       2.483  -3.880  -2.804  0.00  0.00    +0.076 C 
ATOM      2  C   UNL     1       1.227  -3.496  -2.491  0.00  0.00    +0.011 C 
ATOM      3  N   UNL     1       0.719  -2.311  -2.943  0.00  0.00    -0.257 N 
ATOM      4  C   UNL     1       1.403  -1.455  -3.712  0.00  0.00    +0.307 C 
ATOM      5  O   UNL     1       0.866  -0.423  -4.065  0.00  0.00    -0.252 OA
ATOM      6  N   UNL     1       2.668  -1.700  -4.107  0.00  0.00    -0.288 N 
ATOM      7  C   UNL     1       3.311  -2.950  -3.668  0.00  0.00    +0.143 C 
ATOM      8  H   UNL     1       3.146  -1.065  -4.665  0.00  0.00    +0.151 HD
ENDROOT
BRANCH   7   9
ATOM      9  C   UNL     1       3.729  -3.709  -4.900  0.00  0.00    -0.023 A 
ATOM     10  C   UNL     1       2.844  -3.864  -5.951  0.00  0.00    +0.006 A 
ATOM     11  C   UNL     1       3.228  -4.560  -7.081  0.00  0.00    +0.000 A 
ATOM     12  C   UNL     1       4.497  -5.103  -7.161  0.00  0.00    +0.000 A 
ATOM     13  C   UNL     1       5.383  -4.947  -6.111  0.00  0.00    +0.000 A 
ATOM     14  C   UNL     1       5.000  -4.247  -4.982  0.00  0.00    +0.006 A 
ENDBRANCH   7   9
BRANCH   1  15
ATOM     15  C   UNL     1       3.010  -5.107  -2.337  0.00  0.00    +0.339 C 
ATOM     16  O   UNL     1       2.347  -5.813  -1.601  0.00  0.00    -0.245 OA
BRANCH  15  17
ATOM     17  O   UNL     1       4.249  -5.493  -2.707  0.00  0.00    -0.462 OA
BRANCH  17  19
ATOM     18  C   UNL     1       6.130  -7.010  -2.722  0.00  0.00    +0.048 C 
ATOM     19  C   UNL     1       4.718  -6.743  -2.198  0.00  0.00    +0.229 C 
ENDBRANCH  17  19
ENDBRANCH  15  17
ENDBRANCH   1  15
BRANCH   3  20
ATOM     20  C   UNL     1      -0.651  -1.958  -2.565  0.00  0.00    +0.141 C 
BRANCH  20  21
ATOM     21  C   UNL     1      -0.625  -1.098  -1.327  0.00  0.00    -0.015 C 
ATOM     22  C   UNL     1      -1.211   0.074  -1.331  0.00  0.00    +0.005 C 
ENDBRANCH  20  21
ENDBRANCH   3  20
BRANCH   2  23
ATOM     23  C   UNL     1       0.371  -4.389  -1.631  0.00  0.00    -0.026 C 
BRANCH  23  24
ATOM     24  N   UNL     1      -0.480  -5.225  -2.487  0.00  0.00    +0.384 N 
ATOM     25  C   UNL     1      -1.473  -5.887  -1.644  0.00  0.00    -0.077 C 
ATOM     26  C   UNL     1      -2.728  -6.135  -2.452  0.00  0.00    +0.000 C 
ATOM     27  C   UNL     1      -2.675  -7.548  -3.061  0.00  0.00    +0.107 C 
ATOM     28  N   UNL     1      -1.314  -7.869  -3.538  0.00  0.00    -0.287 N 
ATOM     29  C   UNL     1      -0.491  -6.906  -4.240  0.00  0.00    +0.091 C 
ATOM     30  C   UNL     1       0.350  -6.097  -3.226  0.00  0.00    -0.059 C 
ATOM     31  C   UNL     1      -0.821  -9.103  -3.312  0.00  0.00    +0.303 C 
ATOM     32  O   UNL     1      -1.522  -9.952  -2.796  0.00  0.00    -0.253 OA
ATOM     33  N   UNL     1       0.448  -9.395  -3.658  0.00  0.00    -0.294 N 
ATOM     34  H   UNL     1       1.029  -8.699  -4.003  0.00  0.00    +0.151 HD
ATOM     35  H   UNL     1      -0.966  -4.624  -3.135  0.00  0.00    -0.081 HD
BRANCH  33  36
ATOM     36  C   UNL     1       0.951 -10.764  -3.512  0.00  0.00    +0.028 C 
ATOM     37  C   UNL     1       0.107 -11.710  -4.368  0.00  0.00    +0.031 C 
ATOM     38  C   UNL     1       2.409 -10.823  -3.971  0.00  0.00    +0.031 C 
ATOM     39  C   UNL     1       0.861 -11.186  -2.044  0.00  0.00    +0.031 C 
ENDBRANCH  33  36
ENDBRANCH  23  24
ENDBRANCH   2  23
TORSDOF 9
