REMARK  Name = ZINC63515538
REMARK  13 active torsions:
REMARK  status: ('A' for Active; 'I' for Inactive)
REMARK    1  A    between atoms: C_1  and  C_2
REMARK    2  A    between atoms: C_4  and  S_12
REMARK    3  A    between atoms: C_5  and  C_11
REMARK    4  A    between atoms: C_6  and  C_10
REMARK    5  A    between atoms: C_7  and  O_8
REMARK    6  A    between atoms: O_8  and  C_9
REMARK    7  A    between atoms: S_12  and  N_15
REMARK    8  A    between atoms: N_15  and  C_16
REMARK    9  A    between atoms: C_16  and  C_17
REMARK   10  A    between atoms: C_17  and  C_18
REMARK   11  A    between atoms: C_21  and  O_29
REMARK   12  A    between atoms: C_26  and  C_28
REMARK   13  A    between atoms: O_29  and  C_30
REMARK                            x       y       z     vdW  Elec       q    Type
REMARK                         _______ _______ _______ _____ _____    ______ ____
ROOT
ATOM      1  C   UNL     1       1.386  -4.925  -1.832  0.00  0.00    +0.110 C 
ENDROOT
BRANCH   1   2
ATOM      2  N   UNL     1       1.333  -3.790  -2.756  0.00  0.00    -0.190 NA
ATOM      3  H   UNL     1       2.106  -3.571  -3.300  0.00  0.00    +0.148 HD
BRANCH   2   4
ATOM      4  S   UNL     1      -0.045  -2.880  -2.872  0.00  0.00    +0.059 S 
ATOM      5  O   UNL     1       0.191  -1.913  -3.886  0.00  0.00    -0.153 OA
ATOM      6  O   UNL     1      -0.408  -2.521  -1.546  0.00  0.00    -0.153 OA
BRANCH   4  10
ATOM      7  C   UNL     1      -4.629  -5.324  -2.298  0.00  0.00    +0.047 C 
ATOM      8  C   UNL     1      -3.425  -5.034  -3.156  0.00  0.00    -0.007 A 
ATOM      9  C   UNL     1      -2.424  -4.205  -2.687  0.00  0.00    +0.035 A 
ATOM     10  C   UNL     1      -1.319  -3.939  -3.474  0.00  0.00    +0.109 A 
ATOM     11  C   UNL     1      -1.212  -4.502  -4.732  0.00  0.00    -0.018 A 
ATOM     12  C   UNL     1      -2.209  -5.332  -5.206  0.00  0.00    -0.004 A 
ATOM     13  C   UNL     1      -3.317  -5.605  -4.416  0.00  0.00    +0.126 A 
ATOM     14  C   UNL     1      -2.091  -5.945  -6.578  0.00  0.00    +0.048 C 
ATOM     15  C   UNL     1      -0.006  -4.209  -5.588  0.00  0.00    +0.046 C 
BRANCH  13  16
ATOM     16  O   UNL     1      -4.296  -6.425  -4.878  0.00  0.00    -0.495 OA
ATOM     17  C   UNL     1      -5.365  -5.815  -5.604  0.00  0.00    +0.277 C 
ENDBRANCH  13  16
ENDBRANCH   4  10
ENDBRANCH   2   4
ENDBRANCH   1   2
BRANCH   1  18
ATOM     18  C   UNL     1       2.579  -5.816  -2.185  0.00  0.00    +0.050 C 
BRANCH  18  19
ATOM     19  C   UNL     1       2.627  -6.989  -1.241  0.00  0.00    -0.037 C 
ATOM     20  C   UNL     1       1.764  -7.259  -0.235  0.00  0.00    +0.003 A 
ATOM     21  C   UNL     1       0.570  -6.569   0.264  0.00  0.00    +0.056 A 
ATOM     22  C   UNL     1      -0.110  -7.087   1.315  0.00  0.00    +0.129 A 
ATOM     23  C   UNL     1       0.288  -8.274   1.954  0.00  0.00    +0.048 A 
ATOM     24  C   UNL     1       1.373  -8.980   1.568  0.00  0.00    +0.029 A 
ATOM     25  C   UNL     1       2.182  -8.510   0.440  0.00  0.00    +0.043 A 
ATOM     26  N   UNL     1       3.260  -8.993  -0.127  0.00  0.00    -0.378 N 
ATOM     27  C   UNL     1       3.645  -8.107  -1.231  0.00  0.00    +0.103 C 
ATOM     28  C   UNL     1       3.607  -8.867  -2.559  0.00  0.00    +0.035 C 
ATOM     29  H   UNL     1       3.723  -9.804   0.137  0.00  0.00    +0.160 HD
BRANCH  22  30
ATOM     30  O   UNL     1      -1.214  -6.436   1.768  0.00  0.00    -0.420 OA
BRANCH  30  31
ATOM     31  C   UNL     1      -1.900  -7.018   2.878  0.00  0.00    +0.489 C 
ATOM     32  F   UNL     1      -2.335  -8.303   2.536  0.00  0.00    -0.149 F 
ATOM     33  F   UNL     1      -1.034  -7.095   3.974  0.00  0.00    -0.149 F 
ATOM     34 CL   UNL     1      -3.323  -5.997   3.307  0.00  0.00    +0.000 Cl
ENDBRANCH  30  31
ENDBRANCH  22  30
ENDBRANCH  18  19
ENDBRANCH   1  18
TORSDOF 8
