REMARK  Name = ZINC23471536
REMARK  11 active torsions:
REMARK  status: ('A' for Active; 'I' for Inactive)
REMARK    1  A    between atoms: C_1  and  C_2
REMARK    2  A    between atoms: C_2  and  C_3
REMARK    3  A    between atoms: C_3  and  C_4
REMARK    4  A    between atoms: C_4  and  S_5
REMARK    5  A    between atoms: S_5  and  C_6
REMARK    6  A    between atoms: C_9  and  N_12
REMARK    7  A    between atoms: N_20  and  C_23
REMARK    8  A    between atoms: C_23  and  N_24
REMARK    9  A    between atoms: N_27  and  C_30
REMARK   10  A    between atoms: C_30  and  C_31
REMARK   11  A    between atoms: C_32  and  C_33
REMARK                            x       y       z     vdW  Elec       q    Type
REMARK                         _______ _______ _______ _____ _____    ______ ____
ROOT
ATOM      1  N   UNL     1      -3.112   4.802   0.054  0.00  0.00    -0.242 NA
ATOM      2  C   UNL     1      -2.642   3.576   0.044  0.00  0.00    +0.135 C 
ATOM      3  C   UNL     1      -1.224   3.155   0.029  0.00  0.00    +0.027 A 
ATOM      4  C   UNL     1      -0.022   3.856   0.022  0.00  0.00    +0.012 A 
ATOM      5  C   UNL     1       1.173   3.166   0.007  0.00  0.00    +0.001 A 
ATOM      6  C   UNL     1       1.175   1.781   0.000  0.00  0.00    +0.002 A 
ATOM      7  C   UNL     1      -0.013   1.076   0.008  0.00  0.00    +0.024 A 
ATOM      8  C   UNL     1      -1.227   1.753   0.017  0.00  0.00    +0.047 A 
ATOM      9  N   UNL     1      -2.540   1.294   0.033  0.00  0.00    -0.252 N 
ATOM     10  C   UNL     1      -3.416   2.313   0.045  0.00  0.00    +0.271 C 
ATOM     11  O   UNL     1      -4.628   2.215   0.056  0.00  0.00    -0.268 OA
ENDROOT
BRANCH   1  15
ATOM     12  C   UNL     1      -7.175   5.448   0.094  0.00  0.00    +0.008 A 
ATOM     13  C   UNL     1      -6.347   6.179   0.945  0.00  0.00    +0.017 A 
ATOM     14  C   UNL     1      -4.998   5.968   0.936  0.00  0.00    +0.029 A 
ATOM     15  C   UNL     1      -4.446   5.014   0.068  0.00  0.00    +0.065 A 
ATOM     16  C   UNL     1      -5.283   4.285  -0.791  0.00  0.00    +0.029 A 
ATOM     17  C   UNL     1      -6.630   4.499  -0.770  0.00  0.00    +0.017 A 
BRANCH  12  18
ATOM     18  S   UNL     1      -8.915   5.725   0.111  0.00  0.00    -0.125 S 
BRANCH  18  19
ATOM     19  C   UNL     1      -9.555   4.570  -1.133  0.00  0.00    +0.074 C 
BRANCH  19  20
ATOM     20  C   UNL     1     -11.076   4.708  -1.222  0.00  0.00    +0.011 C 
BRANCH  20  22
ATOM     21  C   UNL     1     -13.137   3.872  -2.360  0.00  0.00    +0.004 C 
ATOM     22  C   UNL     1     -11.616   3.734  -2.271  0.00  0.00    -0.003 C 
ENDBRANCH  20  22
ENDBRANCH  19  20
ENDBRANCH  18  19
ENDBRANCH  12  18
ENDBRANCH   1  15
BRANCH   9  23
ATOM     23  C   UNL     1      -2.919  -0.121   0.029  0.00  0.00    +0.200 C 
BRANCH  23  24
ATOM     24  N   UNL     1      -3.059  -0.587  -1.358  0.00  0.00    -0.290 NA
ATOM     25  C   UNL     1      -4.367  -0.211  -1.910  0.00  0.00    +0.067 C 
ATOM     26  C   UNL     1      -4.442  -0.643  -3.377  0.00  0.00    -0.063 C 
ATOM     27  N   UNL     1      -4.232  -2.095  -3.468  0.00  0.00    +0.384 N 
ATOM     28  C   UNL     1      -2.923  -2.471  -2.916  0.00  0.00    -0.063 C 
ATOM     29  C   UNL     1      -2.849  -2.038  -1.449  0.00  0.00    +0.067 C 
ATOM     30  H   UNL     1      -5.009  -2.589  -2.867  0.00  0.00    -0.081 HD
BRANCH  27  31
ATOM     31  C   UNL     1      -4.372  -2.561  -4.854  0.00  0.00    -0.051 C 
BRANCH  31  32
ATOM     32  C   UNL     1      -5.798  -2.379  -5.304  0.00  0.00    -0.045 C 
ATOM     33  C   UNL     1      -6.064  -1.686  -6.402  0.00  0.00    +0.002 C 
BRANCH  33  34
ATOM     34  C   UNL     1      -7.463  -1.508  -6.844  0.00  0.00    -0.025 A 
ATOM     35  C   UNL     1      -8.507  -2.073  -6.109  0.00  0.00    +0.008 A 
ATOM     36  C   UNL     1      -9.811  -1.898  -6.523  0.00  0.00    +0.001 A 
ATOM     37  C   UNL     1     -10.085  -1.175  -7.670  0.00  0.00    +0.000 A 
ATOM     38  C   UNL     1      -9.055  -0.616  -8.405  0.00  0.00    +0.001 A 
ATOM     39  C   UNL     1      -7.746  -0.778  -7.999  0.00  0.00    +0.008 A 
ENDBRANCH  33  34
ENDBRANCH  31  32
ENDBRANCH  27  31
ENDBRANCH  23  24
ENDBRANCH   9  23
TORSDOF 10
