REMARK  Name = ZINC19820973
REMARK  9 active torsions:
REMARK  status: ('A' for Active; 'I' for Inactive)
REMARK    1  A    between atoms: C_1  and  C_2
REMARK    2  A    between atoms: C_4  and  C_39
REMARK    3  A    between atoms: C_6  and  N_8
REMARK    4  A    between atoms: C_9  and  C_11
REMARK    5  A    between atoms: C_11  and  C_12
REMARK    6  A    between atoms: C_20  and  C_22
REMARK    7  A    between atoms: C_22  and  N_23
REMARK    8  A    between atoms: N_26  and  C_29
REMARK    9  A    between atoms: C_33  and  C_35
REMARK                            x       y       z     vdW  Elec       q    Type
REMARK                         _______ _______ _______ _____ _____    ______ ____
ROOT
ATOM      1  C   UNL     1       0.476  11.659   3.533  0.00  0.00    +0.170 C 
ATOM      2  C   UNL     1      -0.409  12.774   4.019  0.00  0.00    +0.234 C 
ATOM      3  O   UNL     1      -0.369  13.074   5.194  0.00  0.00    -0.274 OA
ATOM      4  N   UNL     1      -1.235  13.448   3.218  0.00  0.00    -0.312 N 
ATOM      5  C   UNL     1      -1.455  13.143   1.811  0.00  0.00    +0.123 C 
ATOM      6  C   UNL     1      -0.273  12.351   1.236  0.00  0.00    +0.127 C 
ATOM      7  N   UNL     1       0.051  11.269   2.181  0.00  0.00    -0.289 N 
ATOM      8  C   UNL     1      -0.034   9.973   1.819  0.00  0.00    +0.200 C 
ATOM      9  O   UNL     1       0.244   9.102   2.615  0.00  0.00    -0.278 OA
ATOM     10  H   UNL     1      -1.770  14.287   3.689  0.00  0.00    +0.149 HD
ENDROOT
BRANCH   1  11
ATOM     11  C   UNL     1       1.929  12.138   3.495  0.00  0.00    +0.128 C 
BRANCH  11  13
ATOM     12  N   UNL     1       4.158  11.178   3.015  0.00  0.00    -0.285 N 
ATOM     13  C   UNL     1       2.827  10.990   3.112  0.00  0.00    +0.219 C 
ATOM     14  O   UNL     1       2.351   9.896   2.891  0.00  0.00    -0.275 OA
ATOM     15  H   UNL     1       4.580  12.187   3.130  0.00  0.00    +0.155 HD
BRANCH  12  21
ATOM     16  C   UNL     1       8.240   9.371   0.956  0.00  0.00    +0.044 C 
ATOM     17  C   UNL     1       6.987   9.185   1.773  0.00  0.00    -0.048 A 
ATOM     18  C   UNL     1       6.672   7.938   2.281  0.00  0.00    +0.006 A 
ATOM     19  C   UNL     1       5.524   7.764   3.031  0.00  0.00    -0.048 A 
ATOM     20  C   UNL     1       4.688   8.836   3.276  0.00  0.00    +0.026 A 
ATOM     21  C   UNL     1       5.002  10.090   2.768  0.00  0.00    +0.034 A 
ATOM     22  C   UNL     1       6.153  10.260   2.010  0.00  0.00    +0.026 A 
ATOM     23  C   UNL     1       5.184   6.403   3.582  0.00  0.00    +0.044 C 
ENDBRANCH  12  21
ENDBRANCH  11  13
ENDBRANCH   1  11
BRANCH   8  24
ATOM     24  C   UNL     1      -0.473   9.608   0.424  0.00  0.00    +0.019 C 
BRANCH  24  25
ATOM     25  N   UNL     1      -0.483   8.146   0.282  0.00  0.00    +0.387 N 
ATOM     26  C   UNL     1      -1.128   7.744  -0.976  0.00  0.00    -0.059 C 
ATOM     27  C   UNL     1      -1.190   6.216  -1.049  0.00  0.00    +0.086 C 
ATOM     28  N   UNL     1       0.171   5.669  -0.960  0.00  0.00    -0.333 N 
ATOM     29  C   UNL     1       0.816   6.071   0.297  0.00  0.00    +0.086 C 
ATOM     30  C   UNL     1       0.878   7.599   0.371  0.00  0.00    -0.059 C 
ATOM     31  H   UNL     1      -1.072   7.730   1.113  0.00  0.00    -0.081 HD
BRANCH  28  32
ATOM     32  C   UNL     1       0.162   4.279  -1.096  0.00  0.00    +0.030 A 
ATOM     33  C   UNL     1      -1.039   3.607  -1.287  0.00  0.00    +0.023 A 
ATOM     34  C   UNL     1      -1.044   2.233  -1.427  0.00  0.00    +0.002 A 
ATOM     35  C   UNL     1       0.142   1.525  -1.366  0.00  0.00    +0.012 A 
ATOM     36  C   UNL     1       1.339   2.192  -1.176  0.00  0.00    +0.057 A 
ATOM     37  C   UNL     1       1.352   3.566  -1.041  0.00  0.00    +0.035 A 
BRANCH  36  38
ATOM     38  C   UNL     1       2.631   1.417  -1.117  0.00  0.00    +0.417 C 
ATOM     39  F   UNL     1       2.364   0.053  -1.278  0.00  0.00    -0.166 F 
ATOM     40  F   UNL     1       3.481   1.850  -2.140  0.00  0.00    -0.166 F 
ATOM     41  F   UNL     1       3.245   1.629   0.122  0.00  0.00    -0.166 F 
ENDBRANCH  36  38
ENDBRANCH  28  32
ENDBRANCH  24  25
ENDBRANCH   8  24
TORSDOF 7
