REMARK  Name = ZINC44362099
REMARK  9 active torsions:
REMARK  status: ('A' for Active; 'I' for Inactive)
REMARK    1  A    between atoms: C_1  and  C_2
REMARK    2  A    between atoms: C_2  and  O_3
REMARK    3  A    between atoms: O_3  and  C_4
REMARK    4  A    between atoms: C_4  and  C_6
REMARK    5  A    between atoms: C_6  and  C_8
REMARK    6  A    between atoms: C_6  and  N_19
REMARK    7  A    between atoms: C_8  and  C_9
REMARK    8  A    between atoms: C_12  and  C_17
REMARK    9  A    between atoms: C_14  and  O_15
REMARK                            x       y       z     vdW  Elec       q    Type
REMARK                         _______ _______ _______ _____ _____    ______ ____
ROOT
ATOM      1  C   UNL     1       0.509  -2.323  -3.742  0.00  0.00    +0.033 C 
ENDROOT
BRANCH   1   2
ATOM      2  C   UNL     1       1.238  -2.768  -4.984  0.00  0.00    -0.005 A 
ATOM      3  C   UNL     1       1.801  -1.830  -5.828  0.00  0.00    +0.022 A 
ATOM      4  C   UNL     1       2.470  -2.237  -6.968  0.00  0.00    +0.022 A 
ATOM      5  C   UNL     1       2.577  -3.583  -7.266  0.00  0.00    -0.019 A 
ATOM      6  C   UNL     1       2.015  -4.525  -6.425  0.00  0.00    +0.063 A 
ATOM      7  C   UNL     1       1.349  -4.119  -5.277  0.00  0.00    +0.134 A 
ATOM      8 BR   UNL     1       2.161  -6.366  -6.834  0.00  0.00    -0.046 Br
ATOM      9  C   UNL     1       3.307  -4.024  -8.509  0.00  0.00    +0.046 C 
ATOM     10 BR   UNL     1       3.239  -0.950  -8.121  0.00  0.00    -0.050 Br
BRANCH   7  11
ATOM     11  O   UNL     1       0.801  -5.043  -4.445  0.00  0.00    -0.505 OA
ATOM     12  H   UNL     1      -0.113  -5.274  -4.660  0.00  0.00    +0.292 HD
ENDBRANCH   7  11
ENDBRANCH   1   2
BRANCH   1  13
ATOM     13  C   UNL     1       1.468  -2.353  -2.550  0.00  0.00    +0.040 C 
BRANCH  13  14
ATOM     14  N   UNL     1       1.877  -3.739  -2.285  0.00  0.00    +0.387 N 
ATOM     15  H   UNL     1       2.509  -3.759  -1.499  0.00  0.00    -0.089 HD
ATOM     16  H   UNL     1       1.062  -4.296  -2.076  0.00  0.00    -0.089 HD
ATOM     17  H   UNL     1       2.341  -4.114  -3.099  0.00  0.00    -0.089 HD
ENDBRANCH  13  14
BRANCH  13  18
ATOM     18  C   UNL     1       0.775  -1.794  -1.334  0.00  0.00    +0.293 C 
ATOM     19  O   UNL     1       0.314  -2.540  -0.504  0.00  0.00    -0.253 OA
BRANCH  18  20
ATOM     20  O   UNL     1       0.671  -0.465  -1.174  0.00  0.00    -0.466 OA
BRANCH  20  22
ATOM     21  C   UNL     1      -0.019   1.526   0.010  0.00  0.00    +0.048 C 
ATOM     22  C   UNL     1       0.002  -0.004   0.002  0.00  0.00    +0.228 C 
ENDBRANCH  20  22
ENDBRANCH  18  20
ENDBRANCH  13  18
ENDBRANCH   1  13
TORSDOF 7
