REMARK  Name = ZINC16194482
REMARK  9 active torsions:
REMARK  status: ('A' for Active; 'I' for Inactive)
REMARK    1  A    between atoms: C_1  and  O_2
REMARK    2  A    between atoms: O_2  and  C_3
REMARK    3  A    between atoms: C_4  and  C_11
REMARK    4  A    between atoms: C_11  and  N_40
REMARK    5  A    between atoms: C_12  and  C_13
REMARK    6  A    between atoms: C_12  and  N_40
REMARK    7  A    between atoms: C_13  and  N_14
REMARK    8  A    between atoms: N_14  and  C_15
REMARK    9  A    between atoms: C_18  and  N_21
REMARK                            x       y       z     vdW  Elec       q    Type
REMARK                         _______ _______ _______ _____ _____    ______ ____
ROOT
ATOM      1  N   UNL     1       3.556  -5.006  -0.058  0.00  0.00    +0.383 N 
ATOM      2  H   UNL     1       4.079  -4.739  -0.900  0.00  0.00    -0.085 HD
ATOM      3  H   UNL     1       4.095  -4.747   0.777  0.00  0.00    -0.085 HD
ENDROOT
BRANCH   1   4
ATOM      4  C   UNL     1       3.341  -6.466  -0.063  0.00  0.00    -0.043 C 
BRANCH   4   6
ATOM      5  C   UNL     1       5.402  -7.299   1.094  0.00  0.00    +0.135 A 
ATOM      6  C   UNL     1       4.677  -7.162  -0.080  0.00  0.00    -0.021 A 
ATOM      7  C   UNL     1       5.182  -7.660  -1.265  0.00  0.00    +0.020 A 
ATOM      8  C   UNL     1       6.409  -8.300  -1.282  0.00  0.00    +0.019 A 
ATOM      9  C   UNL     1       7.132  -8.443  -0.111  0.00  0.00    +0.034 A 
ATOM     10  C   UNL     1       6.630  -7.947   1.077  0.00  0.00    +0.061 A 
ATOM     11 BR   UNL     1       7.618  -8.144   2.678  0.00  0.00    -0.046 Br
ATOM     12 BR   UNL     1       7.098  -8.979  -2.906  0.00  0.00    -0.050 Br
BRANCH   5  14
ATOM     13  C   UNL     1       4.097  -7.681   3.045  0.00  0.00    +0.277 C 
ATOM     14  O   UNL     1       4.910  -6.805   2.261  0.00  0.00    -0.494 OA
ENDBRANCH   5  14
ENDBRANCH   4   6
ENDBRANCH   1   4
BRANCH   1  15
ATOM     15  C   UNL     1       2.263  -4.298  -0.042  0.00  0.00    -0.063 C 
BRANCH  15  16
ATOM     16  C   UNL     1       2.518  -2.789  -0.037  0.00  0.00    +0.082 C 
BRANCH  16  17
ATOM     17  N   UNL     1       1.238  -2.077  -0.021  0.00  0.00    -0.346 N 
ATOM     18  H   UNL     1       0.406  -2.576  -0.015  0.00  0.00    +0.146 HD
BRANCH  17  19
ATOM     19  C   UNL     1       1.215  -0.681  -0.013  0.00  0.00    +0.027 A 
ATOM     20  C   UNL     1       0.002  -0.004   0.002  0.00  0.00    +0.025 A 
ATOM     21  C   UNL     1      -0.017   1.377   0.010  0.00  0.00    +0.034 A 
ATOM     22  C   UNL     1       1.171   2.086   0.002  0.00  0.00    +0.126 A 
ATOM     23  C   UNL     1       2.380   1.416  -0.013  0.00  0.00    +0.034 A 
ATOM     24  C   UNL     1       2.406   0.035  -0.021  0.00  0.00    +0.025 A 
BRANCH  22  25
ATOM     25  N   UNL     1       1.147   3.566   0.010  0.00  0.00    +0.056 N 
ATOM     26  O   UNL     1       0.082   4.158   0.023  0.00  0.00    -0.126 OA
ATOM     27  O   UNL     1       2.191   4.192   0.003  0.00  0.00    -0.126 OA
ENDBRANCH  22  25
ENDBRANCH  17  19
ENDBRANCH  16  17
ENDBRANCH  15  16
ENDBRANCH   1  15
TORSDOF 8
