REMARK  Name = ZINC19863572
REMARK  3 active torsions:
REMARK  status: ('A' for Active; 'I' for Inactive)
REMARK    1  A    between atoms: C_3  and  S_10
REMARK    2  A    between atoms: C_6  and  C_7
REMARK    3  A    between atoms: S_10  and  C_11
REMARK                            x       y       z     vdW  Elec       q    Type
REMARK                         _______ _______ _______ _____ _____    ______ ____
ROOT
ATOM      1  C   UNL     1      -2.452   3.811   0.034  0.00  0.00    +0.015 A 
ATOM      2  C   UNL     1      -2.424   5.181   0.042  0.00  0.00    +0.036 A 
ATOM      3  C   UNL     1      -1.196   5.839   0.039  0.00  0.00    +0.103 A 
ATOM      4  N   UNL     1      -0.058   5.157   0.030  0.00  0.00    -0.248 NA
ATOM      5  C   UNL     1      -0.042   3.840   0.029  0.00  0.00    +0.123 A 
ATOM      6  C   UNL     1      -1.234   3.117   0.025  0.00  0.00    +0.030 A 
ENDROOT
BRANCH   6   7
ATOM      7  C   UNL     1      -1.214   1.639   0.017  0.00  0.00    +0.096 C 
ATOM      8  N   UNL     1      -2.334   0.972   0.018  0.00  0.00    -0.387 N 
ATOM      9  N   UNL     1      -0.011   0.966   0.007  0.00  0.00    -0.345 N 
ATOM     10  H   UNL     1      -2.319  -0.128   0.012  0.00  0.00    +0.157 HD
ATOM     11  H   UNL     1       0.004  -0.134   0.001  0.00  0.00    +0.144 HD
ATOM     12  H   UNL     1       0.934   1.529   0.006  0.00  0.00    +0.144 HD
ATOM     13  H   UNL     1      -3.294   1.508   0.026  0.00  0.00    +0.157 HD
ENDBRANCH   6   7
BRANCH   3  14
ATOM     14  S   UNL     1      -1.154   7.600   0.048  0.00  0.00    -0.041 S 
BRANCH  14  15
ATOM     15  C   UNL     1       0.566   7.986   0.042  0.00  0.00    +0.164 A 
ATOM     16  N   UNL     1       1.621   7.181   0.039  0.00  0.00    -0.135 NA
ATOM     17  N   UNL     1       2.799   7.631   0.030  0.00  0.00    -0.149 NA
ATOM     18  C   UNL     1       3.058   8.923   0.035  0.00  0.00    +0.182 A 
ATOM     19  S   UNL     1       1.390   9.575   0.046  0.00  0.00    -0.047 S 
ENDBRANCH  14  15
ENDBRANCH   3  14
TORSDOF 3
