REMARK  Name = ZINC12642873
REMARK  12 active torsions:
REMARK  status: ('A' for Active; 'I' for Inactive)
REMARK    1  A    between atoms: C_1  and  C_2
REMARK    2  A    between atoms: C_4  and  N_14
REMARK    3  A    between atoms: N_5  and  C_7
REMARK    4  A    between atoms: C_15  and  C_17
REMARK    5  A    between atoms: C_17  and  S_18
REMARK    6  A    between atoms: S_18  and  C_19
REMARK    7  A    between atoms: C_22  and  C_31
REMARK    8  A    between atoms: N_23  and  C_24
REMARK    9  A    between atoms: C_31  and  C_33
REMARK   10  A    between atoms: C_31  and  N_60
REMARK   11  A    between atoms: C_34  and  N_60
REMARK   12  A    between atoms: C_35  and  N_60
REMARK                            x       y       z     vdW  Elec       q    Type
REMARK                         _______ _______ _______ _____ _____    ______ ____
ROOT
ATOM      1  S   UNL     1       1.768  -2.116  -0.026  0.00  0.00    -0.076 S 
ENDROOT
BRANCH   1   2
ATOM      2  C   UNL     1       1.242  -0.434  -0.012  0.00  0.00    +0.197 A 
ATOM      3  N   UNL     1       0.002  -0.004   0.002  0.00  0.00    -0.122 NA
ATOM      4  N   UNL     1      -0.015   1.281   0.009  0.00  0.00    -0.135 NA
ATOM      5  C   UNL     1       1.202   1.746   0.000  0.00  0.00    +0.125 A 
ATOM      6  N   UNL     1       2.049   0.670  -0.014  0.00  0.00    -0.275 N 
BRANCH   6   7
ATOM      7  C   UNL     1       3.452   0.696  -0.027  0.00  0.00    +0.050 A 
ATOM      8  C   UNL     1       4.148   1.216   1.055  0.00  0.00    +0.029 A 
ATOM      9  C   UNL     1       5.529   1.234   1.043  0.00  0.00    +0.040 A 
ATOM     10  C   UNL     1       6.219   0.746  -0.053  0.00  0.00    +0.124 A 
ATOM     11  C   UNL     1       5.526   0.232  -1.137  0.00  0.00    +0.040 A 
ATOM     12  C   UNL     1       4.146   0.206  -1.125  0.00  0.00    +0.029 A 
ATOM     13  F   UNL     1       7.570   0.770  -0.066  0.00  0.00    -0.205 F 
ENDBRANCH   6   7
BRANCH   5  14
ATOM     14  C   UNL     1       1.603   3.199   0.004  0.00  0.00    -0.003 C 
ATOM     15  C   UNL     1       1.365   3.797  -1.384  0.00  0.00    -0.005 C 
BRANCH  14  18
ATOM     16  C   UNL     1       1.243   5.322   1.112  0.00  0.00    -0.096 C 
ATOM     17  C   UNL     1      -0.631   3.855   0.668  0.00  0.00    -0.096 C 
ATOM     18  N   UNL     1       0.803   3.913   1.021  0.00  0.00    +0.382 N 
ATOM     19  H   UNL     1       0.941   3.461   1.932  0.00  0.00    -0.082 HD
ENDBRANCH  14  18
ENDBRANCH   5  14
ENDBRANCH   1   2
BRANCH   1  20
ATOM     20  C   UNL     1       0.161  -2.948  -0.015  0.00  0.00    +0.173 C 
BRANCH  20  22
ATOM     21  N   UNL     1      -0.696  -5.269  -0.019  0.00  0.00    -0.270 N 
ATOM     22  C   UNL     1       0.368  -4.441  -0.025  0.00  0.00    +0.229 C 
ATOM     23  O   UNL     1       1.491  -4.897  -0.037  0.00  0.00    -0.275 OA
ATOM     24  H   UNL     1      -1.595  -4.904  -0.009  0.00  0.00    +0.156 HD
BRANCH  21  28
ATOM     25  C   UNL     1       1.480  -9.760  -0.061  0.00  0.00    +0.067 C 
ATOM     26  C   UNL     1       0.438  -8.671  -0.047  0.00  0.00    +0.062 A 
ATOM     27  C   UNL     1       0.693  -7.297  -0.042  0.00  0.00    +0.068 A 
ATOM     28  C   UNL     1      -0.504  -6.650  -0.028  0.00  0.00    +0.129 A 
ATOM     29  N   UNL     1      -1.480  -7.598  -0.018  0.00  0.00    -0.218 N 
ATOM     30  N   UNL     1      -0.858  -8.853  -0.036  0.00  0.00    -0.170 NA
BRANCH  29  31
ATOM     31  C   UNL     1      -2.862  -7.361   0.003  0.00  0.00    +0.068 A 
ATOM     32  C   UNL     1      -3.372  -6.280   0.710  0.00  0.00    +0.030 A 
ATOM     33  C   UNL     1      -4.733  -6.047   0.726  0.00  0.00    +0.040 A 
ATOM     34  C   UNL     1      -5.590  -6.895   0.046  0.00  0.00    +0.124 A 
ATOM     35  C   UNL     1      -5.085  -7.977  -0.655  0.00  0.00    +0.040 A 
ATOM     36  C   UNL     1      -3.724  -8.211  -0.678  0.00  0.00    +0.030 A 
ATOM     37  F   UNL     1      -6.922  -6.668   0.068  0.00  0.00    -0.205 F 
ENDBRANCH  29  31
ENDBRANCH  21  28
ENDBRANCH  20  22
ENDBRANCH   1  20
TORSDOF 8
