REMARK  Name = ZINC35427435
REMARK  5 active torsions:
REMARK  status: ('A' for Active; 'I' for Inactive)
REMARK    1  A    between atoms: C_1  and  C_2
REMARK    2  A    between atoms: C_2  and  N_3
REMARK    3  A    between atoms: C_17  and  C_31
REMARK    4  A    between atoms: N_23  and  C_24
REMARK    5  A    between atoms: C_29  and  C_30
REMARK                            x       y       z     vdW  Elec       q    Type
REMARK                         _______ _______ _______ _____ _____    ______ ____
ROOT
ATOM      1  N   UNL     1       1.057  -0.548   1.115  0.00  0.00    +0.383 N 
ATOM      2  C   UNL     1       1.182  -2.011   1.070  0.00  0.00    -0.074 C 
ATOM      3  C   UNL     1       2.111  -2.500   2.184  0.00  0.00    +0.018 C 
ATOM      4  C   UNL     1       1.609  -1.921   3.504  0.00  0.00    -0.034 A 
ATOM      5  C   UNL     1       1.990  -2.429   4.760  0.00  0.00    +0.004 A 
ATOM      6  C   UNL     1       1.452  -1.824   5.853  0.00  0.00    +0.090 A 
ATOM      7  S   UNL     1       0.439  -0.535   5.194  0.00  0.00    -0.077 S 
ATOM      8  C   UNL     1       0.754  -0.862   3.481  0.00  0.00    -0.021 A 
ATOM      9  C   UNL     1       0.229  -0.161   2.272  0.00  0.00    -0.035 C 
ATOM     10  N   UNL     1       1.696  -2.221   7.162  0.00  0.00    -0.312 N 
ATOM     11  C   UNL     1       1.996  -1.510   8.273  0.00  0.00    +0.092 A 
ATOM     12  C   UNL     1       2.208  -2.383   9.284  0.00  0.00    +0.020 A 
ATOM     13  C   UNL     1       2.009  -3.683   8.772  0.00  0.00    +0.025 A 
ATOM     14  C   UNL     1       1.673  -3.559   7.480  0.00  0.00    +0.049 A 
ATOM     15  C   UNL     1       1.282  -4.617   6.492  0.00  0.00    +0.155 C 
ATOM     16  N   UNL     1       2.312  -4.799   5.441  0.00  0.00    -0.268 N 
ATOM     17  C   UNL     1       2.959  -3.579   4.927  0.00  0.00    +0.148 C 
ATOM     18  C   UNL     1       2.641  -6.021   4.978  0.00  0.00    +0.308 C 
ATOM     19  O   UNL     1       2.089  -7.009   5.423  0.00  0.00    -0.252 OA
ATOM     20  N   UNL     1       3.583  -6.149   4.022  0.00  0.00    -0.269 N 
ATOM     21  H   UNL     1       4.065  -5.368   3.709  0.00  0.00    +0.156 HD
ATOM     22  H   UNL     1       1.974  -0.136   1.204  0.00  0.00    -0.081 HD
ENDROOT
BRANCH  20  23
ATOM     23  C   UNL     1       3.865  -7.409   3.482  0.00  0.00    +0.038 A 
ATOM     24  C   UNL     1       3.617  -8.556   4.225  0.00  0.00    +0.023 A 
ATOM     25  C   UNL     1       3.896  -9.797   3.688  0.00  0.00    +0.002 A 
ATOM     26  C   UNL     1       4.422  -9.899   2.413  0.00  0.00    +0.000 A 
ATOM     27  C   UNL     1       4.670  -8.759   1.671  0.00  0.00    +0.005 A 
ATOM     28  C   UNL     1       4.387  -7.514   2.200  0.00  0.00    -0.029 A 
ATOM     29  C   UNL     1       4.652  -6.272   1.389  0.00  0.00    +0.045 C 
ENDBRANCH  20  23
BRANCH  15  30
ATOM     30  C   UNL     1      -0.018  -4.223   5.840  0.00  0.00    -0.021 A 
ATOM     31  C   UNL     1      -0.290  -4.621   4.544  0.00  0.00    +0.006 A 
ATOM     32  C   UNL     1      -1.482  -4.259   3.946  0.00  0.00    +0.000 A 
ATOM     33  C   UNL     1      -2.403  -3.499   4.643  0.00  0.00    +0.000 A 
ATOM     34  C   UNL     1      -2.131  -3.101   5.939  0.00  0.00    +0.000 A 
ATOM     35  C   UNL     1      -0.941  -3.467   6.538  0.00  0.00    +0.006 A 
ENDBRANCH  15  30
BRANCH   1  37
ATOM     36  C   UNL     1       0.407   1.457  -0.131  0.00  0.00    -0.017 C 
ATOM     37  C   UNL     1       0.424  -0.073  -0.123  0.00  0.00    -0.082 C 
ENDBRANCH   1  37
TORSDOF 3
