REMARK  Name = ZINC40463673
REMARK  10 active torsions:
REMARK  status: ('A' for Active; 'I' for Inactive)
REMARK    1  A    between atoms: C_1  and  S_2
REMARK    2  A    between atoms: S_2  and  C_3
REMARK    3  A    between atoms: C_3  and  C_4
REMARK    4  A    between atoms: C_4  and  C_5
REMARK    5  A    between atoms: C_5  and  C_7
REMARK    6  A    between atoms: C_5  and  N_22
REMARK    7  A    between atoms: N_9  and  C_10
REMARK    8  A    between atoms: C_13  and  N_17
REMARK    9  A    between atoms: N_17  and  S_18
REMARK   10  A    between atoms: S_18  and  C_21
REMARK                            x       y       z     vdW  Elec       q    Type
REMARK                         _______ _______ _______ _____ _____    ______ ____
ROOT
ATOM      1  C   UNL     1       1.963  -3.782  -3.103  0.00  0.00    +0.203 C 
ATOM      2  O   UNL     1       1.270  -4.456  -3.835  0.00  0.00    -0.277 OA
ATOM      3  N   UNL     1       2.911  -4.369  -2.345  0.00  0.00    -0.287 N 
ATOM      4  H   UNL     1       3.510  -3.824  -1.810  0.00  0.00    +0.155 HD
ENDROOT
BRANCH   3   5
ATOM      5  C   UNL     1       3.032  -5.765  -2.330  0.00  0.00    +0.035 A 
ATOM      6  C   UNL     1       3.392  -6.418  -1.159  0.00  0.00    +0.025 A 
ATOM      7  C   UNL     1       3.512  -7.793  -1.143  0.00  0.00    +0.028 A 
ATOM      8  C   UNL     1       3.271  -8.524  -2.298  0.00  0.00    +0.066 A 
ATOM      9  C   UNL     1       2.909  -7.872  -3.471  0.00  0.00    +0.065 A 
ATOM     10  C   UNL     1       2.785  -6.496  -3.484  0.00  0.00    +0.045 A 
ATOM     11 CL   UNL     1       2.608  -8.785  -4.916  0.00  0.00    -0.082 Cl
BRANCH   8  12
ATOM     12  N   UNL     1       3.393  -9.919  -2.283  0.00  0.00    -0.219 N 
ATOM     13  H   UNL     1       3.733 -10.385  -3.062  0.00  0.00    +0.173 HD
BRANCH  12  14
ATOM     14  S   UNL     1       2.954 -10.773  -0.933  0.00  0.00    +0.040 S 
ATOM     15  O   UNL     1       3.119 -12.136  -1.298  0.00  0.00    -0.155 OA
ATOM     16  O   UNL     1       3.723 -10.207   0.119  0.00  0.00    -0.155 OA
ATOM     17  C   UNL     1       1.196 -10.398  -0.695  0.00  0.00    +0.218 C 
ENDBRANCH  12  14
ENDBRANCH   8  12
ENDBRANCH   3   5
BRANCH   1  18
ATOM     18  C   UNL     1       1.765  -2.290  -3.040  0.00  0.00    +0.014 C 
BRANCH  18  19
ATOM     19  N   UNL     1       1.057  -1.839  -4.245  0.00  0.00    +0.386 N 
ATOM     20  H   UNL     1       0.924  -0.839  -4.204  0.00  0.00    -0.089 HD
ATOM     21  H   UNL     1       1.601  -2.072  -5.062  0.00  0.00    -0.089 HD
ATOM     22  H   UNL     1       0.159  -2.295  -4.298  0.00  0.00    -0.089 HD
ENDBRANCH  18  19
BRANCH  18  23
ATOM     23  C   UNL     1       0.940  -1.936  -1.801  0.00  0.00    +0.003 C 
BRANCH  23  24
ATOM     24  C   UNL     1       0.844  -0.415  -1.669  0.00  0.00    +0.068 C 
BRANCH  24  26
ATOM     25  C   UNL     1      -0.153   1.818  -0.188  0.00  0.00    +0.084 C 
ATOM     26  S   UNL     1      -0.135   0.004  -0.200  0.00  0.00    -0.164 S 
ENDBRANCH  24  26
ENDBRANCH  23  24
ENDBRANCH  18  23
ENDBRANCH   1  18
TORSDOF 8
