REMARK  Name = ZINC34829953
REMARK  6 active torsions:
REMARK  status: ('A' for Active; 'I' for Inactive)
REMARK    1  A    between atoms: C_1  and  C_2
REMARK    2  A    between atoms: C_5  and  C_8
REMARK    3  A    between atoms: N_17  and  C_18
REMARK    4  A    between atoms: C_18  and  C_19
REMARK    5  A    between atoms: C_25  and  C_28
REMARK    6  A    between atoms: N_31  and  C_32
REMARK                            x       y       z     vdW  Elec       q    Type
REMARK                         _______ _______ _______ _____ _____    ______ ____
ROOT
ATOM      1  C   UNL     1      -3.082  -4.812   1.915  0.00  0.00    +0.199 C 
ATOM      2  O   UNL     1      -2.601  -5.371   2.878  0.00  0.00    -0.278 OA
ATOM      3  N   UNL     1      -4.405  -4.556   1.876  0.00  0.00    -0.300 N 
ATOM      4  C   UNL     1      -5.003  -3.885   0.713  0.00  0.00    +0.126 C 
ATOM      5  C   UNL     1      -5.758  -2.642   1.200  0.00  0.00    +0.128 C 
ATOM      6  N   UNL     1      -6.628  -3.029   2.319  0.00  0.00    -0.280 N 
ATOM      7  C   UNL     1      -6.030  -3.700   3.482  0.00  0.00    +0.092 C 
ATOM      8  C   UNL     1      -5.276  -4.948   2.993  0.00  0.00    +0.130 C 
ATOM      9  C   UNL     1      -5.060  -2.746   4.182  0.00  0.00    +0.030 C 
ATOM     10  C   UNL     1      -7.951  -2.772   2.280  0.00  0.00    +0.303 C 
ATOM     11  O   UNL     1      -8.676  -3.181   3.167  0.00  0.00    -0.253 OA
ATOM     12  N   UNL     1      -8.470  -2.064   1.258  0.00  0.00    -0.296 N 
ATOM     13  H   UNL     1      -7.906  -1.800   0.514  0.00  0.00    +0.151 HD
ENDROOT
BRANCH  12  14
ATOM     14  C   UNL     1      -9.887  -1.692   1.270  0.00  0.00    +0.074 C 
ATOM     15  C   UNL     1     -10.721  -2.842   0.703  0.00  0.00    +0.022 C 
ATOM     16  C   UNL     1     -12.201  -2.454   0.716  0.00  0.00    +0.002 C 
ATOM     17  C   UNL     1     -12.407  -1.203  -0.142  0.00  0.00    +0.000 C 
ATOM     18  C   UNL     1     -11.573  -0.053   0.424  0.00  0.00    +0.002 C 
ATOM     19  C   UNL     1     -10.093  -0.442   0.412  0.00  0.00    +0.022 C 
ENDBRANCH  12  14
BRANCH   1  20
ATOM     20  C   UNL     1      -2.201  -4.404   0.763  0.00  0.00    +0.020 C 
BRANCH  20  29
ATOM     21  C   UNL     1       0.057  -4.287  -0.023  0.00  0.00    -0.005 C 
ATOM     22  C   UNL     1       1.479  -4.781   0.224  0.00  0.00    -0.047 A 
ATOM     23  C   UNL     1       2.614  -4.203  -0.339  0.00  0.00    +0.010 A 
ATOM     24  C   UNL     1       3.839  -4.707  -0.061  0.00  0.00    +0.045 A 
ATOM     25  S   UNL     1       3.441  -6.059   1.038  0.00  0.00    -0.101 S 
ATOM     26  C   UNL     1       1.684  -5.852   1.042  0.00  0.00    -0.010 A 
ATOM     27  C   UNL     1       0.632  -6.638   1.754  0.00  0.00    +0.024 C 
ATOM     28  C   UNL     1      -0.727  -6.256   1.141  0.00  0.00    -0.072 C 
ATOM     29  N   UNL     1      -0.813  -4.792   1.046  0.00  0.00    +0.393 N 
ATOM     30  H   UNL     1      -0.529  -4.386   1.925  0.00  0.00    -0.080 HD
BRANCH  21  35
ATOM     31  C   UNL     1      -0.019   1.491  -0.013  0.00  0.00    +0.044 C 
ATOM     32  C   UNL     1       0.001  -0.015  -0.016  0.00  0.00    -0.050 A 
ATOM     33  C   UNL     1       0.003  -0.705  -1.214  0.00  0.00    +0.003 A 
ATOM     34  C   UNL     1       0.022  -2.087  -1.216  0.00  0.00    +0.002 A 
ATOM     35  C   UNL     1       0.038  -2.780  -0.020  0.00  0.00    -0.057 A 
ATOM     36  C   UNL     1       0.037  -2.091   1.178  0.00  0.00    +0.002 A 
ATOM     37  C   UNL     1       0.023  -0.708   1.180  0.00  0.00    +0.003 A 
ENDBRANCH  21  35
ENDBRANCH  20  29
ENDBRANCH   1  20
TORSDOF 4
