REMARK  Name = ZINC01262773
REMARK  3 active torsions:
REMARK  status: ('A' for Active; 'I' for Inactive)
REMARK    1  A    between atoms: C_3  and  S_21
REMARK    2  A    between atoms: C_6  and  N_7
REMARK    3  A    between atoms: S_21  and  N_24
REMARK                            x       y       z     vdW  Elec       q    Type
REMARK                         _______ _______ _______ _____ _____    ______ ____
ROOT
ATOM      1  C   UNL     1      -2.137  -0.486   0.122  0.00  0.00    +0.026 A 
ATOM      2  C   UNL     1      -3.412  -0.849   0.508  0.00  0.00    +0.031 A 
ATOM      3  C   UNL     1      -4.323   0.120   0.889  0.00  0.00    +0.111 A 
ATOM      4  C   UNL     1      -3.957   1.454   0.889  0.00  0.00    +0.031 A 
ATOM      5  C   UNL     1      -2.682   1.822   0.509  0.00  0.00    +0.026 A 
ATOM      6  C   UNL     1      -1.765   0.852   0.127  0.00  0.00    +0.044 A 
ENDROOT
BRANCH   6   7
ATOM      7  N   UNL     1      -0.470   1.222  -0.260  0.00  0.00    -0.210 N 
ATOM      8  C   UNL     1      -0.048   2.500  -0.280  0.00  0.00    +0.230 C 
ATOM      9  O   UNL     1      -0.617   3.454   0.205  0.00  0.00    -0.274 OA
ATOM     10  C   UNL     1       1.290   2.525  -1.038  0.00  0.00    +0.092 C 
ATOM     11  C   UNL     1       0.926   2.681  -2.516  0.00  0.00    +0.042 C 
ATOM     12  C   UNL     1       1.853   1.961  -3.433  0.00  0.00    -0.011 C 
ATOM     13  C   UNL     1       2.664   1.020  -3.074  0.00  0.00    +0.015 C 
ATOM     14  C   UNL     1       2.795   0.550  -1.673  0.00  0.00    +0.060 C 
ATOM     15  C   UNL     1       1.760   1.091  -0.741  0.00  0.00    +0.093 C 
ATOM     16  C   UNL     1       0.470   0.329  -0.643  0.00  0.00    +0.230 C 
ATOM     17  O   UNL     1       0.303  -0.851  -0.868  0.00  0.00    -0.274 OA
ATOM     18 CL   UNL     1       3.629   0.252  -4.296  0.00  0.00    -0.089 Cl
ENDBRANCH   6   7
BRANCH   3  19
ATOM     19  S   UNL     1      -5.951  -0.346   1.373  0.00  0.00    +0.080 S 
ATOM     20  O   UNL     1      -5.875  -1.696   1.809  0.00  0.00    -0.148 OA
ATOM     21  O   UNL     1      -6.441   0.697   2.205  0.00  0.00    -0.148 OA
BRANCH  19  22
ATOM     22  N   UNL     1      -6.888  -0.342   0.008  0.00  0.00    -0.228 N 
ATOM     23  C   UNL     1      -6.633  -1.237  -1.004  0.00  0.00    +0.186 C 
ATOM     24  H   UNL     1      -5.395  -2.760  -1.547  0.00  0.00    +0.159 HD
ATOM     25  N   UNL     1      -7.411  -1.234  -2.138  0.00  0.00    -0.370 N 
ATOM     26  H   UNL     1      -7.617   0.292  -0.079  0.00  0.00    +0.191 HD
ATOM     27  H   UNL     1      -8.140  -0.600  -2.224  0.00  0.00    +0.159 HD
ATOM     28  H   UNL     1      -7.231  -1.866  -2.851  0.00  0.00    +0.159 HD
ATOM     29  N   UNL     1      -5.624  -2.077  -0.825  0.00  0.00    -0.370 N 
ATOM     30  H   UNL     1      -5.072  -2.040   0.040  0.00  0.00    +0.159 HD
ENDBRANCH  19  22
ENDBRANCH   3  19
TORSDOF 3
