REMARK  Name = ZINC66952142
REMARK  7 active torsions:
REMARK  status: ('A' for Active; 'I' for Inactive)
REMARK    1  A    between atoms: C_10  and  C_11
REMARK    2  A    between atoms: C_10  and  O_27
REMARK    3  A    between atoms: C_11  and  N_12
REMARK    4  A    between atoms: N_15  and  C_16
REMARK    5  A    between atoms: C_19  and  O_22
REMARK    6  A    between atoms: O_22  and  C_23
REMARK    7  A    between atoms: C_23  and  C_24
REMARK                            x       y       z     vdW  Elec       q    Type
REMARK                         _______ _______ _______ _____ _____    ______ ____
ROOT
ATOM      1  N   UNL     1       4.873   1.449  -0.550  0.00  0.00    -0.296 N 
ATOM      2  C   UNL     1       5.557   2.326  -1.312  0.00  0.00    +0.304 C 
ATOM      3  O   UNL     1       6.248   1.924  -2.228  0.00  0.00    -0.253 OA
ATOM      4  N   UNL     1       5.475   3.647  -1.058  0.00  0.00    -0.269 N 
ATOM      5  H   UNL     1       4.322   1.770   0.181  0.00  0.00    +0.150 HD
ATOM      6  H   UNL     1       4.986   3.962  -0.282  0.00  0.00    +0.156 HD
ENDROOT
BRANCH   4   7
ATOM      7  C   UNL     1       6.098   4.565  -1.915  0.00  0.00    +0.035 A 
ATOM      8  C   UNL     1       6.628   5.742  -1.404  0.00  0.00    +0.027 A 
ATOM      9  C   UNL     1       7.242   6.646  -2.249  0.00  0.00    +0.047 A 
ATOM     10  C   UNL     1       7.329   6.378  -3.607  0.00  0.00    +0.121 A 
ATOM     11  C   UNL     1       6.799   5.202  -4.118  0.00  0.00    +0.047 A 
ATOM     12  C   UNL     1       6.190   4.295  -3.273  0.00  0.00    +0.027 A 
BRANCH  10  13
ATOM     13  O   UNL     1       7.933   7.268  -4.438  0.00  0.00    -0.483 OA
BRANCH  13  14
ATOM     14  C   UNL     1       7.987   6.928  -5.825  0.00  0.00    +0.324 C 
BRANCH  14  15
ATOM     15  C   UNL     1       8.687   8.025  -6.584  0.00  0.00    +0.248 C 
ATOM     16  O   UNL     1       9.100   9.002  -5.996  0.00  0.00    -0.272 OA
ATOM     17  N   UNL     1       8.855   7.921  -7.918  0.00  0.00    -0.327 N 
ATOM     18  H   UNL     1       8.525   7.139  -8.388  0.00  0.00    +0.145 HD
ATOM     19  H   UNL     1       9.306   8.627  -8.406  0.00  0.00    +0.145 HD
ENDBRANCH  14  15
ENDBRANCH  13  14
ENDBRANCH  10  13
ENDBRANCH   4   7
BRANCH   1  20
ATOM     20  C   UNL     1       4.962   0.013  -0.826  0.00  0.00    +0.145 C 
BRANCH  20  30
ATOM     21  C   UNL     1       4.429  -4.926  -0.698  0.00  0.00    +0.000 A 
ATOM     22  C   UNL     1       4.373  -4.002  -1.725  0.00  0.00    +0.000 A 
ATOM     23  C   UNL     1       4.250  -2.659  -1.433  0.00  0.00    +0.007 A 
ATOM     24  C   UNL     1       4.185  -2.227  -0.114  0.00  0.00    -0.011 A 
ATOM     25  C   UNL     1       4.247  -3.147   0.909  0.00  0.00    -0.041 A 
ATOM     26  C   UNL     1       4.366  -4.498   0.612  0.00  0.00    +0.004 A 
ATOM     27  C   UNL     1       4.199  -2.748   2.361  0.00  0.00    +0.035 C 
ATOM     28  C   UNL     1       3.645  -1.333   2.512  0.00  0.00    +0.008 C 
ATOM     29  C   UNL     1       4.424  -0.406   1.572  0.00  0.00    +0.041 C 
ATOM     30  C   UNL     1       4.044  -0.748   0.133  0.00  0.00    +0.107 C 
BRANCH  30  31
ATOM     31  O   UNL     1       2.690  -0.358  -0.103  0.00  0.00    -0.382 OA
ATOM     32  H   UNL     1       2.382  -0.529  -1.004  0.00  0.00    +0.211 HD
ENDBRANCH  30  31
ENDBRANCH  20  30
ENDBRANCH   1  20
TORSDOF 7
