REMARK  Name = ZINC32579244
REMARK  9 active torsions:
REMARK  status: ('A' for Active; 'I' for Inactive)
REMARK    1  A    between atoms: C_1  and  C_2
REMARK    2  A    between atoms: C_4  and  O_5
REMARK    3  A    between atoms: N_13  and  C_14
REMARK    4  A    between atoms: C_14  and  N_16
REMARK    5  A    between atoms: N_16  and  N_17
REMARK    6  A    between atoms: C_18  and  C_20
REMARK    7  A    between atoms: C_20  and  C_22
REMARK    8  A    between atoms: C_20  and  O_23
REMARK    9  A    between atoms: O_23  and  C_24
REMARK                            x       y       z     vdW  Elec       q    Type
REMARK                         _______ _______ _______ _____ _____    ______ ____
ROOT
ATOM      1  C   UNL     1      -3.552  -1.417   1.348  0.00  0.00    +0.151 C 
ATOM      2  S   UNL     1      -5.182  -1.920   1.205  0.00  0.00    -0.017 S 
ENDROOT
BRANCH   1  14
ATOM      3  C   UNL     1      -5.102  -8.258   2.724  0.00  0.00    +0.045 C 
ATOM      4  C   UNL     1      -3.884  -7.783   1.973  0.00  0.00    -0.033 A 
ATOM      5  C   UNL     1      -3.058  -8.667   1.354  0.00  0.00    +0.091 A 
ATOM      6  C   UNL     1      -1.925  -8.198   0.658  0.00  0.00    +0.285 A 
ATOM      7  O   UNL     1      -1.632  -6.890   0.586  0.00  0.00    -0.425 OA
ATOM      8  C   UNL     1      -2.411  -5.960   1.179  0.00  0.00    +0.141 A 
ATOM      9  C   UNL     1      -3.559  -6.358   1.891  0.00  0.00    +0.021 A 
ATOM     10  C   UNL     1      -4.370  -5.398   2.506  0.00  0.00    +0.013 A 
ATOM     11  C   UNL     1      -4.042  -4.076   2.420  0.00  0.00    +0.024 A 
ATOM     12  C   UNL     1      -2.909  -3.675   1.711  0.00  0.00    +0.036 A 
ATOM     13  C   UNL     1      -2.095  -4.614   1.095  0.00  0.00    +0.070 A 
ATOM     14  N   UNL     1      -2.590  -2.320   1.627  0.00  0.00    -0.296 N 
ATOM     15  H   UNL     1      -1.554  -1.988   1.788  0.00  0.00    +0.154 HD
BRANCH   6  16
ATOM     16  O   UNL     1      -1.193  -9.001   0.107  0.00  0.00    -0.480 OA
ATOM     17  H   UNL     1      -0.306  -8.651  -0.440  0.00  0.00    +0.295 HD
ENDBRANCH   6  16
ENDBRANCH   1  14
BRANCH   1  18
ATOM     18  N   UNL     1      -3.229  -0.119   1.181  0.00  0.00    -0.246 N 
ATOM     19  H   UNL     1      -4.014   0.617   0.953  0.00  0.00    +0.172 HD
BRANCH  18  20
ATOM     20  N   UNL     1      -1.895   0.292   1.298  0.00  0.00    -0.232 N 
ATOM     21  C   UNL     1      -1.573   1.590   1.132  0.00  0.00    +0.270 C 
ATOM     22  O   UNL     1      -2.438   2.402   0.880  0.00  0.00    -0.270 OA
ATOM     23  H   UNL     1      -1.111  -0.445   1.526  0.00  0.00    +0.173 HD
BRANCH  21  24
ATOM     24  C   UNL     1      -0.138   2.032   1.258  0.00  0.00    +0.257 C 
ATOM     25  C   UNL     1       0.691   1.399   0.138  0.00  0.00    +0.062 C 
BRANCH  24  26
ATOM     26  O   UNL     1      -0.067   3.455   1.156  0.00  0.00    -0.480 OA
BRANCH  26  27
ATOM     27  C   UNL     1       1.014   4.061   1.714  0.00  0.00    +0.122 A 
ATOM     28  C   UNL     1       1.998   3.299   2.327  0.00  0.00    +0.048 A 
ATOM     29  C   UNL     1       3.099   3.915   2.888  0.00  0.00    +0.042 A 
ATOM     30  C   UNL     1       3.216   5.295   2.849  0.00  0.00    +0.124 A 
ATOM     31  C   UNL     1       2.232   6.057   2.243  0.00  0.00    +0.042 A 
ATOM     32  C   UNL     1       1.133   5.443   1.676  0.00  0.00    +0.048 A 
ATOM     33  F   UNL     1       4.292   5.896   3.403  0.00  0.00    -0.205 F 
ENDBRANCH  26  27
ENDBRANCH  24  26
ENDBRANCH  21  24
ENDBRANCH  18  20
ENDBRANCH   1  18
TORSDOF 7
