REMARK  Name = ZINC39938628
REMARK  8 active torsions:
REMARK  status: ('A' for Active; 'I' for Inactive)
REMARK    1  A    between atoms: C_1  and  C_2
REMARK    2  A    between atoms: C_6  and  N_12
REMARK    3  A    between atoms: C_9  and  C_11
REMARK    4  A    between atoms: C_13  and  C_15
REMARK    5  A    between atoms: C_15  and  S_16
REMARK    6  A    between atoms: S_16  and  C_17
REMARK    7  A    between atoms: N_22  and  C_23
REMARK    8  A    between atoms: C_23  and  C_24
REMARK                            x       y       z     vdW  Elec       q    Type
REMARK                         _______ _______ _______ _____ _____    ______ ____
ROOT
ATOM      1  S   UNL     1      -6.357  -5.960  -1.070  0.00  0.00    -0.109 S 
ENDROOT
BRANCH   1   2
ATOM      2  C   UNL     1      -6.264  -7.184  -2.406  0.00  0.00    +0.236 C 
ATOM      3  N   UNL     1      -4.912  -7.765  -2.482  0.00  0.00    -0.259 N 
ATOM      4  N   UNL     1      -4.418  -7.438  -3.750  0.00  0.00    -0.283 N 
ATOM      5  C   UNL     1      -5.274  -6.754  -4.429  0.00  0.00    +0.179 C 
ATOM      6  N   UNL     1      -6.446  -6.534  -3.716  0.00  0.00    -0.271 N 
ATOM      7  N   UNL     1      -5.053  -6.293  -5.720  0.00  0.00    -0.299 N 
ATOM      8  C   UNL     1      -5.535  -4.969  -6.144  0.00  0.00    +0.136 C 
ATOM      9  C   UNL     1      -4.369  -4.216  -6.795  0.00  0.00    +0.179 C 
ATOM     10  O   UNL     1      -3.789  -5.036  -7.812  0.00  0.00    -0.377 OA
ATOM     11  C   UNL     1      -3.223  -6.256  -7.328  0.00  0.00    +0.179 C 
ATOM     12  C   UNL     1      -4.325  -7.111  -6.702  0.00  0.00    +0.136 C 
ATOM     13  H   UNL     1      -4.456  -8.272  -1.791  0.00  0.00    +0.169 HD
ATOM     14  H   UNL     1      -3.541  -7.694  -4.077  0.00  0.00    +0.187 HD
BRANCH   6  15
ATOM     15  C   UNL     1      -7.629  -5.801  -4.172  0.00  0.00    +0.145 C 
BRANCH  15  16
ATOM     16  C   UNL     1      -8.639  -6.773  -4.727  0.00  0.00    -0.030 A 
ATOM     17  C   UNL     1      -8.547  -7.190  -6.042  0.00  0.00    +0.005 A 
ATOM     18  C   UNL     1      -9.473  -8.081  -6.551  0.00  0.00    +0.000 A 
ATOM     19  C   UNL     1     -10.491  -8.556  -5.745  0.00  0.00    +0.000 A 
ATOM     20  C   UNL     1     -10.582  -8.139  -4.430  0.00  0.00    +0.000 A 
ATOM     21  C   UNL     1      -9.654  -7.251  -3.920  0.00  0.00    +0.005 A 
ENDBRANCH  15  16
ENDBRANCH   6  15
ENDBRANCH   1   2
BRANCH   1  22
ATOM     22  C   UNL     1      -5.047  -4.771  -1.472  0.00  0.00    +0.168 C 
BRANCH  22  24
ATOM     23  N   UNL     1      -4.116  -2.687  -0.519  0.00  0.00    -0.285 N 
ATOM     24  C   UNL     1      -5.015  -3.686  -0.426  0.00  0.00    +0.225 C 
ATOM     25  O   UNL     1      -5.799  -3.713   0.499  0.00  0.00    -0.275 OA
ATOM     26  H   UNL     1      -3.489  -2.666  -1.259  0.00  0.00    +0.151 HD
BRANCH  23  31
ATOM     27  C   UNL     1      -1.379   2.201   0.125  0.00  0.00    +0.030 C 
ATOM     28  C   UNL     1      -1.159   0.687   0.145  0.00  0.00    +0.099 C 
ATOM     29  C   UNL     1      -2.488  -0.017   0.100  0.00  0.00    -0.011 C 
ATOM     30  C   UNL     1      -2.678  -1.186   0.736  0.00  0.00    +0.065 C 
ATOM     31  C   UNL     1      -4.085  -1.633   0.497  0.00  0.00    +0.243 C 
ATOM     32  O   UNL     1      -4.792  -0.464   0.028  0.00  0.00    -0.347 OA
ATOM     33  C   UNL     1      -3.771   0.358  -0.578  0.00  0.00    +0.146 C 
ATOM     34  C   UNL     1      -3.679   0.066  -2.077  0.00  0.00    +0.043 C 
ATOM     35  C   UNL     1      -1.580  -1.790   1.508  0.00  0.00    +0.258 C 
ATOM     36  O   UNL     1      -1.659  -2.910   1.975  0.00  0.00    -0.269 OA
ATOM     37  N   UNL     1      -0.475  -1.020   1.666  0.00  0.00    -0.247 N 
ATOM     38  N   UNL     1      -0.461   0.308   1.380  0.00  0.00    -0.233 NA
ATOM     39  H   UNL     1       0.338  -1.433   1.995  0.00  0.00    +0.169 HD
ATOM     40  H   UNL     1       0.480   0.672   1.390  0.00  0.00    +0.145 HD
ENDBRANCH  23  31
ENDBRANCH  22  24
ENDBRANCH   1  22
TORSDOF 6
