REMARK  Name = ZINC63737457
REMARK  4 active torsions:
REMARK  status: ('A' for Active; 'I' for Inactive)
REMARK    1  A    between atoms: C_6  and  C_11
REMARK    2  A    between atoms: C_15  and  N_17
REMARK    3  A    between atoms: N_17  and  S_18
REMARK    4  A    between atoms: S_18  and  C_21
REMARK                            x       y       z     vdW  Elec       q    Type
REMARK                         _______ _______ _______ _____ _____    ______ ____
ROOT
ATOM      1  C   UNL     1       3.656  -2.764   1.185  0.00  0.00    -0.020 A 
ATOM      2  C   UNL     1       3.659  -2.118   2.408  0.00  0.00    +0.006 A 
ATOM      3  C   UNL     1       4.129  -2.766   3.535  0.00  0.00    +0.002 A 
ATOM      4  C   UNL     1       4.597  -4.062   3.443  0.00  0.00    +0.027 A 
ATOM      5  C   UNL     1       4.595  -4.714   2.217  0.00  0.00    +0.075 A 
ATOM      6  C   UNL     1       4.117  -4.062   1.087  0.00  0.00    +0.032 A 
ENDROOT
BRANCH   1  12
ATOM      7  C   UNL     1      -0.016   1.348   0.009  0.00  0.00    +0.001 A 
ATOM      8  C   UNL     1       1.166   2.101   0.002  0.00  0.00    +0.002 A 
ATOM      9  C   UNL     1       2.391   1.535  -0.013  0.00  0.00    +0.026 A 
ATOM     10  C   UNL     1       2.529   0.120  -0.022  0.00  0.00    +0.043 A 
ATOM     11  N   UNL     1       3.587  -0.654  -0.037  0.00  0.00    -0.374 N 
ATOM     12  C   UNL     1       3.143  -2.053  -0.041  0.00  0.00    +0.133 C 
ATOM     13  C   UNL     1       1.631  -2.008  -0.025  0.00  0.00    +0.012 C 
ATOM     14  C   UNL     1       1.295  -0.698  -0.014  0.00  0.00    -0.004 A 
ATOM     15  C   UNL     1       0.002  -0.004   0.002  0.00  0.00    +0.010 A 
ATOM     16  H   UNL     1       4.509  -0.353  -0.045  0.00  0.00    +0.161 HD
ENDBRANCH   1  12
BRANCH   5  17
ATOM     17  N   UNL     1       5.067  -6.025   2.120  0.00  0.00    -0.096 NA
BRANCH  17  18
ATOM     18  S   UNL     1       5.631  -6.804   3.469  0.00  0.00    +0.108 S 
ATOM     19  O   UNL     1       6.808  -6.117   3.872  0.00  0.00    -0.147 OA
ATOM     20  O   UNL     1       4.516  -6.977   4.333  0.00  0.00    -0.147 OA
BRANCH  18  21
ATOM     21  C   UNL     1       6.135  -8.416   2.968  0.00  0.00    +0.194 A 
ATOM     22  H   UNL     1       8.149  -8.201   2.432  0.00  0.00    +0.168 HD
ATOM     23  C   UNL     1       5.370  -9.524   2.939  0.00  0.00    +0.131 A 
ATOM     24  N   UNL     1       6.126 -10.539   2.498  0.00  0.00    -0.351 N 
ATOM     25  C   UNL     1       7.331 -10.103   2.251  0.00  0.00    +0.172 A 
ATOM     26  N   UNL     1       7.378  -8.782   2.527  0.00  0.00    -0.330 N 
ATOM     27  H   UNL     1       5.825 -11.454   2.380  0.00  0.00    +0.166 HD
ENDBRANCH  18  21
ENDBRANCH  17  18
ENDBRANCH   5  17
TORSDOF 4
