REMARK  Name = ZINC07659881
REMARK  11 active torsions:
REMARK  status: ('A' for Active; 'I' for Inactive)
REMARK    1  A    between atoms: C_1  and  C_2
REMARK    2  A    between atoms: N_10  and  N_14
REMARK    3  A    between atoms: C_15  and  C_17
REMARK    4  A    between atoms: C_17  and  N_18
REMARK    5  A    between atoms: N_18  and  C_19
REMARK    6  A    between atoms: N_18  and  C_20
REMARK    7  A    between atoms: C_20  and  C_21
REMARK    8  A    between atoms: N_23  and  C_24
REMARK    9  A    between atoms: C_24  and  C_25
REMARK   10  A    between atoms: C_24  and  C_26
REMARK   11  A    between atoms: C_24  and  C_27
REMARK                            x       y       z     vdW  Elec       q    Type
REMARK                         _______ _______ _______ _____ _____    ______ ____
ROOT
ATOM      1  N   UNL     1       3.303  -5.678  -0.062  0.00  0.00    -0.225 N 
ATOM      2  C   UNL     1       3.812  -6.196  -1.197  0.00  0.00    +0.213 C 
ATOM      3  O   UNL     1       3.841  -5.528  -2.209  0.00  0.00    -0.276 OA
ATOM      4  H   UNL     1       3.280  -6.212   0.747  0.00  0.00    +0.173 HD
ENDROOT
BRANCH   1  14
ATOM      5  C   UNL     1      -0.019   1.526   0.010  0.00  0.00    +0.007 C 
ATOM      6  C   UNL     1       0.002  -0.004   0.002  0.00  0.00    -0.014 C 
ATOM      7  C   UNL     1       0.716  -0.497  -1.258  0.00  0.00    +0.006 C 
ATOM      8  C   UNL     1       0.727  -2.028  -1.271  0.00  0.00    +0.035 C 
ATOM      9  C   UNL     1       1.442  -2.543  -0.027  0.00  0.00    +0.114 C 
ATOM     10  C   UNL     1       0.753  -2.041   1.238  0.00  0.00    +0.035 C 
ATOM     11  C   UNL     1       0.742  -0.510   1.242  0.00  0.00    +0.006 C 
ATOM     12  C   UNL     1       1.495  -4.053  -0.035  0.00  0.00    +0.263 C 
ATOM     13  O   UNL     1       0.556  -4.821  -0.030  0.00  0.00    -0.271 OA
ATOM     14  N   UNL     1       2.807  -4.367  -0.051  0.00  0.00    -0.137 N 
ATOM     15  C   UNL     1       3.576  -3.272  -0.053  0.00  0.00    +0.326 C 
ATOM     16  O   UNL     1       4.791  -3.300  -0.065  0.00  0.00    -0.251 OA
ATOM     17  N   UNL     1       2.853  -2.136  -0.039  0.00  0.00    -0.284 N 
ATOM     18  H   UNL     1       3.196  -1.229  -0.038  0.00  0.00    +0.151 HD
ENDBRANCH   1  14
BRANCH   2  19
ATOM     19  C   UNL     1       4.345  -7.605  -1.210  0.00  0.00    +0.020 C 
BRANCH  19  20
ATOM     20  N   UNL     1       4.839  -7.930  -2.554  0.00  0.00    +0.389 N 
ATOM     21  C   UNL     1       3.717  -7.931  -3.502  0.00  0.00    -0.095 C 
ATOM     22  H   UNL     1       5.519  -7.240  -2.838  0.00  0.00    -0.081 HD
BRANCH  20  23
ATOM     23  C   UNL     1       5.467  -9.258  -2.537  0.00  0.00    +0.019 C 
BRANCH  23  24
ATOM     24  C   UNL     1       6.082  -9.540  -3.884  0.00  0.00    +0.197 C 
ATOM     25  O   UNL     1       6.005  -8.716  -4.770  0.00  0.00    -0.278 OA
ATOM     26  N   UNL     1       6.718 -10.708  -4.103  0.00  0.00    -0.312 N 
ATOM     27  H   UNL     1       6.779 -11.367  -3.394  0.00  0.00    +0.149 HD
BRANCH  26  28
ATOM     28  C   UNL     1       7.316 -10.982  -5.412  0.00  0.00    +0.026 C 
ATOM     29  C   UNL     1       8.374  -9.921  -5.722  0.00  0.00    +0.031 C 
ATOM     30  C   UNL     1       7.970 -12.365  -5.395  0.00  0.00    +0.031 C 
ATOM     31  C   UNL     1       6.228 -10.945  -6.488  0.00  0.00    +0.031 C 
ENDBRANCH  26  28
ENDBRANCH  23  24
ENDBRANCH  20  23
ENDBRANCH  19  20
ENDBRANCH   2  19
TORSDOF 6
