REMARK  Name = ZINC63383780
REMARK  11 active torsions:
REMARK  status: ('A' for Active; 'I' for Inactive)
REMARK    1  A    between atoms: C_1  and  C_2
REMARK    2  A    between atoms: C_2  and  C_3
REMARK    3  A    between atoms: C_3  and  C_5
REMARK    4  A    between atoms: C_3  and  N_6
REMARK    5  A    between atoms: C_7  and  C_9
REMARK    6  A    between atoms: C_9  and  C_11
REMARK    7  A    between atoms: C_9  and  N_15
REMARK    8  A    between atoms: C_11  and  C_12
REMARK    9  A    between atoms: C_12  and  C_13
REMARK   10  A    between atoms: C_12  and  C_14
REMARK   11  A    between atoms: C_16  and  C_18
REMARK                            x       y       z     vdW  Elec       q    Type
REMARK                         _______ _______ _______ _____ _____    ______ ____
ROOT
ATOM      1  C   UNL     1       1.410   0.365  -8.361  0.00  0.00    +0.167 C 
ATOM      2  C   UNL     1       2.760   1.053  -8.082  0.00  0.00    +0.065 C 
ATOM      3  C   UNL     1       2.972   2.070  -9.176  0.00  0.00    -0.034 C 
ATOM      4  C   UNL     1       4.013   2.271  -9.978  0.00  0.00    -0.001 A 
ATOM      5  C   UNL     1       5.346   1.648 -10.024  0.00  0.00    +0.010 A 
ATOM      6  C   UNL     1       6.179   2.087 -11.004  0.00  0.00    +0.001 A 
ATOM      7  C   UNL     1       5.824   3.072 -11.931  0.00  0.00    +0.002 A 
ATOM      8  C   UNL     1       4.624   3.704 -11.958  0.00  0.00    +0.026 A 
ATOM      9  C   UNL     1       3.664   3.330 -10.972  0.00  0.00    +0.043 A 
ATOM     10  N   UNL     1       2.463   3.777 -10.757  0.00  0.00    -0.375 N 
ATOM     11  C   UNL     1       1.925   3.101  -9.575  0.00  0.00    +0.131 C 
ATOM     12  C   UNL     1       0.635   2.342  -9.884  0.00  0.00    +0.134 C 
ATOM     13  N   UNL     1       0.870   0.909  -9.614  0.00  0.00    -0.276 N 
ATOM     14  C   UNL     1       0.521   0.203 -10.707  0.00  0.00    +0.248 C 
ATOM     15  O   UNL     1       0.478  -1.010 -10.768  0.00  0.00    -0.270 OA
ATOM     16  C   UNL     1       0.204   1.111 -11.810  0.00  0.00    +0.042 A 
ATOM     17  C   UNL     1       0.262   2.457 -11.325  0.00  0.00    -0.013 A 
ATOM     18  C   UNL     1       0.009   3.548 -12.127  0.00  0.00    +0.006 A 
ATOM     19  C   UNL     1      -0.328   3.294 -13.453  0.00  0.00    +0.000 A 
ATOM     20  C   UNL     1      -0.410   2.009 -13.949  0.00  0.00    +0.001 A 
ATOM     21  C   UNL     1      -0.132   0.849 -13.141  0.00  0.00    +0.013 A 
ATOM     22  H   UNL     1       2.001   4.444 -11.288  0.00  0.00    +0.160 HD
ENDROOT
BRANCH   1  24
ATOM     23  N   UNL     1       0.754   0.245  -5.979  0.00  0.00    -0.302 N 
ATOM     24  C   UNL     1       0.454   0.645  -7.231  0.00  0.00    +0.235 C 
ATOM     25  O   UNL     1      -0.586   1.231  -7.447  0.00  0.00    -0.274 OA
ATOM     26  H   UNL     1       1.616  -0.159  -5.793  0.00  0.00    +0.150 HD
BRANCH  23  27
ATOM     27  C   UNL     1      -0.221   0.421  -4.900  0.00  0.00    +0.159 C 
BRANCH  27  29
ATOM     28  N   UNL     1      -0.155   0.804  -2.457  0.00  0.00    -0.311 N 
ATOM     29  C   UNL     1       0.491   0.410  -3.572  0.00  0.00    +0.234 C 
ATOM     30  O   UNL     1       1.647   0.049  -3.507  0.00  0.00    -0.274 OA
ATOM     31  H   UNL     1      -1.064   1.137  -2.516  0.00  0.00    +0.149 HD
BRANCH  28  32
ATOM     32  C   UNL     1       0.514   0.727  -1.156  0.00  0.00    +0.070 C 
ATOM     33  C   UNL     1       0.348  -0.681  -0.580  0.00  0.00    +0.028 C 
BRANCH  32  35
ATOM     34  C   UNL     1       0.165   3.161  -0.714  0.00  0.00    +0.005 C 
ATOM     35  C   UNL     1      -0.110   1.746  -0.201  0.00  0.00    +0.018 C 
ENDBRANCH  32  35
ENDBRANCH  28  32
ENDBRANCH  27  29
BRANCH  27  36
ATOM     36  C   UNL     1      -1.239  -0.721  -4.941  0.00  0.00    +0.034 C 
BRANCH  36  37
ATOM     37  C   UNL     1      -2.278  -0.519  -3.837  0.00  0.00    -0.015 C 
ATOM     38  C   UNL     1      -3.104   0.734  -4.137  0.00  0.00    +0.007 C 
ATOM     39  C   UNL     1      -3.202  -1.737  -3.777  0.00  0.00    +0.007 C 
ENDBRANCH  36  37
ENDBRANCH  27  36
ENDBRANCH  23  27
ENDBRANCH   1  24
TORSDOF 7
