REMARK  Name = ZINC39468259
REMARK  7 active torsions:
REMARK  status: ('A' for Active; 'I' for Inactive)
REMARK    1  A    between atoms: C_1  and  S_2
REMARK    2  A    between atoms: S_2  and  P_3
REMARK    3  A    between atoms: C_11  and  S_28
REMARK    4  A    between atoms: C_12  and  C_21
REMARK    5  A    between atoms: C_21  and  C_22
REMARK    6  A    between atoms: S_28  and  O_31
REMARK    7  A    between atoms: O_31  and  C_32
REMARK                            x       y       z     vdW  Elec       q    Type
REMARK                         _______ _______ _______ _____ _____    ______ ____
ROOT
ATOM      1  P   UNL     1      -0.759   0.672   3.872  0.00  0.00    +0.314 P 
ATOM      2  O   UNL     1       0.319   1.573   4.340  0.00  0.00    -0.262 OA
ATOM      3  N   UNL     1      -0.291  -0.904   4.006  0.00  0.00    -0.283 NA
ATOM      4  N   UNL     1      -1.276  -1.869   4.029  0.00  0.00    +0.398 N 
ATOM      5  C   UNL     1      -0.588  -3.147   4.269  0.00  0.00    -0.046 C 
ATOM      6  C   UNL     1      -1.577  -4.304   4.303  0.00  0.00    +0.006 C 
ATOM      7  C   UNL     1      -2.301  -4.421   2.988  0.00  0.00    +0.006 C 
ATOM      8  C   UNL     1      -3.479  -5.039   2.941  0.00  0.00    +0.128 C 
ATOM      9  C   UNL     1      -4.048  -5.609   4.174  0.00  0.00    -0.019 C 
ATOM     10  C   UNL     1      -3.643  -5.160   5.358  0.00  0.00    -0.017 C 
ATOM     11  C   UNL     1      -2.605  -4.066   5.414  0.00  0.00    +0.016 C 
ATOM     12  C   UNL     1      -3.280  -2.716   5.173  0.00  0.00    -0.003 C 
ATOM     13  C   UNL     1      -2.236  -1.596   5.101  0.00  0.00    -0.020 C 
ATOM     14  C   UNL     1      -2.996  -0.286   4.856  0.00  0.00    +0.157 C 
ATOM     15  O   UNL     1      -2.067   0.812   4.831  0.00  0.00    -0.312 OA
ATOM     16  H   UNL     1       0.647  -1.145   4.067  0.00  0.00    +0.112 HD
ATOM     17  H   UNL     1      -1.754  -1.887   3.140  0.00  0.00    -0.055 HD
ENDROOT
BRANCH   8  18
ATOM     18  S   UNL     1      -4.350  -5.174   1.416  0.00  0.00    +0.151 S 
ATOM     19  O   UNL     1      -4.555  -6.561   1.187  0.00  0.00    -0.131 OA
ATOM     20  O   UNL     1      -5.424  -4.245   1.478  0.00  0.00    -0.131 OA
BRANCH  18  21
ATOM     21  O   UNL     1      -3.415  -4.686   0.319  0.00  0.00    -0.342 OA
BRANCH  21  22
ATOM     22  C   UNL     1      -2.543  -5.629  -0.124  0.00  0.00    +0.157 A 
ATOM     23  C   UNL     1      -1.272  -5.713   0.426  0.00  0.00    +0.048 A 
ATOM     24  C   UNL     1      -0.387  -6.673  -0.026  0.00  0.00    +0.004 A 
ATOM     25  C   UNL     1      -0.767  -7.549  -1.026  0.00  0.00    +0.000 A 
ATOM     26  C   UNL     1      -2.033  -7.467  -1.576  0.00  0.00    +0.004 A 
ATOM     27  C   UNL     1      -2.923  -6.513  -1.124  0.00  0.00    +0.048 A 
ENDBRANCH  21  22
ENDBRANCH  18  21
ENDBRANCH   8  18
BRANCH   1  29
ATOM     28  C   UNL     1      -1.873   2.829   1.934  0.00  0.00    +0.096 C 
ATOM     29  S   UNL     1      -1.269   1.120   1.863  0.00  0.00    -0.059 S 
ENDBRANCH   1  29
BRANCH   9  30
ATOM     30  C   UNL     1      -5.087  -6.697   4.094  0.00  0.00    +0.072 C 
BRANCH  30  31
ATOM     31  C   UNL     1      -6.459  -6.078   4.015  0.00  0.00    -0.043 A 
ATOM     32  C   UNL     1      -7.091  -5.651   5.167  0.00  0.00    +0.004 A 
ATOM     33  C   UNL     1      -8.350  -5.083   5.095  0.00  0.00    +0.000 A 
ATOM     34  C   UNL     1      -8.975  -4.941   3.870  0.00  0.00    +0.000 A 
ATOM     35  C   UNL     1      -8.341  -5.367   2.718  0.00  0.00    +0.000 A 
ATOM     36  C   UNL     1      -7.081  -5.931   2.789  0.00  0.00    +0.004 A 
ENDBRANCH  30  31
ENDBRANCH   9  30
TORSDOF 6
