REMARK  Name = ZINC06155692
REMARK  11 active torsions:
REMARK  status: ('A' for Active; 'I' for Inactive)
REMARK    1  A    between atoms: C_1  and  C_2
REMARK    2  A    between atoms: C_2  and  O_3
REMARK    3  A    between atoms: O_3  and  C_4
REMARK    4  A    between atoms: C_7  and  N_10
REMARK    5  A    between atoms: C_11  and  C_13
REMARK    6  A    between atoms: C_18  and  N_19
REMARK    7  A    between atoms: C_20  and  C_22
REMARK    8  A    between atoms: C_22  and  N_63
REMARK    9  A    between atoms: C_23  and  N_63
REMARK   10  A    between atoms: C_28  and  C_33
REMARK   11  A    between atoms: C_30  and  C_32
REMARK                            x       y       z     vdW  Elec       q    Type
REMARK                         _______ _______ _______ _____ _____    ______ ____
ROOT
ATOM      1  C   UNL     1      -3.602   1.754  -0.166  0.00  0.00    +0.058 A 
ATOM      2  C   UNL     1      -4.766   0.984  -0.225  0.00  0.00    +0.015 A 
ATOM      3  C   UNL     1      -4.683  -0.391  -0.210  0.00  0.00    +0.001 A 
ATOM      4  C   UNL     1      -3.449  -1.017  -0.137  0.00  0.00    +0.002 A 
ATOM      5  C   UNL     1      -2.289  -0.270  -0.084  0.00  0.00    +0.024 A 
ATOM      6  C   UNL     1      -2.354   1.117  -0.092  0.00  0.00    +0.046 A 
ENDROOT
BRANCH   1   8
ATOM      7  N   UNL     1      -4.886   3.834  -0.151  0.00  0.00    -0.281 N 
ATOM      8  C   UNL     1      -3.684   3.226  -0.181  0.00  0.00    +0.250 C 
ATOM      9  O   UNL     1      -2.667   3.891  -0.220  0.00  0.00    -0.270 OA
ATOM     10  H   UNL     1      -5.698   3.306  -0.203  0.00  0.00    +0.155 HD
BRANCH   7  14
ATOM     11  C   UNL     1      -5.115   7.985   0.163  0.00  0.00    +0.121 A 
ATOM     12  C   UNL     1      -6.150   7.277  -0.430  0.00  0.00    +0.047 A 
ATOM     13  C   UNL     1      -6.075   5.902  -0.534  0.00  0.00    +0.027 A 
ATOM     14  C   UNL     1      -4.963   5.229  -0.046  0.00  0.00    +0.034 A 
ATOM     15  C   UNL     1      -3.930   5.938   0.553  0.00  0.00    +0.027 A 
ATOM     16  C   UNL     1      -4.004   7.313   0.651  0.00  0.00    +0.047 A 
BRANCH  11  17
ATOM     17  O   UNL     1      -5.189   9.339   0.265  0.00  0.00    -0.492 OA
BRANCH  17  19
ATOM     18  C   UNL     1      -4.350  11.512   0.909  0.00  0.00    +0.048 C 
ATOM     19  C   UNL     1      -4.088  10.005   0.886  0.00  0.00    +0.225 C 
ENDBRANCH  17  19
ENDBRANCH  11  17
ENDBRANCH   7  14
ENDBRANCH   1   8
BRANCH   6  20
ATOM     20  N   UNL     1      -1.185   1.873  -0.032  0.00  0.00    -0.286 N 
ATOM     21  C   UNL     1      -0.075   1.353   0.528  0.00  0.00    +0.200 C 
ATOM     22  O   UNL     1      -0.120   0.270   1.072  0.00  0.00    -0.278 OA
ATOM     23  H   UNL     1      -1.171   2.773  -0.394  0.00  0.00    +0.155 HD
BRANCH  21  24
ATOM     24  C   UNL     1       1.224   2.116   0.473  0.00  0.00    +0.016 C 
BRANCH  24  25
ATOM     25  N   UNL     1       2.274   1.330   1.148  0.00  0.00    +0.387 N 
ATOM     26  H   UNL     1       2.380   0.427   0.672  0.00  0.00    -0.085 HD
ATOM     27  H   UNL     1       2.004   1.172   2.126  0.00  0.00    -0.085 HD
BRANCH  25  28
ATOM     28  C   UNL     1       3.559   2.054   1.110  0.00  0.00    -0.068 C 
ATOM     29  C   UNL     1       3.628   3.035   2.281  0.00  0.00    -0.015 C 
ATOM     30  C   UNL     1       4.965   3.779   2.246  0.00  0.00    -0.001 C 
ATOM     31  C   UNL     1       6.111   2.772   2.356  0.00  0.00    +0.003 C 
ATOM     32  C   UNL     1       6.043   1.791   1.185  0.00  0.00    -0.013 C 
ATOM     33  C   UNL     1       4.706   1.047   1.220  0.00  0.00    -0.025 C 
ATOM     34  C   UNL     1       4.637   0.066   0.048  0.00  0.00    +0.006 C 
ATOM     35  C   UNL     1       6.164   2.560  -0.133  0.00  0.00    +0.008 C 
ENDBRANCH  25  28
ENDBRANCH  24  25
ENDBRANCH  21  24
ENDBRANCH   6  20
TORSDOF 8
