REMARK  Name = ZINC67562285
REMARK  5 active torsions:
REMARK  status: ('A' for Active; 'I' for Inactive)
REMARK    1  A    between atoms: C_7  and  C_21
REMARK    2  A    between atoms: C_8  and  S_10
REMARK    3  A    between atoms: S_10  and  N_13
REMARK    4  A    between atoms: N_13  and  C_14
REMARK    5  A    between atoms: C_17  and  O_20
REMARK                            x       y       z     vdW  Elec       q    Type
REMARK                         _______ _______ _______ _____ _____    ______ ____
ROOT
ATOM      1  C   UNL     1       1.097   1.085   0.674  0.00  0.00    +0.018 C 
ATOM      2  C   UNL     1       2.607   1.281   0.503  0.00  0.00    -0.077 C 
ATOM      3  N   UNL     1       3.037   0.786  -0.812  0.00  0.00    +0.382 N 
ATOM      4  C   UNL     1       3.004  -0.688  -0.821  0.00  0.00    -0.039 C 
ATOM      5  C   UNL     1       1.668  -1.131  -0.317  0.00  0.00    -0.021 A 
ATOM      6  C   UNL     1       0.776  -0.369   0.358  0.00  0.00    -0.025 A 
ATOM      7  C   UNL     1      -0.444  -1.062   0.721  0.00  0.00    +0.100 A 
ATOM      8  C   UNL     1      -0.553  -2.387   0.349  0.00  0.00    +0.157 A 
ATOM      9  S   UNL     1       0.890  -2.713  -0.446  0.00  0.00    -0.074 S 
ATOM     10  H   UNL     1       2.416   1.141  -1.524  0.00  0.00    -0.085 HD
ATOM     11  H   UNL     1       3.977   1.103  -0.998  0.00  0.00    -0.085 HD
ENDROOT
BRANCH   8  12
ATOM     12  S   UNL     1      -1.899  -3.485   0.643  0.00  0.00    +0.066 S 
ATOM     13  O   UNL     1      -1.720  -4.005   1.953  0.00  0.00    -0.153 OA
ATOM     14  O   UNL     1      -3.078  -2.796   0.252  0.00  0.00    -0.153 OA
BRANCH  12  15
ATOM     15  N   UNL     1      -1.727  -4.760  -0.400  0.00  0.00    -0.186 NA
ATOM     16  H   UNL     1      -1.560  -5.650  -0.054  0.00  0.00    +0.148 HD
BRANCH  15  17
ATOM     17  C   UNL     1      -1.828  -4.543  -1.845  0.00  0.00    +0.077 C 
ATOM     18  C   UNL     1      -3.253  -4.853  -2.309  0.00  0.00    +0.023 C 
ATOM     19  C   UNL     1      -3.358  -4.626  -3.819  0.00  0.00    +0.033 C 
ATOM     20  C   UNL     1      -2.374  -5.547  -4.543  0.00  0.00    +0.115 C 
ATOM     21  C   UNL     1      -0.949  -5.236  -4.079  0.00  0.00    +0.033 C 
ATOM     22  C   UNL     1      -0.844  -5.463  -2.569  0.00  0.00    +0.023 C 
BRANCH  20  23
ATOM     23  O   UNL     1      -2.472  -5.335  -5.952  0.00  0.00    -0.392 OA
ATOM     24  H   UNL     1      -1.875  -5.886  -6.476  0.00  0.00    +0.210 HD
ENDBRANCH  20  23
ENDBRANCH  15  17
ENDBRANCH  12  15
ENDBRANCH   8  12
BRANCH   7  25
ATOM     25  C   UNL     1      -1.519  -0.383   1.453  0.00  0.00    +0.389 C 
ATOM     26  O   UNL     1      -1.395   0.792   1.770  0.00  0.00    -0.240 OA
ATOM     27  O   UNL     1      -2.539  -0.993   1.747  0.00  0.00    -0.240 OA
ENDBRANCH   7  25
TORSDOF 5
