REMARK  Name = ZINC03524590
REMARK  10 active torsions:
REMARK  status: ('A' for Active; 'I' for Inactive)
REMARK    1  A    between atoms: C_1  and  C_2
REMARK    2  A    between atoms: C_5  and  N_9
REMARK    3  A    between atoms: C_7  and  C_8
REMARK    4  A    between atoms: C_10  and  C_27
REMARK    5  A    between atoms: C_12  and  C_15
REMARK    6  A    between atoms: C_13  and  C_14
REMARK    7  A    between atoms: C_15  and  C_17
REMARK    8  A    between atoms: C_17  and  S_18
REMARK    9  A    between atoms: S_18  and  C_19
REMARK   10  A    between atoms: C_23  and  N_25
REMARK                            x       y       z     vdW  Elec       q    Type
REMARK                         _______ _______ _______ _____ _____    ______ ____
ROOT
ATOM      1  C   UNL     1       1.514   4.692   0.013  0.00  0.00    +0.175 C 
ATOM      2  O   UNL     1       2.722   4.576   0.002  0.00  0.00    -0.291 OA
ENDROOT
BRANCH   1   6
ATOM      3  N   UNL     1      -0.017   1.397   0.010  0.00  0.00    -0.317 N 
ATOM      4  C   UNL     1      -1.150   2.163   0.019  0.00  0.00    +0.022 A 
ATOM      5  C   UNL     1      -0.805   3.461   0.028  0.00  0.00    +0.034 A 
ATOM      6  C   UNL     1       0.664   3.500   0.015  0.00  0.00    +0.039 A 
ATOM      7  C   UNL     1       1.079   2.181   0.004  0.00  0.00    +0.031 A 
ATOM      8  C   UNL     1       2.508   1.704  -0.012  0.00  0.00    +0.064 C 
ATOM      9  C   UNL     1      -2.561   1.634   0.021  0.00  0.00    +0.064 C 
BRANCH   3  14
ATOM     10  C   UNL     1       0.059  -4.277  -0.021  0.00  0.00    +0.044 C 
ATOM     11  C   UNL     1       0.039  -2.771  -0.013  0.00  0.00    -0.047 A 
ATOM     12  C   UNL     1       0.547  -2.079   1.072  0.00  0.00    +0.005 A 
ATOM     13  C   UNL     1       0.530  -0.699   1.083  0.00  0.00    +0.026 A 
ATOM     14  C   UNL     1       0.002  -0.004   0.002  0.00  0.00    +0.047 A 
ATOM     15  C   UNL     1      -0.512  -0.701  -1.083  0.00  0.00    +0.029 A 
ATOM     16  C   UNL     1      -0.487  -2.082  -1.090  0.00  0.00    -0.046 A 
ATOM     17  C   UNL     1      -1.039  -2.839  -2.271  0.00  0.00    +0.044 C 
ENDBRANCH   3  14
ENDBRANCH   1   6
BRANCH   1  18
ATOM     18  C   UNL     1       0.890   6.063   0.026  0.00  0.00    +0.157 C 
BRANCH  18  19
ATOM     19  S   UNL     1       2.193   7.320   0.021  0.00  0.00    -0.078 S 
BRANCH  19  20
ATOM     20  C   UNL     1       1.208   8.781   0.038  0.00  0.00    +0.192 A 
ATOM     21  N   UNL     1      -0.112   8.670   0.045  0.00  0.00    -0.207 NA
ATOM     22  C   UNL     1      -0.887   9.752   0.063  0.00  0.00    +0.122 A 
ATOM     23  C   UNL     1      -0.293  11.011   0.065  0.00  0.00    +0.086 A 
ATOM     24  C   UNL     1       1.096  11.088   0.052  0.00  0.00    +0.122 A 
ATOM     25  N   UNL     1       1.808   9.963   0.040  0.00  0.00    -0.207 NA
ATOM     26  N   UNL     1      -2.268   9.627   0.076  0.00  0.00    -0.343 N 
ATOM     27  H   UNL     1      -2.826  10.419   0.085  0.00  0.00    +0.144 HD
ATOM     28  H   UNL     1      -2.675   8.746   0.074  0.00  0.00    +0.144 HD
BRANCH  24  29
ATOM     29  N   UNL     1       1.731  12.320   0.054  0.00  0.00    -0.343 N 
ATOM     30  H   UNL     1       2.700  12.367   0.045  0.00  0.00    +0.144 HD
ATOM     31  H   UNL     1       1.207  13.136   0.063  0.00  0.00    +0.144 HD
ENDBRANCH  24  29
ENDBRANCH  19  20
ENDBRANCH  18  19
ENDBRANCH   1  18
TORSDOF 6
