REMARK  Name = ZINC02357031
REMARK  11 active torsions:
REMARK  status: ('A' for Active; 'I' for Inactive)
REMARK    1  A    between atoms: C_1  and  C_2
REMARK    2  A    between atoms: C_2  and  C_3
REMARK    3  A    between atoms: C_3  and  C_4
REMARK    4  A    between atoms: C_4  and  C_5
REMARK    5  A    between atoms: C_11  and  S_15
REMARK    6  A    between atoms: S_15  and  C_16
REMARK    7  A    between atoms: C_16  and  C_17
REMARK    8  A    between atoms: N_19  and  C_20
REMARK    9  A    between atoms: C_23  and  C_26
REMARK   10  A    between atoms: C_31  and  C_34
REMARK   11  A    between atoms: C_31  and  C_35
REMARK                            x       y       z     vdW  Elec       q    Type
REMARK                         _______ _______ _______ _____ _____    ______ ____
ROOT
ATOM      1  C   UNL     1       8.379 -10.879  -1.116  0.00  0.00    +0.048 A 
ATOM      2  C   UNL     1       7.225 -11.652  -1.119  0.00  0.00    +0.003 A 
ATOM      3  C   UNL     1       5.998 -11.048  -1.002  0.00  0.00    -0.026 A 
ATOM      4  C   UNL     1       5.926  -9.641  -0.884  0.00  0.00    +0.037 A 
ATOM      5  C   UNL     1       4.715  -8.809  -0.750  0.00  0.00    +0.092 A 
ATOM      6  C   UNL     1       4.930  -7.429  -0.651  0.00  0.00    +0.072 A 
ATOM      7  C   UNL     1       3.864  -6.549  -0.522  0.00  0.00    +0.115 A 
ATOM      8  N   UNL     1       2.629  -7.052  -0.489  0.00  0.00    -0.228 NA
ATOM      9  C   UNL     1       2.445  -8.356  -0.588  0.00  0.00    +0.223 A 
ATOM     10  N   UNL     1       3.426  -9.214  -0.711  0.00  0.00    -0.234 NA
ATOM     11  S   UNL     1       6.690  -7.242  -0.732  0.00  0.00    -0.064 S 
ATOM     12  C   UNL     1       7.150  -8.950  -0.894  0.00  0.00    +0.111 A 
ATOM     13  N   UNL     1       8.307  -9.567  -1.006  0.00  0.00    -0.244 NA
ATOM     14  C   UNL     1       4.718 -11.841  -0.991  0.00  0.00    +0.070 C 
ATOM     15  C   UNL     1       4.981 -13.248  -1.533  0.00  0.00    +0.068 C 
ATOM     16  O   UNL     1       6.132 -13.782  -0.869  0.00  0.00    -0.369 OA
ATOM     17  C   UNL     1       7.351 -13.148  -1.255  0.00  0.00    +0.197 C 
ATOM     18  C   UNL     1       3.769 -14.139  -1.258  0.00  0.00    +0.041 C 
ATOM     19  C   UNL     1       5.242 -13.178  -3.039  0.00  0.00    +0.041 C 
ENDROOT
BRANCH   1  20
ATOM     20  C   UNL     1       9.725 -11.544  -1.242  0.00  0.00    +0.056 C 
BRANCH  20  21
ATOM     21  C   UNL     1      10.105 -11.652  -2.720  0.00  0.00    +0.006 C 
BRANCH  21  23
ATOM     22  C   UNL     1      11.852 -12.436  -4.325  0.00  0.00    +0.004 C 
ATOM     23  C   UNL     1      11.472 -12.328  -2.847  0.00  0.00    -0.003 C 
ENDBRANCH  21  23
ENDBRANCH  20  21
ENDBRANCH   1  20
BRANCH   7  24
ATOM     24  S   UNL     1       4.135  -4.812  -0.398  0.00  0.00    -0.095 S 
BRANCH  24  25
ATOM     25  C   UNL     1       2.425  -4.236  -0.258  0.00  0.00    +0.172 C 
BRANCH  25  26
ATOM     26  C   UNL     1       2.410  -2.734  -0.137  0.00  0.00    +0.227 C 
ATOM     27  O   UNL     1       3.452  -2.114  -0.144  0.00  0.00    -0.275 OA
ATOM     28  N   UNL     1       1.237  -2.079  -0.020  0.00  0.00    -0.285 N 
ATOM     29  H   UNL     1       0.409  -2.578   0.062  0.00  0.00    +0.155 HD
BRANCH  28  30
ATOM     30  C   UNL     1       1.214  -0.680  -0.019  0.00  0.00    +0.033 A 
ATOM     31  C   UNL     1       2.137   0.031  -0.774  0.00  0.00    +0.023 A 
ATOM     32  C   UNL     1       2.111   1.412  -0.771  0.00  0.00    +0.005 A 
ATOM     33  C   UNL     1       1.168   2.086  -0.017  0.00  0.00    -0.050 A 
ATOM     34  C   UNL     1       0.248   1.380   0.736  0.00  0.00    +0.005 A 
ATOM     35  C   UNL     1       0.268  -0.001   0.737  0.00  0.00    +0.023 A 
ATOM     36  C   UNL     1       1.143   3.593  -0.015  0.00  0.00    +0.044 C 
ENDBRANCH  28  30
ENDBRANCH  25  26
ENDBRANCH  24  25
ENDBRANCH   7  24
TORSDOF 7
