REMARK  Name = ZINC05239642
REMARK  3 active torsions:
REMARK  status: ('A' for Active; 'I' for Inactive)
REMARK    1  A    between atoms: C_1  and  C_2
REMARK    2  A    between atoms: C_2  and  C_18
REMARK    3  A    between atoms: C_15  and  O_17
REMARK                            x       y       z     vdW  Elec       q    Type
REMARK                         _______ _______ _______ _____ _____    ______ ____
ROOT
ATOM      1  C   UNL     1       3.750   3.140  -0.296  0.00  0.00    +0.012 C 
ATOM      2  C   UNL     1       2.429   3.489  -0.986  0.00  0.00    -0.021 C 
ATOM      3  C   UNL     1       1.170   3.128  -0.092  0.00  0.00    +0.025 C 
ATOM      4  C   UNL     1       0.013   3.340  -1.120  0.00  0.00    +0.007 C 
ATOM      5  C   UNL     1       0.620   2.854  -2.462  0.00  0.00    +0.011 C 
ATOM      6  C   UNL     1       2.073   2.497  -2.092  0.00  0.00    +0.016 C 
ATOM      7  C   UNL     1       2.956   2.174  -3.268  0.00  0.00    +0.194 C 
ATOM      8  S   UNL     1       2.338   0.460  -3.607  0.00  0.00    +0.030 S 
ATOM      9  O   UNL     1       1.260   0.486  -4.533  0.00  0.00    -0.158 OA
ATOM     10  O   UNL     1       3.421  -0.446  -3.762  0.00  0.00    -0.158 OA
ATOM     11  N   UNL     1       1.642   0.086  -2.111  0.00  0.00    -0.188 NA
ATOM     12  C   UNL     1       2.041   1.175  -1.258  0.00  0.00    +0.113 C 
ATOM     13  C   UNL     1       1.286   1.562  -0.002  0.00  0.00    +0.137 C 
ATOM     14  C   UNL     1       2.402   4.939  -1.472  0.00  0.00    +0.012 C 
ATOM     15  H   UNL     1       1.100  -0.685  -1.881  0.00  0.00    +0.148 HD
ENDROOT
BRANCH  13  16
ATOM     16  O   UNL     1      -0.011   0.963   0.007  0.00  0.00    -0.390 OA
ATOM     17  H   UNL     1       0.002  -0.004   0.002  0.00  0.00    +0.210 HD
ENDBRANCH  13  16
TORSDOF 1
