REMARK  Name = ZINC59171166
REMARK  7 active torsions:
REMARK  status: ('A' for Active; 'I' for Inactive)
REMARK    1  A    between atoms: C_1  and  C_2
REMARK    2  A    between atoms: C_2  and  O_3
REMARK    3  A    between atoms: O_3  and  C_4
REMARK    4  A    between atoms: C_8  and  N_10
REMARK    5  A    between atoms: C_12  and  C_22
REMARK    6  A    between atoms: C_17  and  O_21
REMARK    7  A    between atoms: C_22  and  N_24
REMARK                            x       y       z     vdW  Elec       q    Type
REMARK                         _______ _______ _______ _____ _____    ______ ____
ROOT
ATOM      1  N   UNL     1       2.468  -3.908  -3.866  0.00  0.00    -0.325 N 
ATOM      2  C   UNL     1       3.145  -5.012  -3.636  0.00  0.00    +0.209 A 
ATOM      3  C   UNL     1       3.635  -5.853  -4.747  0.00  0.00    +0.064 A 
ATOM      4  C   UNL     1       4.743  -6.652  -4.503  0.00  0.00    +0.027 A 
ATOM      5  C   UNL     1       5.309  -6.631  -3.202  0.00  0.00    +0.018 A 
ATOM      6  C   UNL     1       6.540  -7.257  -2.954  0.00  0.00    +0.015 A 
ATOM      7  C   UNL     1       7.096  -7.196  -1.710  0.00  0.00    +0.046 A 
ATOM      8  C   UNL     1       6.446  -6.522  -0.678  0.00  0.00    +0.120 A 
ATOM      9  C   UNL     1       5.219  -5.913  -0.899  0.00  0.00    +0.092 A 
ATOM     10  C   UNL     1       4.638  -5.973  -2.154  0.00  0.00    +0.141 A 
ATOM     11  O   UNL     1       3.424  -5.416  -2.370  0.00  0.00    -0.439 OA
ATOM     12  H   UNL     1       2.360  -3.585  -4.774  0.00  0.00    +0.169 HD
ENDROOT
BRANCH   1  17
ATOM     13  C   UNL     1       1.484  -1.131  -1.702  0.00  0.00    +0.122 A 
ATOM     14  C   UNL     1       0.798  -1.816  -0.707  0.00  0.00    +0.046 A 
ATOM     15  C   UNL     1       0.670  -3.191  -0.768  0.00  0.00    +0.006 A 
ATOM     16  C   UNL     1       1.225  -3.894  -1.818  0.00  0.00    +0.026 A 
ATOM     17  C   UNL     1       1.917  -3.215  -2.824  0.00  0.00    +0.045 A 
ATOM     18  C   UNL     1       2.040  -1.825  -2.763  0.00  0.00    +0.071 A 
BRANCH  13  19
ATOM     19  O   UNL     1       1.606   0.221  -1.637  0.00  0.00    -0.492 OA
BRANCH  19  21
ATOM     20  C   UNL     1       1.247   2.380  -0.613  0.00  0.00    +0.048 C 
ATOM     21  C   UNL     1       1.008   0.872  -0.514  0.00  0.00    +0.225 C 
ENDBRANCH  19  21
ENDBRANCH  13  19
ENDBRANCH   1  17
BRANCH   8  22
ATOM     22  O   UNL     1       7.017  -6.460   0.551  0.00  0.00    -0.507 OA
ATOM     23  H   UNL     1       7.594  -5.695   0.679  0.00  0.00    +0.292 HD
ENDBRANCH   8  22
BRANCH   3  24
ATOM     24  C   UNL     1       2.973  -5.846  -6.060  0.00  0.00    +0.082 C 
ATOM     25  S   UNL     1       1.518  -4.971  -6.280  0.00  0.00    -0.035 S 
BRANCH  24  26
ATOM     26  N   UNL     1       3.512  -6.527  -7.090  0.00  0.00    -0.352 N 
ATOM     27  H   UNL     1       4.337  -7.023  -6.965  0.00  0.00    +0.143 HD
ATOM     28  H   UNL     1       3.076  -6.522  -7.956  0.00  0.00    +0.143 HD
ENDBRANCH  24  26
ENDBRANCH   3  24
TORSDOF 6
