REMARK  Name = ZINC38847439
REMARK  12 active torsions:
REMARK  status: ('A' for Active; 'I' for Inactive)
REMARK    1  A    between atoms: C_1  and  C_2
REMARK    2  A    between atoms: C_5  and  C_36
REMARK    3  A    between atoms: N_11  and  C_12
REMARK    4  A    between atoms: C_12  and  C_13
REMARK    5  A    between atoms: C_13  and  N_14
REMARK    6  A    between atoms: N_14  and  C_15
REMARK    7  A    between atoms: N_14  and  C_16
REMARK    8  A    between atoms: C_17  and  C_19
REMARK    9  A    between atoms: N_22  and  S_25
REMARK   10  A    between atoms: S_25  and  C_28
REMARK   11  A    between atoms: C_31  and  O_34
REMARK   12  A    between atoms: O_34  and  C_35
REMARK                            x       y       z     vdW  Elec       q    Type
REMARK                         _______ _______ _______ _____ _____    ______ ____
ROOT
ATOM      1  C   UNL     1      -0.755   1.539   0.134  0.00  0.00    +0.046 C 
ATOM      2  C   UNL     1      -0.546   0.047   0.081  0.00  0.00    -0.024 A 
ATOM      3  C   UNL     1      -0.621  -0.605  -1.122  0.00  0.00    +0.006 A 
ATOM      4  C   UNL     1      -0.435  -1.977  -1.216  0.00  0.00    +0.005 A 
ATOM      5  C   UNL     1      -0.168  -2.704  -0.070  0.00  0.00    -0.035 A 
ATOM      6  C   UNL     1      -0.091  -2.059   1.139  0.00  0.00    +0.044 A 
ATOM      7  C   UNL     1      -0.269  -0.663   1.272  0.00  0.00    +0.083 A 
ATOM      8  N   UNL     1      -0.158  -0.175   2.526  0.00  0.00    -0.224 NA
ATOM      9  C   UNL     1       0.103  -0.941   3.560  0.00  0.00    +0.168 A 
ATOM     10  S   UNL     1       0.217  -2.562   2.815  0.00  0.00    -0.052 S 
ATOM     11  N   UNL     1       0.244  -0.585   4.891  0.00  0.00    -0.252 N 
ATOM     12  C   UNL     1       0.188   0.713   5.252  0.00  0.00    +0.224 C 
ATOM     13  O   UNL     1       0.229   1.018   6.424  0.00  0.00    -0.275 OA
ATOM     14  C   UNL     1       0.037  -4.195  -0.148  0.00  0.00    +0.045 C 
ENDROOT
BRANCH  12  15
ATOM     15  C   UNL     1       0.073   1.783   4.197  0.00  0.00    +0.078 C 
ATOM     16  C   UNL     1       1.358   1.820   3.366  0.00  0.00    +0.030 C 
ATOM     17  C   UNL     1       1.224   2.885   2.273  0.00  0.00    +0.110 C 
ATOM     18  N   UNL     1       0.875   4.166   2.902  0.00  0.00    -0.177 NA
ATOM     19  C   UNL     1      -0.291   4.221   3.794  0.00  0.00    +0.110 C 
ATOM     20  C   UNL     1      -0.140   3.141   4.870  0.00  0.00    +0.030 C 
BRANCH  18  21
ATOM     21  S   UNL     1       1.780   5.522   2.612  0.00  0.00    +0.061 S 
ATOM     22  O   UNL     1       1.578   6.390   3.719  0.00  0.00    -0.153 OA
ATOM     23  O   UNL     1       3.070   5.074   2.221  0.00  0.00    -0.153 OA
BRANCH  21  24
ATOM     24  C   UNL     1       1.079   6.325   1.208  0.00  0.00    +0.106 A 
ATOM     25  C   UNL     1       1.519   6.002  -0.062  0.00  0.00    +0.032 A 
ATOM     26  C   UNL     1       0.971   6.630  -1.164  0.00  0.00    +0.047 A 
ATOM     27  C   UNL     1      -0.020   7.586  -0.995  0.00  0.00    +0.120 A 
ATOM     28  C   UNL     1      -0.460   7.908   0.281  0.00  0.00    +0.047 A 
ATOM     29  C   UNL     1       0.087   7.273   1.379  0.00  0.00    +0.032 A 
BRANCH  27  30
ATOM     30  O   UNL     1      -0.560   8.206  -2.077  0.00  0.00    -0.495 OA
ATOM     31  C   UNL     1      -1.577   9.178  -1.828  0.00  0.00    +0.277 C 
ENDBRANCH  27  30
ENDBRANCH  21  24
ENDBRANCH  18  21
ENDBRANCH  12  15
BRANCH  11  32
ATOM     32  C   UNL     1       0.456  -1.619   5.908  0.00  0.00    +0.097 C 
BRANCH  32  33
ATOM     33  C   UNL     1       1.945  -1.961   5.984  0.00  0.00    -0.060 C 
BRANCH  33  34
ATOM     34  N   UNL     1       2.157  -2.998   7.003  0.00  0.00    +0.377 N 
ATOM     35  C   UNL     1       3.567  -3.413   6.994  0.00  0.00    -0.097 C 
ATOM     36  C   UNL     1       1.813  -2.461   8.327  0.00  0.00    -0.097 C 
ATOM     37  H   UNL     1       1.571  -3.794   6.801  0.00  0.00    -0.083 HD
ENDBRANCH  33  34
ENDBRANCH  32  33
ENDBRANCH  11  32
TORSDOF 7
