REMARK  Name = ZINC37934066
REMARK  8 active torsions:
REMARK  status: ('A' for Active; 'I' for Inactive)
REMARK    1  A    between atoms: C_1  and  C_2
REMARK    2  A    between atoms: C_2  and  N_3
REMARK    3  A    between atoms: C_7  and  C_9
REMARK    4  A    between atoms: C_9  and  N_10
REMARK    5  A    between atoms: N_10  and  C_11
REMARK    6  A    between atoms: C_13  and  N_21
REMARK    7  A    between atoms: C_15  and  S_17
REMARK    8  A    between atoms: S_17  and  N_20
REMARK                            x       y       z     vdW  Elec       q    Type
REMARK                         _______ _______ _______ _____ _____    ______ ____
ROOT
ATOM      1  C   UNL     1      -2.454  -2.530   0.841  0.00  0.00    +0.031 A 
ATOM      2  C   UNL     1      -2.002  -3.302   1.902  0.00  0.00    +0.045 A 
ATOM      3  C   UNL     1      -2.871  -3.638   2.930  0.00  0.00    +0.028 A 
ATOM      4  C   UNL     1      -4.189  -3.200   2.895  0.00  0.00    +0.051 A 
ATOM      5  C   UNL     1      -4.636  -2.431   1.838  0.00  0.00    +0.108 A 
ATOM      6  C   UNL     1      -3.772  -2.091   0.815  0.00  0.00    +0.051 A 
ENDROOT
BRANCH   5   7
ATOM      7  S   UNL     1      -6.308  -1.878   1.797  0.00  0.00    +0.056 S 
ATOM      8  O   UNL     1      -6.622  -1.633   0.433  0.00  0.00    -0.153 OA
ATOM      9  O   UNL     1      -7.054  -2.783   2.600  0.00  0.00    -0.153 OA
BRANCH   7  10
ATOM     10  N   UNL     1      -6.358  -0.412   2.565  0.00  0.00    -0.204 NA
ATOM     11  H   UNL     1      -7.015   0.251   2.302  0.00  0.00    +0.144 HD
ATOM     12  H   UNL     1      -5.729  -0.216   3.277  0.00  0.00    +0.144 HD
ENDBRANCH   7  10
ENDBRANCH   5   7
BRANCH   3  13
ATOM     13  N   UNL     1      -2.421  -4.415   4.000  0.00  0.00    -0.358 N 
ATOM     14  H   UNL     1      -1.500  -4.721   4.024  0.00  0.00    +0.142 HD
ATOM     15  H   UNL     1      -3.028  -4.650   4.719  0.00  0.00    +0.142 HD
ENDBRANCH   3  13
BRANCH   1  16
ATOM     16  N   UNL     1      -1.583  -2.190  -0.197  0.00  0.00    -0.345 N 
ATOM     17  H   UNL     1      -1.898  -1.646  -0.936  0.00  0.00    +0.146 HD
BRANCH  16  18
ATOM     18  C   UNL     1      -0.193  -2.653  -0.168  0.00  0.00    +0.086 C 
BRANCH  18  23
ATOM     19  N   UNL     1       1.986  -2.458  -1.293  0.00  0.00    +0.382 N 
ATOM     20  C   UNL     1       2.298  -3.236  -2.511  0.00  0.00    -0.078 C 
ATOM     21  C   UNL     1       1.255  -2.769  -3.557  0.00  0.00    -0.020 C 
ATOM     22  C   UNL     1      -0.008  -2.579  -2.676  0.00  0.00    -0.016 C 
ATOM     23  C   UNL     1       0.571  -2.048  -1.348  0.00  0.00    -0.051 C 
ATOM     24  H   UNL     1       2.575  -1.640  -1.254  0.00  0.00    -0.081 HD
BRANCH  19  26
ATOM     25  C   UNL     1       3.701  -3.631   0.004  0.00  0.00    -0.017 C 
ATOM     26  C   UNL     1       2.213  -3.290  -0.103  0.00  0.00    -0.082 C 
ENDBRANCH  19  26
ENDBRANCH  18  23
ENDBRANCH  16  18
ENDBRANCH   1  16
TORSDOF 7
