REMARK  Name = ZINC24954880
REMARK  10 active torsions:
REMARK  status: ('A' for Active; 'I' for Inactive)
REMARK    1  A    between atoms: C_1  and  C_2
REMARK    2  A    between atoms: C_4  and  C_37
REMARK    3  A    between atoms: C_5  and  C_9
REMARK    4  A    between atoms: C_7  and  C_8
REMARK    5  A    between atoms: C_15  and  C_17
REMARK    6  A    between atoms: C_17  and  N_18
REMARK    7  A    between atoms: N_21  and  C_24
REMARK    8  A    between atoms: C_24  and  C_25
REMARK    9  A    between atoms: C_29  and  C_36
REMARK   10  A    between atoms: C_32  and  C_35
REMARK                            x       y       z     vdW  Elec       q    Type
REMARK                         _______ _______ _______ _____ _____    ______ ____
ROOT
ATOM      1  C   UNL     1      -1.630  -0.321  -1.201  0.00  0.00    +0.180 C 
ENDROOT
BRANCH   1   8
ATOM      2  C   UNL     1      -3.213  -6.161  -1.501  0.00  0.00    +0.080 A 
ATOM      3  C   UNL     1      -1.938  -6.543  -1.811  0.00  0.00    +0.076 A 
ATOM      4  S   UNL     1      -1.109  -4.958  -1.813  0.00  0.00    -0.060 S 
ATOM      5  C   UNL     1      -2.536  -3.960  -1.405  0.00  0.00    +0.165 A 
ATOM      6  N   UNL     1      -3.478  -4.879  -1.300  0.00  0.00    -0.225 NA
ATOM      7  N   UNL     1      -2.627  -2.584  -1.236  0.00  0.00    -0.264 N 
ATOM      8  C   UNL     1      -1.531  -1.813  -1.384  0.00  0.00    +0.233 C 
ATOM      9  O   UNL     1      -0.466  -2.321  -1.663  0.00  0.00    -0.274 OA
ATOM     10  H   UNL     1      -3.593  -2.124  -0.983  0.00  0.00    +0.157 HD
BRANCH   2  15
ATOM     11  C   UNL     1      -7.394 -10.096  -1.047  0.00  0.00    +0.044 C 
ATOM     12  C   UNL     1      -6.300  -9.066  -1.166  0.00  0.00    -0.047 A 
ATOM     13  C   UNL     1      -6.555  -7.748  -0.832  0.00  0.00    +0.007 A 
ATOM     14  C   UNL     1      -5.557  -6.801  -0.939  0.00  0.00    -0.041 A 
ATOM     15  C   UNL     1      -4.290  -7.175  -1.384  0.00  0.00    +0.004 A 
ATOM     16  C   UNL     1      -4.040  -8.503  -1.724  0.00  0.00    +0.014 A 
ATOM     17  C   UNL     1      -5.045  -9.443  -1.609  0.00  0.00    -0.047 A 
ATOM     18  C   UNL     1      -4.774 -10.880  -1.970  0.00  0.00    +0.044 C 
ATOM     19  C   UNL     1      -5.837  -5.365  -0.575  0.00  0.00    +0.044 C 
ENDBRANCH   2  15
ENDBRANCH   1   8
BRANCH   1  20
ATOM     20  N   UNL     1      -0.310   0.287  -1.413  0.00  0.00    -0.298 NA
ATOM     21  C   UNL     1      -0.409   1.752  -1.479  0.00  0.00    +0.066 C 
ATOM     22  C   UNL     1       0.971   2.341  -1.779  0.00  0.00    -0.063 C 
ATOM     23  N   UNL     1       1.917   1.926  -0.733  0.00  0.00    +0.387 N 
ATOM     24  C   UNL     1       2.016   0.461  -0.668  0.00  0.00    -0.063 C 
ATOM     25  C   UNL     1       0.635  -0.128  -0.368  0.00  0.00    +0.066 C 
ATOM     26  H   UNL     1       1.532   2.284   0.233  0.00  0.00    -0.081 HD
BRANCH  23  27
ATOM     27  C   UNL     1       3.237   2.534  -0.946  0.00  0.00    +0.019 C 
BRANCH  27  28
ATOM     28  C   UNL     1       3.138   4.027  -0.763  0.00  0.00    +0.199 C 
ATOM     29  O   UNL     1       2.072   4.534  -0.483  0.00  0.00    -0.278 OA
ATOM     30  N   UNL     1       4.234   4.798  -0.910  0.00  0.00    -0.303 N 
ATOM     31  C   UNL     1       4.153   6.254  -0.735  0.00  0.00    +0.111 C 
ATOM     32  C   UNL     1       4.728   6.933  -1.982  0.00  0.00    +0.004 C 
ATOM     33  C   UNL     1       6.143   6.408  -2.238  0.00  0.00    +0.009 C 
ATOM     34  C   UNL     1       6.091   4.900  -2.490  0.00  0.00    +0.004 C 
ATOM     35  C   UNL     1       5.532   4.197  -1.243  0.00  0.00    +0.111 C 
ATOM     36  C   UNL     1       7.501   4.381  -2.777  0.00  0.00    +0.009 C 
ATOM     37  C   UNL     1       4.776   8.447  -1.764  0.00  0.00    +0.009 C 
ENDBRANCH  27  28
ENDBRANCH  23  27
ENDBRANCH   1  20
TORSDOF 5
