REMARK  Name = ZINC55127321
REMARK  4 active torsions:
REMARK  status: ('A' for Active; 'I' for Inactive)
REMARK    1  A    between atoms: C_1  and  C_2
REMARK    2  A    between atoms: C_7  and  C_12
REMARK    3  A    between atoms: C_9  and  N_11
REMARK    4  A    between atoms: C_18  and  O_21
REMARK                            x       y       z     vdW  Elec       q    Type
REMARK                         _______ _______ _______ _____ _____    ______ ____
ROOT
ATOM      1  C   UNL     1       0.007   1.524   0.004  0.00  0.00    +0.006 C 
ATOM      2  C   UNL     1       0.015  -0.006  -0.001  0.00  0.00    -0.028 C 
ATOM      3  C   UNL     1      -1.425  -0.523   0.008  0.00  0.00    +0.002 C 
ATOM      4  C   UNL     1      -2.139  -0.021   1.264  0.00  0.00    +0.001 C 
ATOM      5  C   UNL     1      -1.407  -0.531   2.506  0.00  0.00    +0.011 C 
ATOM      6  C   UNL     1       0.033  -0.014   2.498  0.00  0.00    +0.061 C 
ATOM      7  C   UNL     1       0.748  -0.516   1.242  0.00  0.00    -0.060 C 
ENDROOT
BRANCH   6   8
ATOM      8  C   UNL     1       0.755  -0.517   3.721  0.00  0.00    +0.217 C 
ATOM      9  O   UNL     1       1.276  -1.612   3.711  0.00  0.00    -0.275 OA
ATOM     10  N   UNL     1       0.822   0.251   4.827  0.00  0.00    -0.299 N 
ATOM     11  C   UNL     1       0.093   1.525   4.899  0.00  0.00    +0.108 C 
ATOM     12  C   UNL     1      -0.776   1.525   6.160  0.00  0.00    +0.021 C 
ATOM     13  C   UNL     1       0.101   1.233   7.380  0.00  0.00    +0.034 C 
ATOM     14  C   UNL     1       0.737  -0.151   7.232  0.00  0.00    +0.132 C 
ATOM     15  C   UNL     1       1.619  -0.173   5.986  0.00  0.00    +0.139 C 
BRANCH  14  16
ATOM     16  O   UNL     1       1.531  -0.436   8.386  0.00  0.00    -0.390 OA
ATOM     17  H   UNL     1       1.033  -0.438   9.215  0.00  0.00    +0.210 HD
ENDBRANCH  14  16
ENDBRANCH   6   8
BRANCH   7  18
ATOM     18  N   UNL     1       2.130  -0.019   1.233  0.00  0.00    +0.381 N 
ATOM     19  H   UNL     1       2.125   0.990   1.237  0.00  0.00    -0.090 HD
ATOM     20  H   UNL     1       2.614  -0.356   2.053  0.00  0.00    -0.090 HD
ATOM     21  H   UNL     1       2.602  -0.351   0.405  0.00  0.00    -0.090 HD
ENDBRANCH   7  18
TORSDOF 3
