REMARK  Name = ZINC05086596
REMARK  16 active torsions:
REMARK  status: ('A' for Active; 'I' for Inactive)
REMARK    1  A    between atoms: C_1  and  N_70
REMARK    2  A    between atoms: C_6  and  O_35
REMARK    3  A    between atoms: C_7  and  O_33
REMARK    4  A    between atoms: C_10  and  C_12
REMARK    5  A    between atoms: C_12  and  C_13
REMARK    6  A    between atoms: C_15  and  O_22
REMARK    7  A    between atoms: C_16  and  O_20
REMARK    8  A    between atoms: C_18  and  N_19
REMARK    9  A    between atoms: O_20  and  C_21
REMARK   10  A    between atoms: O_22  and  C_23
REMARK   11  A    between atoms: C_26  and  O_31
REMARK   12  A    between atoms: C_27  and  O_29
REMARK   13  A    between atoms: O_29  and  C_30
REMARK   14  A    between atoms: O_31  and  C_32
REMARK   15  A    between atoms: O_33  and  C_34
REMARK   16  A    between atoms: O_35  and  C_36
REMARK                            x       y       z     vdW  Elec       q    Type
REMARK                         _______ _______ _______ _____ _____    ______ ____
ROOT
ATOM      1  C   UNL     1      -3.801   5.347  -0.689  0.00  0.00    -0.024 A 
ATOM      2  C   UNL     1      -3.111   6.214  -1.515  0.00  0.00    +0.055 A 
ATOM      3  C   UNL     1      -3.670   6.623  -2.714  0.00  0.00    +0.170 A 
ATOM      4  C   UNL     1      -4.928   6.161  -3.090  0.00  0.00    +0.164 A 
ATOM      5  C   UNL     1      -5.619   5.291  -2.262  0.00  0.00    +0.072 A 
ATOM      6  C   UNL     1      -5.053   4.879  -1.063  0.00  0.00    +0.031 A 
ENDROOT
BRANCH   6   7
ATOM      7  N   UNL     1      -5.748   3.996  -0.229  0.00  0.00    -0.358 N 
ATOM      8  H   UNL     1      -5.354   3.710   0.610  0.00  0.00    +0.142 HD
ATOM      9  H   UNL     1      -6.623   3.669  -0.491  0.00  0.00    +0.142 HD
ENDBRANCH   6   7
BRANCH   4  10
ATOM     10  O   UNL     1      -5.478   6.562  -4.267  0.00  0.00    -0.491 OA
ATOM     11  C   UNL     1      -6.772   6.047  -4.587  0.00  0.00    +0.277 C 
ENDBRANCH   4  10
BRANCH   1  12
ATOM     12  C   UNL     1      -3.191   4.903   0.615  0.00  0.00    +0.026 C 
BRANCH  12  22
ATOM     13  C   UNL     1      -2.155   3.391  -1.642  0.00  0.00    -0.095 C 
ATOM     14  C   UNL     1      -1.618   1.575  -0.129  0.00  0.00    -0.074 C 
ATOM     15  C   UNL     1      -1.008   1.310   1.248  0.00  0.00    +0.017 C 
ATOM     16  C   UNL     1      -1.865   1.938   2.318  0.00  0.00    -0.044 A 
ATOM     17  C   UNL     1      -1.686   1.523   3.631  0.00  0.00    +0.053 A 
ATOM     18  C   UNL     1      -2.446   2.074   4.647  0.00  0.00    +0.162 A 
ATOM     19  C   UNL     1      -3.392   3.050   4.349  0.00  0.00    +0.162 A 
ATOM     20  C   UNL     1      -3.565   3.459   3.039  0.00  0.00    +0.051 A 
ATOM     21  C   UNL     1      -2.801   2.903   2.022  0.00  0.00    -0.054 A 
ATOM     22  C   UNL     1      -3.031   3.381   0.613  0.00  0.00    -0.033 C 
ATOM     23  N   UNL     1      -1.881   3.025  -0.234  0.00  0.00    +0.383 N 
ATOM     24  H   UNL     1      -1.053   3.539   0.090  0.00  0.00    -0.081 HD
BRANCH  19  25
ATOM     25  O   UNL     1      -4.143   3.599   5.341  0.00  0.00    -0.491 OA
ATOM     26  C   UNL     1      -5.095   4.595   4.959  0.00  0.00    +0.277 C 
ENDBRANCH  19  25
BRANCH  18  27
ATOM     27  O   UNL     1      -2.269   1.663   5.932  0.00  0.00    -0.491 OA
ATOM     28  C   UNL     1      -1.280   0.658   6.161  0.00  0.00    +0.277 C 
ENDBRANCH  18  27
ENDBRANCH  12  22
ENDBRANCH   1  12
BRANCH   3  29
ATOM     29  O   UNL     1      -2.989   7.477  -3.526  0.00  0.00    -0.452 OA
BRANCH  29  30
ATOM     30  C   UNL     1      -1.729   7.834  -3.163  0.00  0.00    +0.132 A 
ATOM     31  C   UNL     1      -0.684   6.934  -3.310  0.00  0.00    +0.050 A 
ATOM     32  C   UNL     1       0.600   7.296  -2.946  0.00  0.00    +0.053 A 
ATOM     33  C   UNL     1       0.843   8.556  -2.425  0.00  0.00    +0.162 A 
ATOM     34  C   UNL     1      -0.204   9.459  -2.272  0.00  0.00    +0.165 A 
ATOM     35  C   UNL     1      -1.489   9.097  -2.642  0.00  0.00    +0.095 A 
BRANCH  34  36
ATOM     36  O   UNL     1       0.034  10.697  -1.760  0.00  0.00    -0.491 OA
ATOM     37  C   UNL     1      -1.088  11.572  -1.632  0.00  0.00    +0.277 C 
ENDBRANCH  34  36
BRANCH  33  38
ATOM     38  O   UNL     1       2.106   8.910  -2.062  0.00  0.00    -0.491 OA
ATOM     39  C   UNL     1       3.132   7.933  -2.246  0.00  0.00    +0.277 C 
ENDBRANCH  33  38
ENDBRANCH  29  30
ENDBRANCH   3  29
TORSDOF 10
