REMARK  Name = ZINC48891159
REMARK  9 active torsions:
REMARK  status: ('A' for Active; 'I' for Inactive)
REMARK    1  A    between atoms: C_1  and  N_2
REMARK    2  A    between atoms: N_2  and  C_3
REMARK    3  A    between atoms: N_2  and  C_11
REMARK    4  A    between atoms: C_3  and  C_4
REMARK    5  A    between atoms: C_11  and  C_12
REMARK    6  A    between atoms: C_12  and  C_14
REMARK    7  A    between atoms: C_12  and  O_21
REMARK    8  A    between atoms: C_14  and  N_15
REMARK    9  A    between atoms: C_17  and  N_20
REMARK                            x       y       z     vdW  Elec       q    Type
REMARK                         _______ _______ _______ _____ _____    ______ ____
ROOT
ATOM      1  C   UNL     1       0.713  -0.491   1.192  0.00  0.00    -0.045 C 
ENDROOT
BRANCH   1   3
ATOM      2  C   UNL     1      -0.018   1.465   0.010  0.00  0.00    -0.096 C 
ATOM      3  N   UNL     1       0.002  -0.004   0.002  0.00  0.00    +0.382 N 
ATOM      4  H   UNL     1       0.474  -0.330  -0.828  0.00  0.00    -0.082 HD
BRANCH   3   5
ATOM      5  C   UNL     1      -1.376  -0.512   0.012  0.00  0.00    -0.043 C 
BRANCH   5   6
ATOM      6  C   UNL     1      -2.067  -0.116  -1.267  0.00  0.00    -0.063 A 
ATOM      7  C   UNL     1      -2.751   1.084  -1.340  0.00  0.00    +0.002 A 
ATOM      8  C   UNL     1      -3.385   1.448  -2.513  0.00  0.00    +0.001 A 
ATOM      9  C   UNL     1      -3.337   0.612  -3.613  0.00  0.00    +0.015 A 
ATOM     10  C   UNL     1      -2.653  -0.588  -3.540  0.00  0.00    +0.018 A 
ATOM     11  C   UNL     1      -2.014  -0.949  -2.368  0.00  0.00    +0.017 A 
ATOM     12 BR   UNL     1      -2.587  -1.732  -5.045  0.00  0.00    -0.050 Br
ENDBRANCH   5   6
ENDBRANCH   3   5
ENDBRANCH   1   3
BRANCH   1  13
ATOM     13  C   UNL     1       2.180  -0.066   1.119  0.00  0.00    +0.119 C 
BRANCH  13  14
ATOM     14  O   UNL     1       2.780  -0.621  -0.053  0.00  0.00    -0.392 OA
ATOM     15  H   UNL     1       2.760  -1.587  -0.085  0.00  0.00    +0.210 HD
ENDBRANCH  13  14
BRANCH  13  16
ATOM     16  C   UNL     1       2.921  -0.572   2.359  0.00  0.00    +0.172 C 
BRANCH  16  17
ATOM     17  N   UNL     1       4.295  -0.065   2.348  0.00  0.00    -0.267 N 
ATOM     18  C   UNL     1       4.896   0.637   3.345  0.00  0.00    +0.131 A 
ATOM     19  C   UNL     1       6.162   0.916   2.942  0.00  0.00    +0.063 A 
ATOM     20  C   UNL     1       6.338   0.367   1.664  0.00  0.00    +0.157 A 
ATOM     21  N   UNL     1       5.225  -0.224   1.312  0.00  0.00    -0.178 NA
BRANCH  19  22
ATOM     22  N   UNL     1       7.128   1.629   3.678  0.00  0.00    -0.356 N 
ATOM     23  H   UNL     1       6.911   1.972   4.559  0.00  0.00    +0.142 HD
ATOM     24  H   UNL     1       8.010   1.778   3.304  0.00  0.00    +0.142 HD
ENDBRANCH  19  22
ENDBRANCH  16  17
ENDBRANCH  13  16
ENDBRANCH   1  13
TORSDOF 8
