REMARK  Name = ZINC37334671
REMARK  4 active torsions:
REMARK  status: ('A' for Active; 'I' for Inactive)
REMARK    1  A    between atoms: C_6  and  O_7
REMARK    2  A    between atoms: O_7  and  C_8
REMARK    3  A    between atoms: C_11  and  C_17
REMARK    4  A    between atoms: C_13  and  C_14
REMARK                            x       y       z     vdW  Elec       q    Type
REMARK                         _______ _______ _______ _____ _____    ______ ____
ROOT
ATOM      1  C   UNL     1      -1.100  -2.061  -0.211  0.00  0.00    +0.139 A 
ATOM      2  C   UNL     1       0.127  -2.710  -0.213  0.00  0.00    +0.047 A 
ATOM      3  C   UNL     1       0.180  -4.089  -0.207  0.00  0.00    +0.016 A 
ATOM      4  C   UNL     1      -0.987  -4.835  -0.200  0.00  0.00    +0.056 A 
ATOM      5  C   UNL     1      -2.214  -4.207  -0.199  0.00  0.00    +0.027 A 
ATOM      6  C   UNL     1      -2.282  -2.813  -0.198  0.00  0.00    +0.055 A 
ENDROOT
BRANCH   6   7
ATOM      7  C   UNL     1      -3.594  -2.133  -0.190  0.00  0.00    +0.098 C 
ATOM      8  N   UNL     1      -4.493  -2.409  -1.134  0.00  0.00    -0.387 N 
ATOM      9  N   UNL     1      -3.878  -1.244   0.761  0.00  0.00    -0.344 N 
ATOM     10  H   UNL     1      -4.258  -2.995  -1.871  0.00  0.00    +0.157 HD
ATOM     11  H   UNL     1      -3.223  -1.043   1.448  0.00  0.00    +0.144 HD
ATOM     12  H   UNL     1      -4.739  -0.798   0.766  0.00  0.00    +0.144 HD
ATOM     13  H   UNL     1      -5.382  -2.025  -1.085  0.00  0.00    +0.157 HD
ENDBRANCH   6   7
BRANCH   4  14
ATOM     14  C   UNL     1      -0.915  -6.341  -0.193  0.00  0.00    +0.417 C 
ATOM     15  F   UNL     1       0.424  -6.744  -0.196  0.00  0.00    -0.166 F 
ATOM     16  F   UNL     1      -1.548  -6.833   0.954  0.00  0.00    -0.166 F 
ATOM     17  F   UNL     1      -1.556  -6.843  -1.331  0.00  0.00    -0.166 F 
ENDBRANCH   4  14
BRANCH   1  18
ATOM     18  O   UNL     1      -1.154  -0.706  -0.217  0.00  0.00    -0.455 OA
BRANCH  18  24
ATOM     19  C   UNL     1       0.500   0.547  -1.381  0.00  0.00    +0.049 A 
ATOM     20  C   UNL     1       1.693   1.244  -1.371  0.00  0.00    +0.042 A 
ATOM     21  C   UNL     1       2.409   1.376  -0.193  0.00  0.00    +0.124 A 
ATOM     22  C   UNL     1       1.931   0.809   0.976  0.00  0.00    +0.042 A 
ATOM     23  C   UNL     1       0.739   0.112   0.970  0.00  0.00    +0.049 A 
ATOM     24  C   UNL     1       0.020  -0.021  -0.210  0.00  0.00    +0.129 A 
ATOM     25  F   UNL     1       3.576   2.057  -0.186  0.00  0.00    -0.205 F 
ENDBRANCH  18  24
ENDBRANCH   1  18
TORSDOF 4
