REMARK  Name = ZINC04815687
REMARK  7 active torsions:
REMARK  status: ('A' for Active; 'I' for Inactive)
REMARK    1  A    between atoms: C_1  and  C_2
REMARK    2  A    between atoms: C_2  and  N_3
REMARK    3  A    between atoms: N_3  and  N_4
REMARK    4  A    between atoms: C_5  and  C_7
REMARK    5  A    between atoms: C_16  and  O_17
REMARK    6  A    between atoms: C_18  and  C_19
REMARK    7  A    between atoms: N_21  and  C_22
REMARK                            x       y       z     vdW  Elec       q    Type
REMARK                         _______ _______ _______ _____ _____    ______ ____
ROOT
ATOM      1  N   UNL     1      -0.034   2.419  -2.165  0.00  0.00    -0.268 N 
ATOM      2  H   UNL     1       0.891   2.705  -2.107  0.00  0.00    +0.170 HD
ENDROOT
BRANCH   1   3
ATOM      3  N   UNL     1      -0.583   2.070  -3.406  0.00  0.00    -0.233 N 
ATOM      4  C   UNL     1       0.174   2.131  -4.519  0.00  0.00    +0.264 C 
ATOM      5  O   UNL     1       1.334   2.490  -4.447  0.00  0.00    -0.269 OA
ATOM      6  H   UNL     1      -1.508   1.784  -3.463  0.00  0.00    +0.173 HD
BRANCH   4   7
ATOM      7  C   UNL     1      -0.403   1.764  -5.824  0.00  0.00    +0.080 A 
ATOM      8  C   UNL     1      -1.748   1.356  -5.904  0.00  0.00    +0.017 A 
ATOM      9  C   UNL     1      -2.302   1.013  -7.093  0.00  0.00    +0.009 A 
ATOM     10  C   UNL     1      -1.535   1.062  -8.273  0.00  0.00    -0.014 A 
ATOM     11  C   UNL     1      -2.093   0.711  -9.513  0.00  0.00    +0.008 A 
ATOM     12  C   UNL     1      -1.328   0.767 -10.638  0.00  0.00    +0.001 A 
ATOM     13  C   UNL     1       0.004   1.169 -10.579  0.00  0.00    +0.001 A 
ATOM     14  C   UNL     1       0.579   1.516  -9.394  0.00  0.00    +0.012 A 
ATOM     15  C   UNL     1      -0.180   1.470  -8.214  0.00  0.00    +0.024 A 
ATOM     16  C   UNL     1       0.382   1.829  -6.972  0.00  0.00    +0.137 A 
BRANCH  16  17
ATOM     17  O   UNL     1       1.675   2.228  -6.895  0.00  0.00    -0.505 OA
ATOM     18  H   UNL     1       2.301   1.506  -6.748  0.00  0.00    +0.292 HD
ENDBRANCH  16  17
ENDBRANCH   4   7
ENDBRANCH   1   3
BRANCH   1  20
ATOM     19  C   UNL     1      -0.211   2.732   0.299  0.00  0.00    +0.062 C 
ATOM     20  C   UNL     1      -0.801   2.357  -1.036  0.00  0.00    +0.024 C 
ATOM     21  C   UNL     1      -2.088   1.959  -1.116  0.00  0.00    +0.087 C 
BRANCH  21  22
ATOM     22  C   UNL     1      -2.834   1.737   0.065  0.00  0.00    +0.243 C 
ATOM     23  O   UNL     1      -2.288   1.800   1.151  0.00  0.00    -0.270 OA
ATOM     24  N   UNL     1      -4.150   1.456  -0.013  0.00  0.00    -0.282 N 
ATOM     25  H   UNL     1      -4.605   1.497  -0.869  0.00  0.00    +0.155 HD
BRANCH  24  26
ATOM     26  C   UNL     1      -4.861   1.105   1.142  0.00  0.00    +0.037 A 
ATOM     27  C   UNL     1      -6.151   1.581   1.335  0.00  0.00    +0.027 A 
ATOM     28  C   UNL     1      -6.853   1.236   2.474  0.00  0.00    +0.051 A 
ATOM     29  C   UNL     1      -6.272   0.415   3.427  0.00  0.00    +0.166 A 
ATOM     30  C   UNL     1      -4.978  -0.064   3.236  0.00  0.00    +0.168 A 
ATOM     31  C   UNL     1      -4.277   0.278   2.091  0.00  0.00    +0.072 A 
ATOM     32  O   UNL     1      -4.638  -0.842   4.305  0.00  0.00    -0.453 OA
ATOM     33  C   UNL     1      -5.579  -0.503   5.341  0.00  0.00    +0.466 C 
ATOM     34  O   UNL     1      -6.743  -0.063   4.616  0.00  0.00    -0.453 OA
ENDBRANCH  24  26
ENDBRANCH  21  22
ENDBRANCH   1  20
TORSDOF 6
