REMARK  Name = ZINC37242786
REMARK  4 active torsions:
REMARK  status: ('A' for Active; 'I' for Inactive)
REMARK    1  A    between atoms: C_1  and  C_2
REMARK    2  A    between atoms: C_2  and  C_4
REMARK    3  A    between atoms: C_2  and  N_10
REMARK    4  A    between atoms: N_10  and  C_11
REMARK                            x       y       z     vdW  Elec       q    Type
REMARK                         _______ _______ _______ _____ _____    ______ ____
ROOT
ATOM      1  C   UNL     1       0.115  -0.223   2.389  0.00  0.00    -0.068 C 
ATOM      2  C   UNL     1       1.055  -0.491   3.567  0.00  0.00    +0.003 C 
ATOM      3  C   UNL     1       0.328  -0.178   4.878  0.00  0.00    +0.108 C 
ATOM      4  N   UNL     1      -0.924  -0.947   4.918  0.00  0.00    -0.286 N 
ATOM      5  C   UNL     1      -1.860  -0.833   3.792  0.00  0.00    +0.108 C 
ATOM      6  C   UNL     1      -1.108  -1.138   2.493  0.00  0.00    +0.003 C 
ATOM      7  C   UNL     1      -1.208  -1.742   5.969  0.00  0.00    +0.300 C 
ATOM      8  O   UNL     1      -0.385  -1.902   6.850  0.00  0.00    -0.253 OA
ATOM      9  N   UNL     1      -2.403  -2.360   6.043  0.00  0.00    -0.313 N 
ATOM     10  H   UNL     1      -3.031  -2.291   5.307  0.00  0.00    +0.146 HD
ATOM     11  H   UNL     1      -2.636  -2.873   6.833  0.00  0.00    +0.146 HD
ENDROOT
BRANCH   1  12
ATOM     12  N   UNL     1       0.821  -0.490   1.129  0.00  0.00    +0.384 N 
ATOM     13  H   UNL     1       1.032  -1.474   1.064  0.00  0.00    -0.085 HD
ATOM     14  H   UNL     1       1.678   0.041   1.105  0.00  0.00    -0.085 HD
BRANCH  12  16
ATOM     15  C   UNL     1      -0.237   1.419   0.018  0.00  0.00    -0.011 C 
ATOM     16  C   UNL     1      -0.031  -0.097  -0.002  0.00  0.00    -0.045 C 
BRANCH  16  17
ATOM     17  C   UNL     1       0.643  -0.502  -1.314  0.00  0.00    +0.104 C 
ATOM     18  C   UNL     1       0.859  -2.031  -1.341  0.00  0.00    +0.032 C 
ATOM     19  C   UNL     1       2.257  -2.155  -2.006  0.00  0.00    +0.030 C 
ATOM     20  C   UNL     1       2.957  -0.885  -1.457  0.00  0.00    +0.160 C 
ATOM     21  O   UNL     1       1.930   0.120  -1.412  0.00  0.00    -0.378 OA
ENDBRANCH  16  17
ENDBRANCH  12  16
ENDBRANCH   1  12
TORSDOF 3
