REMARK  Name = ZINC66352146
REMARK  5 active torsions:
REMARK  status: ('A' for Active; 'I' for Inactive)
REMARK    1  A    between atoms: C_1  and  C_2
REMARK    2  A    between atoms: C_2  and  C_4
REMARK    3  A    between atoms: C_2  and  O_13
REMARK    4  A    between atoms: O_13  and  C_14
REMARK    5  A    between atoms: C_19  and  N_20
REMARK                            x       y       z     vdW  Elec       q    Type
REMARK                         _______ _______ _______ _____ _____    ______ ____
ROOT
ATOM      1  C   UNL     1       0.184   1.501  -0.132  0.00  0.00    +0.057 C 
ATOM      2  C   UNL     1       0.000  -0.013  -0.000  0.00  0.00    +0.204 C 
ENDROOT
BRANCH   2   3
ATOM      3  C   UNL     1      -1.467  -0.331   0.130  0.00  0.00    +0.032 A 
ATOM      4  C   UNL     1      -2.127  -0.079   1.321  0.00  0.00    +0.049 A 
ATOM      5  C   UNL     1      -3.473  -0.371   1.441  0.00  0.00    +0.023 A 
ATOM      6  C   UNL     1      -4.162  -0.913   0.373  0.00  0.00    +0.041 A 
ATOM      7  C   UNL     1      -3.504  -1.165  -0.819  0.00  0.00    +0.142 A 
ATOM      8  C   UNL     1      -2.156  -0.869  -0.941  0.00  0.00    +0.084 A 
ATOM      9 CL   UNL     1      -1.331  -1.178  -2.437  0.00  0.00    -0.080 Cl
ATOM     10  F   UNL     1      -4.177  -1.696  -1.863  0.00  0.00    -0.204 F 
ATOM     11 CL   UNL     1      -1.263   0.603   2.663  0.00  0.00    -0.083 Cl
ENDBRANCH   2   3
BRANCH   2  12
ATOM     12  O   UNL     1       0.693  -0.477   1.160  0.00  0.00    -0.481 OA
BRANCH  12  13
ATOM     13  C   UNL     1       2.015  -0.764   1.016  0.00  0.00    +0.159 A 
ATOM     14  C   UNL     1       2.666  -0.500  -0.180  0.00  0.00    +0.050 A 
ATOM     15  C   UNL     1       4.016  -0.809  -0.281  0.00  0.00    +0.021 A 
ATOM     16  C   UNL     1       4.666  -1.365   0.802  0.00  0.00    +0.084 A 
ATOM     17  N   UNL     1       4.022  -1.607   1.929  0.00  0.00    -0.347 N 
ATOM     18  C   UNL     1       2.737  -1.323   2.071  0.00  0.00    +0.136 A 
ATOM     19  H   UNL     1       4.504  -1.999   2.674  0.00  0.00    +0.167 HD
BRANCH  18  20
ATOM     20  N   UNL     1       2.100  -1.590   3.280  0.00  0.00    -0.342 N 
ATOM     21  H   UNL     1       1.157  -1.387   3.386  0.00  0.00    +0.144 HD
ATOM     22  H   UNL     1       2.598  -1.978   4.015  0.00  0.00    +0.144 HD
ENDBRANCH  18  20
ENDBRANCH  12  13
ENDBRANCH   2  12
TORSDOF 4
