REMARK  Name = ZINC35310479
REMARK  7 active torsions:
REMARK  status: ('A' for Active; 'I' for Inactive)
REMARK    1  A    between atoms: C_1  and  C_2
REMARK    2  A    between atoms: C_4  and  C_26
REMARK    3  A    between atoms: C_5  and  C_9
REMARK    4  A    between atoms: C_6  and  C_8
REMARK    5  A    between atoms: C_11  and  C_17
REMARK    6  A    between atoms: C_17  and  C_19
REMARK    7  A    between atoms: C_17  and  O_25
REMARK                            x       y       z     vdW  Elec       q    Type
REMARK                         _______ _______ _______ _____ _____    ______ ____
ROOT
ATOM      1  C   UNL     1       1.832  -3.598   0.419  0.00  0.00    +0.109 C 
ATOM      2  C   UNL     1       3.045  -3.184   1.296  0.00  0.00    +0.131 C 
ATOM      3  N   UNL     1       2.801  -3.474   2.697  0.00  0.00    -0.361 N 
ATOM      4  C   UNL     1       1.873  -4.311   3.062  0.00  0.00    +0.126 C 
ATOM      5  S   UNL     1       1.105  -4.864   1.546  0.00  0.00    -0.083 S 
ATOM      6  N   UNL     1       1.553  -4.692   4.345  0.00  0.00    -0.339 N 
ATOM      7  H   UNL     1       2.043  -4.324   5.097  0.00  0.00    +0.144 HD
ATOM      8  H   UNL     1       0.837  -5.328   4.497  0.00  0.00    +0.144 HD
ATOM      9  H   UNL     1       3.340  -3.035   3.374  0.00  0.00    +0.162 HD
ENDROOT
BRANCH   1  14
ATOM     10  C   UNL     1      -1.790   0.824  -0.431  0.00  0.00    +0.044 C 
ATOM     11  C   UNL     1      -0.845  -0.329  -0.209  0.00  0.00    -0.050 A 
ATOM     12  C   UNL     1      -0.076  -0.803  -1.255  0.00  0.00    +0.007 A 
ATOM     13  C   UNL     1       0.791  -1.861  -1.052  0.00  0.00    -0.046 A 
ATOM     14  C   UNL     1       0.888  -2.444   0.198  0.00  0.00    -0.026 A 
ATOM     15  C   UNL     1       0.119  -1.970   1.244  0.00  0.00    -0.046 A 
ATOM     16  C   UNL     1      -0.745  -0.909   1.041  0.00  0.00    +0.007 A 
ATOM     17  C   UNL     1       0.224  -2.606   2.606  0.00  0.00    +0.044 C 
ATOM     18  C   UNL     1       1.629  -2.378  -2.192  0.00  0.00    +0.044 C 
ENDBRANCH   1  14
BRANCH   2  19
ATOM     19  C   UNL     1       4.284  -3.954   0.834  0.00  0.00    +0.168 C 
BRANCH  19  20
ATOM     20  C   UNL     1       5.437  -3.650   1.756  0.00  0.00    -0.017 A 
ATOM     21  C   UNL     1       5.595  -4.370   2.925  0.00  0.00    +0.006 A 
ATOM     22  C   UNL     1       6.652  -4.092   3.771  0.00  0.00    +0.000 A 
ATOM     23  C   UNL     1       7.552  -3.094   3.448  0.00  0.00    +0.000 A 
ATOM     24  C   UNL     1       7.394  -2.374   2.278  0.00  0.00    +0.000 A 
ATOM     25  C   UNL     1       6.340  -2.655   1.430  0.00  0.00    +0.006 A 
ENDBRANCH  19  20
BRANCH  19  26
ATOM     26  O   UNL     1       4.011  -5.356   0.860  0.00  0.00    -0.385 OA
ATOM     27  H   UNL     1       3.773  -5.695   1.734  0.00  0.00    +0.210 HD
ENDBRANCH  19  26
ENDBRANCH   2  19
TORSDOF 4
