REMARK  Name = ZINC66390699
REMARK  8 active torsions:
REMARK  status: ('A' for Active; 'I' for Inactive)
REMARK    1  A    between atoms: C_1  and  C_2
REMARK    2  A    between atoms: C_2  and  C_4
REMARK    3  A    between atoms: C_2  and  N_18
REMARK    4  A    between atoms: C_7  and  N_11
REMARK    5  A    between atoms: N_14  and  C_17
REMARK    6  A    between atoms: N_18  and  C_19
REMARK    7  A    between atoms: C_19  and  C_21
REMARK    8  A    between atoms: C_19  and  C_22
REMARK                            x       y       z     vdW  Elec       q    Type
REMARK                         _______ _______ _______ _____ _____    ______ ____
ROOT
ATOM      1  C   UNL     1       0.439   1.801  -0.245  0.00  0.00    +0.029 C 
ATOM      2  C   UNL     1       0.088   0.349   0.086  0.00  0.00    +0.082 C 
ENDROOT
BRANCH   2   3
ATOM      3  C   UNL     1      -1.396   0.234   0.327  0.00  0.00    -0.028 A 
ATOM      4  C   UNL     1      -1.928   0.610   1.546  0.00  0.00    +0.007 A 
ATOM      5  C   UNL     1      -3.287   0.506   1.770  0.00  0.00    +0.026 A 
ATOM      6  C   UNL     1      -4.120   0.022   0.770  0.00  0.00    +0.065 A 
ATOM      7  C   UNL     1      -3.582  -0.356  -0.455  0.00  0.00    +0.145 A 
ATOM      8  C   UNL     1      -2.222  -0.244  -0.675  0.00  0.00    +0.045 A 
ATOM      9  F   UNL     1      -4.388  -0.828  -1.431  0.00  0.00    -0.204 F 
BRANCH   6  10
ATOM     10  N   UNL     1      -5.496  -0.085   0.995  0.00  0.00    -0.331 N 
ATOM     11  C   UNL     1      -6.077  -1.315   1.555  0.00  0.00    +0.086 C 
ATOM     12  C   UNL     1      -6.975  -0.934   2.737  0.00  0.00    -0.060 C 
ATOM     13  N   UNL     1      -7.964   0.059   2.299  0.00  0.00    +0.380 N 
ATOM     14  C   UNL     1      -7.285   1.299   1.902  0.00  0.00    -0.060 C 
ATOM     15  C   UNL     1      -6.403   1.030   0.684  0.00  0.00    +0.086 C 
ATOM     16  C   UNL     1      -8.892   0.343   3.402  0.00  0.00    -0.096 C 
ATOM     17  H   UNL     1      -8.480  -0.307   1.514  0.00  0.00    -0.082 HD
ENDBRANCH   6  10
ENDBRANCH   2   3
BRANCH   2  18
ATOM     18  N   UNL     1       0.813  -0.068   1.294  0.00  0.00    -0.299 NA
ATOM     19  H   UNL     1       0.847   0.679   1.971  0.00  0.00    +0.123 HD
BRANCH  18  20
ATOM     20  C   UNL     1       2.164  -0.537   0.960  0.00  0.00    +0.138 C 
ATOM     21  C   UNL     1       2.108  -2.014   0.564  0.00  0.00    +0.034 C 
BRANCH  20  22
ATOM     22  C   UNL     1       3.063  -0.372   2.158  0.00  0.00    +0.240 C 
ATOM     23  O   UNL     1       2.593  -0.386   3.276  0.00  0.00    -0.273 OA
ATOM     24  N   UNL     1       4.391  -0.210   1.988  0.00  0.00    -0.223 N 
ATOM     25  C   UNL     1       5.071  -0.061   0.693  0.00  0.00    +0.137 C 
ATOM     26  C   UNL     1       6.557   0.090   1.072  0.00  0.00    +0.125 C 
ATOM     27  N   UNL     1       6.556   0.010   2.541  0.00  0.00    -0.297 N 
ATOM     28  C   UNL     1       5.298  -0.153   2.971  0.00  0.00    +0.309 C 
ATOM     29  O   UNL     1       5.007  -0.245   4.148  0.00  0.00    -0.252 OA
ATOM     30  H   UNL     1       7.341   0.069   3.107  0.00  0.00    +0.150 HD
ENDBRANCH  20  22
ENDBRANCH  18  20
ENDBRANCH   2  18
TORSDOF 5
