REMARK  Name = ZINC35268642
REMARK  11 active torsions:
REMARK  status: ('A' for Active; 'I' for Inactive)
REMARK    1  A    between atoms: C_1  and  C_2
REMARK    2  A    between atoms: C_2  and  C_3
REMARK    3  A    between atoms: C_3  and  C_4
REMARK    4  A    between atoms: C_4  and  N_5
REMARK    5  A    between atoms: N_8  and  C_9
REMARK    6  A    between atoms: C_9  and  C_11
REMARK    7  A    between atoms: C_9  and  C_16
REMARK    8  A    between atoms: C_11  and  C_13
REMARK    9  A    between atoms: C_11  and  C_14
REMARK   10  A    between atoms: C_14  and  C_15
REMARK   11  A    between atoms: C_22  and  C_24
REMARK                            x       y       z     vdW  Elec       q    Type
REMARK                         _______ _______ _______ _____ _____    ______ ____
ROOT
ATOM      1  C   UNL     1       1.651  -6.143  -5.396  0.00  0.00    +0.239 C 
ATOM      2  O   UNL     1       1.487  -5.250  -6.201  0.00  0.00    -0.273 OA
ATOM      3  N   UNL     1       1.593  -7.429  -5.796  0.00  0.00    -0.262 N 
ATOM      4  C   UNL     1       1.449  -7.731  -7.144  0.00  0.00    +0.188 A 
ATOM      5  N   UNL     1       1.359  -6.912  -8.175  0.00  0.00    -0.125 NA
ATOM      6  N   UNL     1       1.231  -7.337  -9.358  0.00  0.00    -0.140 NA
ATOM      7  C   UNL     1       1.185  -8.647  -9.566  0.00  0.00    +0.134 A 
ATOM      8  S   UNL     1       1.351  -9.241  -7.889  0.00  0.00    -0.030 S 
ATOM      9  H   UNL     1       1.651  -8.143  -5.142  0.00  0.00    +0.157 HD
ENDROOT
BRANCH   7  10
ATOM     10  C   UNL     1       1.042  -9.402 -10.830  0.00  0.00    +0.010 A 
ATOM     11  C   UNL     1       1.011 -10.797 -10.813  0.00  0.00    +0.011 A 
ATOM     12  C   UNL     1       0.877 -11.496 -11.995  0.00  0.00    +0.002 A 
ATOM     13  C   UNL     1       0.773 -10.816 -13.196  0.00  0.00    +0.015 A 
ATOM     14  C   UNL     1       0.803  -9.433 -13.220  0.00  0.00    +0.019 A 
ATOM     15  C   UNL     1       0.931  -8.722 -12.043  0.00  0.00    +0.026 A 
ATOM     16 BR   UNL     1       0.662  -8.514 -14.867  0.00  0.00    -0.050 Br
ENDBRANCH   7  10
BRANCH   1  17
ATOM     17  C   UNL     1       1.921  -5.815  -3.951  0.00  0.00    +0.163 C 
BRANCH  17  21
ATOM     18  N   UNL     1       0.467  -3.014  -2.064  0.00  0.00    -0.299 N 
ATOM     19  C   UNL     1       1.000  -4.215  -2.359  0.00  0.00    +0.300 C 
ATOM     20  O   UNL     1       1.174  -5.036  -1.479  0.00  0.00    -0.253 OA
ATOM     21  N   UNL     1       1.341  -4.508  -3.630  0.00  0.00    -0.288 N 
ATOM     22  H   UNL     1       0.328  -2.359  -2.767  0.00  0.00    +0.150 HD
ATOM     23  H   UNL     1       1.202  -3.854  -4.332  0.00  0.00    +0.151 HD
BRANCH  18  24
ATOM     24  C   UNL     1       0.096  -2.696  -0.683  0.00  0.00    +0.106 C 
BRANCH  24  25
ATOM     25  C   UNL     1      -0.481  -1.280  -0.623  0.00  0.00    +0.018 C 
BRANCH  25  27
ATOM     26  C   UNL     1      -1.446   0.468   0.880  0.00  0.00    +0.004 C 
ATOM     27  C   UNL     1      -0.868  -0.948   0.820  0.00  0.00    -0.002 C 
ENDBRANCH  25  27
ENDBRANCH  24  25
ENDBRANCH  18  24
ENDBRANCH  17  21
BRANCH  17  28
ATOM     28  C   UNL     1       3.431  -5.775  -3.710  0.00  0.00    +0.015 C 
ATOM     29  C   UNL     1       4.041  -4.604  -4.483  0.00  0.00    +0.010 C 
BRANCH  28  30
ATOM     30  C   UNL     1       3.705  -5.597  -2.215  0.00  0.00    +0.002 C 
ATOM     31  C   UNL     1       3.201  -6.825  -1.454  0.00  0.00    +0.004 C 
ENDBRANCH  28  30
ENDBRANCH  17  28
ENDBRANCH   1  17
TORSDOF 8
