REMARK  Name = ZINC19324417
REMARK  14 active torsions:
REMARK  status: ('A' for Active; 'I' for Inactive)
REMARK    1  A    between atoms: C_1  and  C_2
REMARK    2  A    between atoms: C_2  and  C_3
REMARK    3  A    between atoms: C_3  and  C_4
REMARK    4  A    between atoms: C_8  and  C_26
REMARK    5  A    between atoms: C_14  and  C_15
REMARK    6  A    between atoms: C_15  and  C_17
REMARK    7  A    between atoms: C_15  and  O_25
REMARK    8  A    between atoms: C_17  and  C_19
REMARK    9  A    between atoms: C_17  and  O_24
REMARK   10  A    between atoms: C_19  and  C_21
REMARK   11  A    between atoms: C_19  and  O_23
REMARK   12  A    between atoms: C_21  and  O_22
REMARK   13  A    between atoms: C_26  and  C_27
REMARK   14  A    between atoms: C_27  and  C_28
REMARK                            x       y       z     vdW  Elec       q    Type
REMARK                         _______ _______ _______ _____ _____    ______ ____
ROOT
ATOM      1  C   UNL     1      -1.413  -2.063   0.004  0.00  0.00    +0.028 C 
ATOM      2  C   UNL     1      -2.834  -2.644   0.041  0.00  0.00    -0.061 C 
ATOM      3  N   UNL     1      -2.778  -4.107   0.049  0.00  0.00    +0.393 N 
ATOM      4  C   UNL     1      -2.111  -4.615   1.250  0.00  0.00    -0.061 C 
ATOM      5  C   UNL     1      -0.649  -4.142   1.278  0.00  0.00    +0.028 C 
ATOM      6  C   UNL     1      -0.683  -2.618   1.224  0.00  0.00    +0.144 C 
ATOM      7  O   UNL     1      -0.196  -1.917   2.077  0.00  0.00    -0.296 OA
ATOM      8  C   UNL     1       0.034  -4.612  -0.016  0.00  0.00    +0.095 C 
ATOM      9  N   UNL     1      -0.715  -4.097  -1.170  0.00  0.00    -0.311 NA
ATOM     10  C   UNL     1      -0.676  -2.608  -1.231  0.00  0.00    +0.095 C 
ATOM     11  C   UNL     1      -2.098  -4.596  -1.154  0.00  0.00    +0.034 C 
ATOM     12  H   UNL     1      -3.722  -4.461   0.046  0.00  0.00    -0.079 HD
ENDROOT
BRANCH   1  13
ATOM     13  C   UNL     1      -1.433  -0.534   0.013  0.00  0.00    +0.013 C 
BRANCH  13  15
ATOM     14  C   UNL     1      -0.019   1.526   0.010  0.00  0.00    +0.004 C 
ATOM     15  C   UNL     1       0.002  -0.004   0.002  0.00  0.00    -0.002 C 
ENDBRANCH  13  15
ENDBRANCH   1  13
BRANCH  11  16
ATOM     16  C   UNL     1      -2.836  -4.094  -2.397  0.00  0.00    +0.146 C 
BRANCH  16  17
ATOM     17  O   UNL     1      -4.180  -4.577  -2.380  0.00  0.00    -0.390 OA
ATOM     18  H   UNL     1      -4.251  -5.542  -2.376  0.00  0.00    +0.210 HD
ENDBRANCH  16  17
BRANCH  16  19
ATOM     19  C   UNL     1      -2.126  -4.604  -3.652  0.00  0.00    +0.173 C 
BRANCH  19  20
ATOM     20  O   UNL     1      -0.781  -4.121  -3.669  0.00  0.00    -0.387 OA
ATOM     21  H   UNL     1      -0.710  -3.157  -3.673  0.00  0.00    +0.210 HD
ENDBRANCH  19  20
BRANCH  19  22
ATOM     22  C   UNL     1      -2.864  -4.103  -4.895  0.00  0.00    +0.171 C 
BRANCH  22  23
ATOM     23  O   UNL     1      -4.208  -4.586  -4.878  0.00  0.00    -0.387 OA
ATOM     24  H   UNL     1      -4.279  -5.550  -4.874  0.00  0.00    +0.210 HD
ENDBRANCH  22  23
BRANCH  22  25
ATOM     25  C   UNL     1      -2.154  -4.613  -6.151  0.00  0.00    +0.189 C 
BRANCH  25  26
ATOM     26  O   UNL     1      -2.772  -4.050  -7.310  0.00  0.00    -0.392 OA
ATOM     27  H   UNL     1      -2.373  -4.331  -8.144  0.00  0.00    +0.210 HD
ENDBRANCH  25  26
ENDBRANCH  22  25
ENDBRANCH  19  22
ENDBRANCH  16  19
ENDBRANCH  11  16
BRANCH   5  28
ATOM     28  C   UNL     1       0.075  -4.642   2.530  0.00  0.00    +0.013 C 
BRANCH  28  29
ATOM     29  C   UNL     1       1.522  -4.147   2.514  0.00  0.00    -0.002 C 
ATOM     30  C   UNL     1       2.247  -4.646   3.765  0.00  0.00    +0.004 C 
ENDBRANCH  28  29
ENDBRANCH   5  28
TORSDOF 12
