REMARK  Name = ZINC09346236
REMARK  9 active torsions:
REMARK  status: ('A' for Active; 'I' for Inactive)
REMARK    1  A    between atoms: C_1  and  C_2
REMARK    2  A    between atoms: C_2  and  O_3
REMARK    3  A    between atoms: O_3  and  C_4
REMARK    4  A    between atoms: C_7  and  C_12
REMARK    5  A    between atoms: C_9  and  O_10
REMARK    6  A    between atoms: O_10  and  C_11
REMARK    7  A    between atoms: C_23  and  C_25
REMARK    8  A    between atoms: C_35  and  S_37
REMARK    9  A    between atoms: S_37  and  C_38
REMARK                            x       y       z     vdW  Elec       q    Type
REMARK                         _______ _______ _______ _____ _____    ______ ____
ROOT
ATOM      1  C   UNL     1       1.107  -6.044  -1.844  0.00  0.00    +0.159 C 
ATOM      2  C   UNL     1       2.298  -6.524  -1.043  0.00  0.00    +0.025 C 
ATOM      3  C   UNL     1       2.088  -7.451  -0.086  0.00  0.00    +0.058 C 
ATOM      4  C   UNL     1       3.265  -7.904   0.698  0.00  0.00    +0.040 A 
ATOM      5  C   UNL     1       3.222  -9.059   1.467  0.00  0.00    +0.013 A 
ATOM      6  C   UNL     1       4.341  -9.445   2.180  0.00  0.00    +0.001 A 
ATOM      7  C   UNL     1       5.497  -8.685   2.128  0.00  0.00    +0.004 A 
ATOM      8  C   UNL     1       5.547  -7.534   1.365  0.00  0.00    +0.046 A 
ATOM      9  C   UNL     1       4.434  -7.134   0.646  0.00  0.00    +0.131 A 
ATOM     10  O   UNL     1       4.452  -6.004  -0.105  0.00  0.00    -0.479 OA
ATOM     11  C   UNL     1       3.677  -5.995  -1.306  0.00  0.00    +0.234 C 
ATOM     12  N   UNL     1       0.852  -7.953   0.157  0.00  0.00    -0.326 N 
ATOM     13  C   UNL     1      -0.235  -7.593  -0.492  0.00  0.00    +0.216 C 
ATOM     14  N   UNL     1      -0.185  -6.648  -1.494  0.00  0.00    -0.209 N 
ATOM     15  N   UNL     1      -1.490  -6.492  -1.966  0.00  0.00    -0.239 N 
ATOM     16  C   UNL     1      -2.271  -7.346  -1.232  0.00  0.00    +0.174 C 
ATOM     17  N   UNL     1      -1.516  -7.986  -0.375  0.00  0.00    -0.192 NA
ATOM     18  H   UNL     1       0.764  -8.621   0.854  0.00  0.00    +0.169 HD
ATOM     19  H   UNL     1      -1.785  -5.897  -2.673  0.00  0.00    +0.172 HD
ENDROOT
BRANCH   1  23
ATOM     20  C   UNL     1       0.777  -1.811  -1.336  0.00  0.00    +0.162 A 
ATOM     21  C   UNL     1       0.243  -2.669  -0.388  0.00  0.00    +0.050 A 
ATOM     22  C   UNL     1       0.352  -4.037  -0.555  0.00  0.00    +0.009 A 
ATOM     23  C   UNL     1       0.992  -4.552  -1.667  0.00  0.00    -0.017 A 
ATOM     24  C   UNL     1       1.526  -3.702  -2.616  0.00  0.00    +0.055 A 
ATOM     25  C   UNL     1       1.416  -2.330  -2.458  0.00  0.00    +0.162 A 
BRANCH  25  26
ATOM     26  O   UNL     1       1.936  -1.492  -3.394  0.00  0.00    -0.491 OA
ATOM     27  C   UNL     1       2.578  -2.095  -4.520  0.00  0.00    +0.277 C 
ENDBRANCH  25  26
BRANCH  20  28
ATOM     28  O   UNL     1       0.671  -0.465  -1.174  0.00  0.00    -0.489 OA
BRANCH  28  30
ATOM     29  C   UNL     1      -0.019   1.526   0.010  0.00  0.00    +0.048 C 
ATOM     30  C   UNL     1       0.002  -0.004   0.002  0.00  0.00    +0.226 C 
ENDBRANCH  28  30
ENDBRANCH  20  28
ENDBRANCH   1  23
BRANCH  11  31
ATOM     31  C   UNL     1       4.352  -6.857  -2.341  0.00  0.00    -0.003 A 
ATOM     32  C   UNL     1       4.915  -8.066  -1.975  0.00  0.00    +0.007 A 
ATOM     33  C   UNL     1       5.534  -8.856  -2.925  0.00  0.00    +0.000 A 
ATOM     34  C   UNL     1       5.590  -8.439  -4.241  0.00  0.00    +0.000 A 
ATOM     35  C   UNL     1       5.027  -7.231  -4.608  0.00  0.00    +0.000 A 
ATOM     36  C   UNL     1       4.404  -6.442  -3.659  0.00  0.00    +0.007 A 
ENDBRANCH  11  31
BRANCH  16  37
ATOM     37  S   UNL     1      -4.010  -7.555  -1.417  0.00  0.00    -0.092 S 
ATOM     38  C   UNL     1      -4.436  -8.805  -0.173  0.00  0.00    +0.093 C 
ENDBRANCH  16  37
TORSDOF 6
