REMARK  Name = ZINC31159166
REMARK  11 active torsions:
REMARK  status: ('A' for Active; 'I' for Inactive)
REMARK    1  A    between atoms: C_4  and  C_7
REMARK    2  A    between atoms: C_8  and  C_9
REMARK    3  A    between atoms: C_9  and  C_11
REMARK    4  A    between atoms: C_14  and  O_18
REMARK    5  A    between atoms: C_16  and  O_17
REMARK    6  A    between atoms: O_18  and  C_19
REMARK    7  A    between atoms: C_21  and  O_34
REMARK    8  A    between atoms: C_23  and  O_33
REMARK    9  A    between atoms: C_25  and  O_32
REMARK   10  A    between atoms: C_27  and  C_30
REMARK   11  A    between atoms: C_30  and  O_31
REMARK                            x       y       z     vdW  Elec       q    Type
REMARK                         _______ _______ _______ _____ _____    ______ ____
ROOT
ATOM      1  C   UNL     1       4.598   6.710   1.376  0.00  0.00    +0.063 A 
ATOM      2  C   UNL     1       4.456   5.319   1.395  0.00  0.00    +0.019 A 
ATOM      3  C   UNL     1       3.212   4.757   1.349  0.00  0.00    +0.047 A 
ATOM      4  C   UNL     1       2.079   5.562   1.273  0.00  0.00    +0.128 A 
ATOM      5  C   UNL     1       2.202   6.943   1.254  0.00  0.00    +0.091 A 
ATOM      6  C   UNL     1       3.458   7.525   1.305  0.00  0.00    +0.131 A 
ENDROOT
BRANCH   1   7
ATOM      7  C   UNL     1       5.940   7.318   1.431  0.00  0.00    +0.190 C 
ATOM      8  O   UNL     1       6.061   8.530   1.415  0.00  0.00    -0.287 OA
BRANCH   7  10
ATOM      9  C   UNL     1       8.356   7.021   1.556  0.00  0.00    +0.012 C 
ATOM     10  C   UNL     1       7.127   6.465   1.505  0.00  0.00    +0.052 C 
BRANCH   9  14
ATOM     11  C   UNL     1      11.796   4.550   1.770  0.00  0.00    +0.000 A 
ATOM     12  C   UNL     1      11.938   5.927   1.752  0.00  0.00    +0.001 A 
ATOM     13  C   UNL     1      10.824   6.737   1.683  0.00  0.00    +0.008 A 
ATOM     14  C   UNL     1       9.549   6.164   1.630  0.00  0.00    -0.025 A 
ATOM     15  C   UNL     1       9.414   4.772   1.654  0.00  0.00    +0.008 A 
ATOM     16  C   UNL     1      10.538   3.975   1.719  0.00  0.00    +0.001 A 
ENDBRANCH   9  14
ENDBRANCH   7  10
ENDBRANCH   1   7
BRANCH   6  17
ATOM     17  O   UNL     1       3.585   8.876   1.287  0.00  0.00    -0.506 OA
ATOM     18  H   UNL     1       2.689   9.512   1.231  0.00  0.00    +0.292 HD
ENDBRANCH   6  17
BRANCH   4  19
ATOM     19  O   UNL     1       0.848   4.992   1.223  0.00  0.00    -0.461 OA
BRANCH  19  20
ATOM     20  C   UNL     1       0.792   3.564   1.247  0.00  0.00    +0.339 C 
ATOM     21  C   UNL     1      -0.669   3.112   1.308  0.00  0.00    +0.214 C 
ATOM     22  C   UNL     1      -0.723   1.581   1.272  0.00  0.00    +0.180 C 
ATOM     23  C   UNL     1      -0.013   1.086   0.008  0.00  0.00    +0.177 C 
ATOM     24  C   UNL     1       1.423   1.617  -0.003  0.00  0.00    +0.179 C 
ATOM     25  O   UNL     1       1.402   3.044   0.064  0.00  0.00    -0.331 OA
BRANCH  23  26
ATOM     26  O   UNL     1      -0.706   1.560  -1.148  0.00  0.00    -0.386 OA
ATOM     27  H   UNL     1      -0.340   1.304  -2.153  0.00  0.00    +0.210 HD
ENDBRANCH  23  26
BRANCH  22  28
ATOM     28  O   UNL     1      -2.085   1.151   1.254  0.00  0.00    -0.386 OA
ATOM     29  H   UNL     1      -2.323   0.077   1.228  0.00  0.00    +0.210 HD
ENDBRANCH  22  28
BRANCH  21  30
ATOM     30  O   UNL     1      -1.265   3.583   2.518  0.00  0.00    -0.383 OA
ATOM     31  H   UNL     1      -2.318   3.354   2.738  0.00  0.00    +0.210 HD
ENDBRANCH  21  30
BRANCH  24  32
ATOM     32  C   UNL     1       2.120   1.176  -1.291  0.00  0.00    +0.190 C 
BRANCH  32  33
ATOM     33  O   UNL     1       3.493   1.572  -1.250  0.00  0.00    -0.392 OA
ATOM     34  H   UNL     1       4.158   1.340  -2.094  0.00  0.00    +0.210 HD
ENDBRANCH  32  33
ENDBRANCH  24  32
ENDBRANCH  19  20
ENDBRANCH   4  19
TORSDOF 11
