REMARK  Name = ZINC67416047
REMARK  8 active torsions:
REMARK  status: ('A' for Active; 'I' for Inactive)
REMARK    1  A    between atoms: C_1  and  C_2
REMARK    2  A    between atoms: C_2  and  C_4
REMARK    3  A    between atoms: C_2  and  N_18
REMARK    4  A    between atoms: N_6  and  C_7
REMARK    5  A    between atoms: C_8  and  C_15
REMARK    6  A    between atoms: C_22  and  C_25
REMARK    7  A    between atoms: C_25  and  N_26
REMARK    8  A    between atoms: C_27  and  C_29
REMARK                            x       y       z     vdW  Elec       q    Type
REMARK                         _______ _______ _______ _____ _____    ______ ____
ROOT
ATOM      1  C   UNL     1       0.604  -0.600  -1.245  0.00  0.00    +0.204 C 
ATOM      2  O   UNL     1      -0.031  -1.397  -1.903  0.00  0.00    -0.277 OA
ATOM      3  N   UNL     1       1.846  -0.247  -1.628  0.00  0.00    -0.281 N 
ATOM      4  H   UNL     1       2.354   0.391  -1.102  0.00  0.00    +0.155 HD
ENDROOT
BRANCH   3   5
ATOM      5  C   UNL     1       2.400  -0.795  -2.776  0.00  0.00    +0.084 A 
ATOM      6  C   UNL     1       3.651  -0.557  -3.313  0.00  0.00    +0.068 A 
ATOM      7  C   UNL     1       3.998  -1.268  -4.543  0.00  0.00    -0.023 A 
ATOM      8  C   UNL     1       3.027  -2.080  -4.999  0.00  0.00    -0.004 A 
ATOM      9  S   UNL     1       1.708  -1.905  -3.825  0.00  0.00    -0.077 S 
ATOM     10  C   UNL     1       3.434  -2.783  -6.266  0.00  0.00    +0.043 C 
ATOM     11  C   UNL     1       4.644  -1.977  -6.788  0.00  0.00    +0.010 C 
ATOM     12  C   UNL     1       5.194  -1.356  -5.488  0.00  0.00    +0.037 C 
BRANCH   6  13
ATOM     13  C   UNL     1       4.591   0.371  -2.677  0.00  0.00    +0.244 C 
ATOM     14  O   UNL     1       5.378  -0.036  -1.843  0.00  0.00    -0.270 OA
ATOM     15  N   UNL     1       4.584   1.675  -3.017  0.00  0.00    -0.325 N 
ATOM     16  H   UNL     1       3.957   2.000  -3.682  0.00  0.00    +0.145 HD
ATOM     17  H   UNL     1       5.206   2.289  -2.596  0.00  0.00    +0.145 HD
ENDBRANCH   6  13
ENDBRANCH   3   5
BRANCH   1  19
ATOM     18  C   UNL     1      -0.690   1.315  -0.346  0.00  0.00    -0.004 C 
ATOM     19  C   UNL     1       0.002  -0.004   0.002  0.00  0.00    +0.016 C 
BRANCH  19  20
ATOM     20  N   UNL     1      -0.981  -0.939   0.566  0.00  0.00    +0.387 N 
ATOM     21  C   UNL     1      -1.598  -0.338   1.755  0.00  0.00    -0.078 C 
ATOM     22  C   UNL     1      -2.680  -1.273   2.300  0.00  0.00    -0.018 C 
ATOM     23  C   UNL     1      -2.046  -2.615   2.675  0.00  0.00    +0.001 C 
ATOM     24  C   UNL     1      -1.341  -3.197   1.446  0.00  0.00    -0.011 C 
ATOM     25  C   UNL     1      -0.309  -2.191   0.933  0.00  0.00    -0.073 C 
ATOM     26  H   UNL     1      -1.694  -1.130  -0.121  0.00  0.00    -0.081 HD
BRANCH  24  27
ATOM     27  C   UNL     1      -0.638  -4.501   1.830  0.00  0.00    +0.105 C 
BRANCH  27  28
ATOM     28  N   UNL     1      -1.638  -5.501   2.212  0.00  0.00    -0.315 N 
ATOM     29  C   UNL     1      -1.248  -6.734   2.591  0.00  0.00    +0.210 C 
ATOM     30  O   UNL     1      -0.069  -7.016   2.615  0.00  0.00    -0.276 OA
ATOM     31  C   UNL     1      -2.277  -7.762   2.984  0.00  0.00    +0.109 C 
ATOM     32  H   UNL     1      -2.582  -5.275   2.193  0.00  0.00    +0.149 HD
ENDBRANCH  27  28
ENDBRANCH  24  27
ENDBRANCH  19  20
ENDBRANCH   1  19
TORSDOF 6
