REMARK  Name = ZINC36551504
REMARK  18 active torsions:
REMARK  status: ('A' for Active; 'I' for Inactive)
REMARK    1  A    between atoms: C_1  and  C_2
REMARK    2  A    between atoms: C_2  and  C_36
REMARK    3  A    between atoms: C_3  and  C_4
REMARK    4  A    between atoms: N_6  and  C_7
REMARK    5  A    between atoms: N_6  and  C_14
REMARK    6  A    between atoms: C_14  and  C_16
REMARK    7  A    between atoms: C_14  and  C_25
REMARK    8  A    between atoms: C_19  and  O_24
REMARK    9  A    between atoms: C_20  and  O_22
REMARK   10  A    between atoms: O_22  and  C_23
REMARK   11  A    between atoms: N_27  and  C_28
REMARK   12  A    between atoms: C_28  and  C_29
REMARK   13  A    between atoms: C_28  and  C_30
REMARK   14  A    between atoms: C_28  and  C_31
REMARK   15  A    between atoms: C_31  and  C_32
REMARK   16  A    between atoms: C_32  and  C_33
REMARK   17  A    between atoms: C_32  and  C_34
REMARK   18  A    between atoms: C_32  and  C_35
REMARK                            x       y       z     vdW  Elec       q    Type
REMARK                         _______ _______ _______ _____ _____    ______ ____
ROOT
ATOM      1  C   UNL     1      -0.017  -2.452   7.197  0.00  0.00    +0.198 C 
ENDROOT
BRANCH   1   2
ATOM      2  C   UNL     1      -0.374  -2.890   8.593  0.00  0.00    -0.014 A 
ATOM      3  C   UNL     1      -0.316  -4.230   8.932  0.00  0.00    +0.010 A 
ATOM      4  C   UNL     1      -0.643  -4.637  10.212  0.00  0.00    +0.049 A 
ATOM      5  C   UNL     1      -1.029  -3.702  11.159  0.00  0.00    +0.158 A 
ATOM      6  C   UNL     1      -1.087  -2.354  10.818  0.00  0.00    +0.162 A 
ATOM      7  C   UNL     1      -0.753  -1.952   9.535  0.00  0.00    +0.055 A 
BRANCH   6   8
ATOM      8  O   UNL     1      -1.465  -1.433  11.745  0.00  0.00    -0.491 OA
ATOM      9  C   UNL     1      -1.501  -0.068  11.324  0.00  0.00    +0.277 C 
ENDBRANCH   6   8
BRANCH   5  10
ATOM     10  O   UNL     1      -1.351  -4.101  12.418  0.00  0.00    -0.503 OA
ATOM     11  H   UNL     1      -0.602  -4.119  13.029  0.00  0.00    +0.292 HD
ENDBRANCH   5  10
ENDBRANCH   1   2
BRANCH   1  12
ATOM     12  C   UNL     1       1.329  -3.018   6.821  0.00  0.00    +0.239 C 
ATOM     13  O   UNL     1       1.431  -3.755   5.863  0.00  0.00    -0.273 OA
ATOM     14  N   UNL     1       2.419  -2.704   7.550  0.00  0.00    -0.308 N 
ATOM     15  H   UNL     1       2.337  -2.115   8.316  0.00  0.00    +0.149 HD
BRANCH  14  16
ATOM     16  C   UNL     1       3.727  -3.255   7.185  0.00  0.00    +0.030 C 
ATOM     17  C   UNL     1       3.724  -4.768   7.411  0.00  0.00    +0.031 C 
ATOM     18  C   UNL     1       4.010  -2.960   5.710  0.00  0.00    +0.031 C 
BRANCH  16  19
ATOM     19  C   UNL     1       4.811  -2.611   8.051  0.00  0.00    +0.031 C 
BRANCH  19  20
ATOM     20  C   UNL     1       4.956  -1.135   7.673  0.00  0.00    -0.036 C 
ATOM     21  C   UNL     1       3.570  -0.522   7.468  0.00  0.00    +0.010 C 
ATOM     22  C   UNL     1       5.683  -0.391   8.795  0.00  0.00    +0.010 C 
ATOM     23  C   UNL     1       5.762  -1.018   6.378  0.00  0.00    +0.010 C 
ENDBRANCH  19  20
ENDBRANCH  16  19
ENDBRANCH  14  16
ENDBRANCH   1  12
BRANCH   1  26
ATOM     24  C   UNL     1      -0.988  -2.560   4.965  0.00  0.00    +0.245 C 
ATOM     25  O   UNL     1      -0.165  -1.744   4.596  0.00  0.00    -0.270 OA
ATOM     26  N   UNL     1      -1.030  -2.938   6.258  0.00  0.00    -0.252 N 
BRANCH  26  27
ATOM     27  C   UNL     1      -2.042  -3.795   6.702  0.00  0.00    +0.039 A 
ATOM     28  C   UNL     1      -3.045  -3.315   7.534  0.00  0.00    +0.023 A 
ATOM     29  C   UNL     1      -4.043  -4.163   7.972  0.00  0.00    +0.003 A 
ATOM     30  C   UNL     1      -4.044  -5.490   7.584  0.00  0.00    +0.020 A 
ATOM     31  C   UNL     1      -3.046  -5.973   6.755  0.00  0.00    +0.043 A 
ATOM     32  C   UNL     1      -2.048  -5.127   6.309  0.00  0.00    +0.043 A 
ATOM     33 CL   UNL     1      -3.052  -7.640   6.271  0.00  0.00    -0.083 Cl
ENDBRANCH  26  27
BRANCH  24  36
ATOM     34  C   UNL     1      -0.969  -1.661   2.285  0.00  0.00    +0.039 C 
ATOM     35  C   UNL     1      -1.874  -2.786   2.717  0.00  0.00    -0.071 C 
ATOM     36  C   UNL     1      -1.938  -3.133   3.999  0.00  0.00    +0.066 C 
ATOM     37  C   UNL     1      -2.705  -3.519   1.695  0.00  0.00    +0.039 C 
ENDBRANCH  24  36
ENDBRANCH   1  26
TORSDOF 10
