REMARK  Name = ZINC39446053
REMARK  8 active torsions:
REMARK  status: ('A' for Active; 'I' for Inactive)
REMARK    1  A    between atoms: C_1  and  C_2
REMARK    2  A    between atoms: C_5  and  N_8
REMARK    3  A    between atoms: C_9  and  C_26
REMARK    4  A    between atoms: C_17  and  C_19
REMARK    5  A    between atoms: C_29  and  O_34
REMARK    6  A    between atoms: C_30  and  O_32
REMARK    7  A    between atoms: O_32  and  C_33
REMARK    8  A    between atoms: O_34  and  C_35
REMARK                            x       y       z     vdW  Elec       q    Type
REMARK                         _______ _______ _______ _____ _____    ______ ____
ROOT
ATOM      1  N   UNL     1       0.059  -4.169  -0.021  0.00  0.00    -0.255 N 
ATOM      2  C   UNL     1       0.071  -5.042   1.161  0.00  0.00    +0.143 C 
ATOM      3  C   UNL     1       0.090  -6.447   0.634  0.00  0.00    +0.015 C 
ATOM      4  C   UNL     1       0.089  -6.381  -0.716  0.00  0.00    +0.149 C 
ATOM      5  C   UNL     1       0.064  -4.956  -1.111  0.00  0.00    +0.272 C 
ATOM      6  O   UNL     1       0.053  -4.554  -2.259  0.00  0.00    -0.268 OA
ATOM      7  N   UNL     1       0.106  -7.648  -1.229  0.00  0.00    -0.173 NA
ATOM      8  N   UNL     1       0.119  -8.546  -0.386  0.00  0.00    -0.297 N 
ATOM      9  C   UNL     1       0.110  -7.922   0.949  0.00  0.00    +0.159 C 
ATOM     10  H   UNL     1       0.131  -9.498  -0.569  0.00  0.00    +0.183 HD
ENDROOT
BRANCH   1  15
ATOM     11  C   UNL     1      -0.018   1.503   0.010  0.00  0.00    +0.044 C 
ATOM     12  C   UNL     1       0.002  -0.004   0.002  0.00  0.00    -0.050 A 
ATOM     13  C   UNL     1       0.006  -0.687  -1.200  0.00  0.00    +0.005 A 
ATOM     14  C   UNL     1       0.025  -2.068  -1.211  0.00  0.00    +0.024 A 
ATOM     15  C   UNL     1       0.041  -2.771  -0.013  0.00  0.00    +0.038 A 
ATOM     16  C   UNL     1       0.037  -2.081   1.192  0.00  0.00    +0.024 A 
ATOM     17  C   UNL     1       0.023  -0.700   1.197  0.00  0.00    +0.005 A 
ENDBRANCH   1  15
BRANCH   9  18
ATOM     18  C   UNL     1       1.355  -8.287   1.715  0.00  0.00    -0.019 A 
ATOM     19  C   UNL     1       2.553  -8.459   1.046  0.00  0.00    +0.007 A 
ATOM     20  C   UNL     1       3.695  -8.793   1.748  0.00  0.00    +0.015 A 
ATOM     21  C   UNL     1       3.641  -8.954   3.121  0.00  0.00    +0.018 A 
ATOM     22  C   UNL     1       2.443  -8.782   3.790  0.00  0.00    +0.015 A 
ATOM     23  C   UNL     1       1.302  -8.443   3.088  0.00  0.00    +0.007 A 
ATOM     24 BR   UNL     1       5.204  -9.412   4.082  0.00  0.00    -0.050 Br
ENDBRANCH   9  18
BRANCH   2  25
ATOM     25  C   UNL     1      -1.167  -4.812   1.989  0.00  0.00    -0.019 A 
ATOM     26  C   UNL     1      -2.382  -4.596   1.367  0.00  0.00    +0.009 A 
ATOM     27  C   UNL     1      -3.521  -4.385   2.122  0.00  0.00    +0.050 A 
ATOM     28  C   UNL     1      -3.445  -4.390   3.505  0.00  0.00    +0.162 A 
ATOM     29  C   UNL     1      -2.222  -4.608   4.132  0.00  0.00    +0.162 A 
ATOM     30  C   UNL     1      -1.085  -4.824   3.369  0.00  0.00    +0.055 A 
BRANCH  29  31
ATOM     31  O   UNL     1      -2.143  -4.614   5.489  0.00  0.00    -0.491 OA
ATOM     32  C   UNL     1      -0.854  -4.844   6.063  0.00  0.00    +0.277 C 
ENDBRANCH  29  31
BRANCH  28  33
ATOM     33  O   UNL     1      -4.564  -4.182   4.250  0.00  0.00    -0.491 OA
ATOM     34  C   UNL     1      -5.785  -3.965   3.539  0.00  0.00    +0.277 C 
ENDBRANCH  28  33
ENDBRANCH   2  25
TORSDOF 5
