REMARK  Name = ZINC63709651
REMARK  6 active torsions:
REMARK  status: ('A' for Active; 'I' for Inactive)
REMARK    1  A    between atoms: C_7  and  N_10
REMARK    2  A    between atoms: N_13  and  C_14
REMARK    3  A    between atoms: C_14  and  C_15
REMARK    4  A    between atoms: C_15  and  C_16
REMARK    5  A    between atoms: C_19  and  S_22
REMARK    6  A    between atoms: S_22  and  N_25
REMARK                            x       y       z     vdW  Elec       q    Type
REMARK                         _______ _______ _______ _____ _____    ______ ____
ROOT
ATOM      1  N   UNL     1       0.701  -3.088  -0.021  0.00  0.00    -0.271 N 
ATOM      2  C   UNL     1      -0.625  -2.872   0.095  0.00  0.00    +0.304 C 
ATOM      3  O   UNL     1      -1.057  -1.736   0.105  0.00  0.00    -0.253 OA
ATOM      4  N   UNL     1      -1.471  -3.915   0.199  0.00  0.00    -0.299 N 
ATOM      5  H   UNL     1       1.039  -3.993  -0.103  0.00  0.00    +0.156 HD
ATOM      6  H   UNL     1      -1.126  -4.822   0.191  0.00  0.00    +0.150 HD
ENDROOT
BRANCH   1  13
ATOM      7  C   UNL     1       5.194  -2.924  -0.059  0.00  0.00    +0.001 A 
ATOM      8  C   UNL     1       5.698  -1.621  -0.057  0.00  0.00    +0.002 A 
ATOM      9  C   UNL     1       4.884  -0.538  -0.043  0.00  0.00    +0.026 A 
ATOM     10  C   UNL     1       3.476  -0.715  -0.031  0.00  0.00    +0.044 A 
ATOM     11  N   UNL     1       2.487   0.157  -0.017  0.00  0.00    -0.379 N 
ATOM     12  C   UNL     1       1.211  -0.565  -0.010  0.00  0.00    +0.164 C 
ATOM     13  C   UNL     1       1.564  -2.035  -0.022  0.00  0.00    +0.040 C 
ATOM     14  C   UNL     1       2.948  -2.090  -0.035  0.00  0.00    +0.017 A 
ATOM     15  C   UNL     1       3.861  -3.171  -0.049  0.00  0.00    +0.011 A 
ATOM     16  H   UNL     1       2.588   1.122  -0.012  0.00  0.00    +0.160 HD
ENDBRANCH   1  13
BRANCH   4  17
ATOM     17  C   UNL     1      -2.912  -3.680   0.325  0.00  0.00    +0.110 C 
BRANCH  17  18
ATOM     18  C   UNL     1      -3.640  -5.022   0.426  0.00  0.00    +0.054 C 
BRANCH  18  19
ATOM     19  C   UNL     1      -5.122  -4.780   0.555  0.00  0.00    -0.046 A 
ATOM     20  C   UNL     1      -5.692  -4.633   1.806  0.00  0.00    +0.005 A 
ATOM     21  C   UNL     1      -7.051  -4.412   1.924  0.00  0.00    +0.029 A 
ATOM     22  C   UNL     1      -7.841  -4.337   0.792  0.00  0.00    +0.105 A 
ATOM     23  C   UNL     1      -7.271  -4.483  -0.459  0.00  0.00    +0.029 A 
ATOM     24  C   UNL     1      -5.911  -4.700  -0.577  0.00  0.00    +0.005 A 
BRANCH  22  25
ATOM     25  S   UNL     1      -9.573  -4.055   0.943  0.00  0.00    +0.056 S 
ATOM     26  O   UNL     1     -10.173  -4.571  -0.237  0.00  0.00    -0.153 OA
ATOM     27  O   UNL     1      -9.945  -4.497   2.242  0.00  0.00    -0.153 OA
BRANCH  25  28
ATOM     28  N   UNL     1      -9.808  -2.416   0.916  0.00  0.00    -0.204 NA
ATOM     29  H   UNL     1      -9.048  -1.819   0.828  0.00  0.00    +0.144 HD
ATOM     30  H   UNL     1     -10.704  -2.053   0.987  0.00  0.00    +0.144 HD
ENDBRANCH  25  28
ENDBRANCH  22  25
ENDBRANCH  18  19
ENDBRANCH  17  18
ENDBRANCH   4  17
TORSDOF 6
