REMARK  Name = ZINC66988081
REMARK  8 active torsions:
REMARK  status: ('A' for Active; 'I' for Inactive)
REMARK    1  A    between atoms: C_1  and  C_2
REMARK    2  A    between atoms: C_2  and  N_3
REMARK    3  A    between atoms: N_3  and  C_4
REMARK    4  A    between atoms: N_3  and  C_5
REMARK    5  A    between atoms: C_5  and  C_6
REMARK    6  A    between atoms: C_6  and  N_7
REMARK    7  A    between atoms: N_10  and  N_11
REMARK    8  A    between atoms: C_12  and  C_14
REMARK                            x       y       z     vdW  Elec       q    Type
REMARK                         _______ _______ _______ _____ _____    ______ ____
ROOT
ATOM      1  N   UNL     1       2.014  -6.615   2.067  0.00  0.00    -0.229 N 
ATOM      2  C   UNL     1       2.128  -7.957   2.005  0.00  0.00    +0.267 C 
ATOM      3  O   UNL     1       2.767  -8.553   2.852  0.00  0.00    -0.268 OA
ATOM      4  H   UNL     1       1.505  -6.140   1.392  0.00  0.00    +0.173 HD
ENDROOT
BRANCH   2   5
ATOM      5  C   UNL     1       1.483  -8.698   0.916  0.00  0.00    +0.076 A 
ATOM      6  C   UNL     1       1.472 -10.057   0.674  0.00  0.00    +0.024 A 
ATOM      7  C   UNL     1       0.772 -10.494  -0.447  0.00  0.00    -0.036 A 
ATOM      8  C   UNL     1       0.169  -9.535  -1.196  0.00  0.00    -0.006 A 
ATOM      9  S   UNL     1       0.501  -8.081  -0.437  0.00  0.00    -0.088 S 
ATOM     10  C   UNL     1      -0.637  -9.718  -2.448  0.00  0.00    +0.043 C 
ATOM     11  C   UNL     1      -1.301 -11.099  -2.431  0.00  0.00    +0.005 C 
ATOM     12  C   UNL     1      -0.348 -12.105  -3.070  0.00  0.00    +0.001 C 
ATOM     13  C   UNL     1       0.959 -12.181  -2.285  0.00  0.00    +0.005 C 
ATOM     14  C   UNL     1       0.698 -11.977  -0.796  0.00  0.00    +0.036 C 
ENDBRANCH   2   5
BRANCH   1  18
ATOM     15  N   UNL     1       1.808  -3.906   2.231  0.00  0.00    -0.300 N 
ATOM     16  C   UNL     1       2.516  -4.566   3.169  0.00  0.00    +0.316 C 
ATOM     17  O   UNL     1       3.051  -3.951   4.071  0.00  0.00    -0.251 OA
ATOM     18  N   UNL     1       2.630  -5.907   3.107  0.00  0.00    -0.218 N 
ATOM     19  H   UNL     1       1.382  -4.396   1.511  0.00  0.00    +0.150 HD
ATOM     20  H   UNL     1       3.139  -6.383   3.782  0.00  0.00    +0.174 HD
BRANCH  15  21
ATOM     21  C   UNL     1       1.684  -2.447   2.299  0.00  0.00    +0.087 C 
BRANCH  21  22
ATOM     22  C   UNL     1       0.837  -1.953   1.124  0.00  0.00    -0.060 C 
BRANCH  22  23
ATOM     23  N   UNL     1       0.713  -0.491   1.192  0.00  0.00    +0.379 N 
ATOM     24  C   UNL     1      -0.040  -0.119   2.398  0.00  0.00    -0.096 C 
ATOM     25  H   UNL     1       1.632  -0.076   1.228  0.00  0.00    -0.082 HD
BRANCH  23  27
ATOM     26  C   UNL     1      -0.019   1.526   0.010  0.00  0.00    -0.017 C 
ATOM     27  C   UNL     1       0.002  -0.004   0.002  0.00  0.00    -0.083 C 
ENDBRANCH  23  27
ENDBRANCH  22  23
ENDBRANCH  21  22
ENDBRANCH  15  21
ENDBRANCH   1  18
TORSDOF 6
