REMARK  Name = ZINC23701052
REMARK  10 active torsions:
REMARK  status: ('A' for Active; 'I' for Inactive)
REMARK    1  A    between atoms: C_1  and  C_2
REMARK    2  A    between atoms: C_2  and  C_27
REMARK    3  A    between atoms: N_5  and  N_9
REMARK    4  A    between atoms: C_10  and  C_12
REMARK    5  A    between atoms: C_12  and  N_13
REMARK    6  A    between atoms: N_13  and  C_14
REMARK    7  A    between atoms: C_14  and  C_15
REMARK    8  A    between atoms: C_14  and  C_21
REMARK    9  A    between atoms: C_27  and  C_28
REMARK   10  A    between atoms: C_28  and  C_29
REMARK                            x       y       z     vdW  Elec       q    Type
REMARK                         _______ _______ _______ _____ _____    ______ ____
ROOT
ATOM      1  N   UNL     1       3.517   0.983  -0.027  0.00  0.00    -0.225 N 
ATOM      2  C   UNL     1       4.147   1.356  -1.158  0.00  0.00    +0.213 C 
ATOM      3  O   UNL     1       3.506   1.572  -2.165  0.00  0.00    -0.276 OA
ATOM      4  H   UNL     1       4.098   0.787   0.887  0.00  0.00    +0.173 HD
ENDROOT
BRANCH   1   9
ATOM      5  C   UNL     1      -0.690  -0.545  -1.251  0.00  0.00    +0.041 C 
ATOM      6  C   UNL     1       0.002  -0.004   0.002  0.00  0.00    +0.112 C 
ATOM      7  C   UNL     1       1.480  -0.340  -0.014  0.00  0.00    +0.263 C 
ATOM      8  O   UNL     1       1.980  -1.445  -0.024  0.00  0.00    -0.271 OA
ATOM      9  N   UNL     1       2.123   0.844  -0.014  0.00  0.00    -0.137 N 
ATOM     10  C   UNL     1       1.266   1.871   0.000  0.00  0.00    +0.326 C 
ATOM     11  O   UNL     1       1.608   3.037   0.003  0.00  0.00    -0.251 OA
ATOM     12  N   UNL     1      -0.018   1.469   0.010  0.00  0.00    -0.284 N 
ATOM     13  H   UNL     1      -0.978   2.006   0.022  0.00  0.00    +0.151 HD
BRANCH   6  14
ATOM     14  C   UNL     1      -0.662  -0.558   1.264  0.00  0.00    +0.040 C 
BRANCH  14  15
ATOM     15  C   UNL     1      -2.125  -0.113   1.308  0.00  0.00    +0.038 C 
BRANCH  15  16
ATOM     16  C   UNL     1      -2.780  -0.659   2.550  0.00  0.00    -0.047 A 
ATOM     17  C   UNL     1      -3.403  -1.892   2.518  0.00  0.00    +0.003 A 
ATOM     18  C   UNL     1      -4.000  -2.395   3.659  0.00  0.00    +0.000 A 
ATOM     19  C   UNL     1      -3.982  -1.660   4.830  0.00  0.00    +0.000 A 
ATOM     20  C   UNL     1      -3.362  -0.424   4.861  0.00  0.00    +0.000 A 
ATOM     21  C   UNL     1      -2.762   0.076   3.721  0.00  0.00    +0.003 A 
ENDBRANCH  15  16
ENDBRANCH  14  15
ENDBRANCH   6  14
ENDBRANCH   1   9
BRANCH   2  22
ATOM     22  C   UNL     1       5.646   1.506  -1.172  0.00  0.00    +0.018 C 
BRANCH  22  23
ATOM     23  N   UNL     1       6.085   1.918  -2.512  0.00  0.00    +0.392 N 
ATOM     24  H   UNL     1       5.785   1.156  -3.247  0.00  0.00    -0.084 HD
ATOM     25  H   UNL     1       5.618   2.880  -2.771  0.00  0.00    -0.084 HD
BRANCH  23  26
ATOM     26  C   UNL     1       7.545   2.074  -2.564  0.00  0.00    -0.009 C 
BRANCH  26  27
ATOM     27  C   UNL     1       8.183   0.736  -2.837  0.00  0.00    -0.057 A 
ATOM     28  C   UNL     1       7.603  -0.135  -3.740  0.00  0.00    +0.002 A 
ATOM     29  C   UNL     1       8.191  -1.360  -3.994  0.00  0.00    +0.000 A 
ATOM     30  C   UNL     1       9.354  -1.718  -3.338  0.00  0.00    +0.000 A 
ATOM     31  C   UNL     1       9.932  -0.848  -2.432  0.00  0.00    +0.000 A 
ATOM     32  C   UNL     1       9.346   0.379  -2.181  0.00  0.00    +0.002 A 
ENDBRANCH  26  27
BRANCH  26  33
ATOM     33  C   UNL     1       7.909   3.038  -3.663  0.00  0.00    -0.057 A 
ATOM     34  C   UNL     1       7.236   2.997  -4.870  0.00  0.00    +0.002 A 
ATOM     35  C   UNL     1       7.566   3.885  -5.876  0.00  0.00    +0.000 A 
ATOM     36  C   UNL     1       8.577   4.807  -5.680  0.00  0.00    +0.000 A 
ATOM     37  C   UNL     1       9.253   4.845  -4.475  0.00  0.00    +0.000 A 
ATOM     38  C   UNL     1       8.919   3.961  -3.466  0.00  0.00    +0.002 A 
ENDBRANCH  26  33
ENDBRANCH  23  26
ENDBRANCH  22  23
ENDBRANCH   2  22
TORSDOF 9
