REMARK  Name = ZINC20080557
REMARK  3 active torsions:
REMARK  status: ('A' for Active; 'I' for Inactive)
REMARK    1  A    between atoms: C_1  and  N_2
REMARK    2  A    between atoms: C_13  and  C_16
REMARK    3  A    between atoms: C_19  and  C_21
REMARK                            x       y       z     vdW  Elec       q    Type
REMARK                         _______ _______ _______ _____ _____    ______ ____
ROOT
ATOM      1  C   UNL     1      -0.018   1.465   0.010  0.00  0.00    -0.096 C 
ATOM      2  N   UNL     1       0.002  -0.004   0.002  0.00  0.00    +0.381 N 
ATOM      3  C   UNL     1      -1.376  -0.512   0.009  0.00  0.00    -0.074 C 
ATOM      4  C   UNL     1      -1.389  -2.010  -0.312  0.00  0.00    +0.018 C 
ATOM      5  C   UNL     1      -0.410  -2.699   0.629  0.00  0.00    -0.027 A 
ATOM      6  C   UNL     1       0.521  -1.972   1.290  0.00  0.00    -0.021 A 
ATOM      7  S   UNL     1       1.420  -3.155   2.251  0.00  0.00    -0.080 S 
ATOM      8  C   UNL     1       0.619  -4.539   1.805  0.00  0.00    +0.080 A 
ATOM      9  C   UNL     1      -0.373  -4.123   0.904  0.00  0.00    +0.068 A 
ATOM     10  C   UNL     1      -1.269  -5.160   0.342  0.00  0.00    +0.248 C 
ATOM     11  O   UNL     1      -2.259  -4.861  -0.301  0.00  0.00    -0.270 OA
ATOM     12  N   UNL     1      -0.943  -6.449   0.571  0.00  0.00    -0.287 N 
ATOM     13  C   UNL     1       0.309  -6.864   1.195  0.00  0.00    +0.227 C 
ATOM     14  N   UNL     1       0.789  -5.856   2.156  0.00  0.00    -0.314 N 
ATOM     15  C   UNL     1       0.715  -0.492   1.197  0.00  0.00    -0.036 C 
ATOM     16  H   UNL     1      -1.574  -7.137   0.307  0.00  0.00    +0.151 HD
ATOM     17  H   UNL     1       1.205  -6.109   2.995  0.00  0.00    +0.149 HD
ATOM     18  H   UNL     1       0.475  -0.329  -0.828  0.00  0.00    -0.082 HD
ENDROOT
BRANCH  13  19
ATOM     19  C   UNL     1       1.353  -7.060   0.125  0.00  0.00    +0.144 A 
ATOM     20  C   UNL     1       1.113  -7.438  -1.146  0.00  0.00    +0.049 A 
ATOM     21  C   UNL     1       2.360  -7.497  -1.800  0.00  0.00    +0.050 A 
ATOM     22  C   UNL     1       3.301  -7.148  -0.883  0.00  0.00    +0.135 A 
ATOM     23  O   UNL     1       2.675  -6.880   0.279  0.00  0.00    -0.456 OA
BRANCH  22  24
ATOM     24  C   UNL     1       4.757  -7.071  -1.122  0.00  0.00    +0.019 A 
ATOM     25  C   UNL     1       5.278  -7.366  -2.383  0.00  0.00    +0.011 A 
ATOM     26  C   UNL     1       6.638  -7.292  -2.600  0.00  0.00    +0.002 A 
ATOM     27  C   UNL     1       7.487  -6.926  -1.570  0.00  0.00    +0.020 A 
ATOM     28  C   UNL     1       6.978  -6.633  -0.317  0.00  0.00    +0.042 A 
ATOM     29  C   UNL     1       5.617  -6.697  -0.089  0.00  0.00    +0.031 A 
ATOM     30 CL   UNL     1       8.051  -6.176   0.969  0.00  0.00    -0.084 Cl
ENDBRANCH  22  24
ENDBRANCH  13  19
TORSDOF 2
