REMARK  Name = ZINC56206463
REMARK  10 active torsions:
REMARK  status: ('A' for Active; 'I' for Inactive)
REMARK    1  A    between atoms: C_1  and  C_2
REMARK    2  A    between atoms: C_4  and  O_25
REMARK    3  A    between atoms: C_7  and  N_8
REMARK    4  A    between atoms: N_8  and  C_9
REMARK    5  A    between atoms: C_9  and  C_11
REMARK    6  A    between atoms: C_9  and  C_12
REMARK    7  A    between atoms: N_17  and  C_18
REMARK    8  A    between atoms: C_18  and  C_19
REMARK    9  A    between atoms: O_25  and  C_26
REMARK   10  A    between atoms: C_26  and  C_27
REMARK                            x       y       z     vdW  Elec       q    Type
REMARK                         _______ _______ _______ _____ _____    ______ ____
ROOT
ATOM      1  N   UNL     1       0.025  -0.012   2.416  0.00  0.00    -0.333 N 
ATOM      2  H   UNL     1       0.012   0.958   2.422  0.00  0.00    +0.147 HD
ENDROOT
BRANCH   1   9
ATOM      3  C   UNL     1      -0.018   1.503   0.010  0.00  0.00    +0.046 C 
ATOM      4  C   UNL     1       0.002  -0.004   0.002  0.00  0.00    -0.026 A 
ATOM      5  C   UNL     1       0.006  -0.688  -1.198  0.00  0.00    +0.050 A 
ATOM      6  C   UNL     1       0.025  -2.075  -1.206  0.00  0.00    +0.122 A 
ATOM      7  C   UNL     1       0.040  -2.776  -0.009  0.00  0.00    +0.047 A 
ATOM      8  C   UNL     1       0.036  -2.094   1.192  0.00  0.00    +0.027 A 
ATOM      9  C   UNL     1       0.023  -0.705   1.200  0.00  0.00    +0.031 A 
BRANCH   6  10
ATOM     10  O   UNL     1       0.028  -2.748  -2.388  0.00  0.00    -0.483 OA
BRANCH  10  11
ATOM     11  C   UNL     1       0.047  -4.175  -2.321  0.00  0.00    +0.324 C 
BRANCH  11  12
ATOM     12  C   UNL     1       0.048  -4.743  -3.717  0.00  0.00    +0.248 C 
ATOM     13  O   UNL     1       0.033  -3.998  -4.675  0.00  0.00    -0.272 OA
ATOM     14  N   UNL     1       0.065  -6.078  -3.902  0.00  0.00    -0.327 N 
ATOM     15  H   UNL     1       0.077  -6.673  -3.136  0.00  0.00    +0.145 HD
ATOM     16  H   UNL     1       0.066  -6.443  -4.801  0.00  0.00    +0.145 HD
ENDBRANCH  11  12
ENDBRANCH  10  11
ENDBRANCH   6  10
ENDBRANCH   1   9
BRANCH   1  17
ATOM     17  C   UNL     1       0.047  -0.752   3.681  0.00  0.00    +0.154 C 
ATOM     18  C   UNL     1       1.492  -1.099   4.044  0.00  0.00    +0.038 C 
BRANCH  17  19
ATOM     19  C   UNL     1      -0.555   0.097   4.770  0.00  0.00    +0.240 C 
ATOM     20  O   UNL     1      -0.962   1.210   4.516  0.00  0.00    -0.273 OA
ATOM     21  N   UNL     1      -0.640  -0.381   6.028  0.00  0.00    -0.239 N 
ATOM     22  C   UNL     1      -1.179   0.379   7.002  0.00  0.00    +0.306 C 
ATOM     23  O   UNL     1      -1.587   1.495   6.747  0.00  0.00    -0.252 OA
ATOM     24  N   UNL     1      -1.264  -0.099   8.259  0.00  0.00    -0.297 N 
ATOM     25  H   UNL     1      -0.315  -1.272   6.231  0.00  0.00    +0.159 HD
ATOM     26  H   UNL     1      -0.939  -0.990   8.463  0.00  0.00    +0.150 HD
BRANCH  24  27
ATOM     27  C   UNL     1      -1.849   0.727   9.319  0.00  0.00    +0.137 C 
BRANCH  27  28
ATOM     28  C   UNL     1      -1.826  -0.046  10.639  0.00  0.00    +0.135 C 
ATOM     29  C   UNL     1      -2.473   0.797  11.767  0.00  0.00    +0.035 C 
ATOM     30  C   UNL     1      -2.927  -0.320  12.746  0.00  0.00    +0.031 C 
ATOM     31  C   UNL     1      -3.309  -1.464  11.783  0.00  0.00    +0.160 C 
ATOM     32  O   UNL     1      -2.637  -1.228  10.539  0.00  0.00    -0.375 OA
ENDBRANCH  27  28
ENDBRANCH  24  27
ENDBRANCH  17  19
ENDBRANCH   1  17
TORSDOF 8
