REMARK  Name = ZINC13469762
REMARK  7 active torsions:
REMARK  status: ('A' for Active; 'I' for Inactive)
REMARK    1  A    between atoms: C_3  and  N_8
REMARK    2  A    between atoms: N_8  and  S_9
REMARK    3  A    between atoms: S_9  and  C_12
REMARK    4  A    between atoms: C_15  and  O_31
REMARK    5  A    between atoms: C_16  and  N_18
REMARK    6  A    between atoms: C_19  and  C_21
REMARK    7  A    between atoms: C_27  and  C_29
REMARK                            x       y       z     vdW  Elec       q    Type
REMARK                         _______ _______ _______ _____ _____    ______ ____
ROOT
ATOM      1  C   UNL     1      -0.380  -3.062  -0.624  0.00  0.00    +0.110 A 
ATOM      2  C   UNL     1      -0.866  -4.212  -0.028  0.00  0.00    +0.032 A 
ATOM      3  C   UNL     1      -0.023  -5.281   0.209  0.00  0.00    +0.049 A 
ATOM      4  C   UNL     1       1.312  -5.204  -0.151  0.00  0.00    +0.138 A 
ATOM      5  C   UNL     1       1.802  -4.047  -0.752  0.00  0.00    +0.077 A 
ATOM      6  C   UNL     1       0.949  -2.980  -0.992  0.00  0.00    +0.055 A 
ENDROOT
BRANCH   5   7
ATOM      7  N   UNL     1       3.152  -3.963  -1.119  0.00  0.00    -0.282 N 
ATOM      8  C   UNL     1       3.529  -3.146  -2.122  0.00  0.00    +0.221 C 
ATOM      9  O   UNL     1       2.725  -2.384  -2.618  0.00  0.00    -0.275 OA
ATOM     10  H   UNL     1       3.816  -4.494  -0.651  0.00  0.00    +0.155 HD
BRANCH   8  11
ATOM     11  C   UNL     1       4.948  -3.178  -2.628  0.00  0.00    +0.093 C 
ATOM     12  C   UNL     1       4.948  -3.249  -4.156  0.00  0.00    +0.040 C 
ATOM     13  C   UNL     1       4.479  -1.946  -4.735  0.00  0.00    -0.030 C 
ATOM     14  C   UNL     1       4.433  -0.834  -4.074  0.00  0.00    -0.030 C 
ATOM     15  C   UNL     1       4.833  -0.695  -2.634  0.00  0.00    +0.042 C 
ATOM     16  C   UNL     1       5.676  -1.896  -2.202  0.00  0.00    +0.118 C 
BRANCH  16  17
ATOM     17  C   UNL     1       5.851  -1.886  -0.705  0.00  0.00    +0.360 C 
ATOM     18  O   UNL     1       5.568  -2.866  -0.058  0.00  0.00    -0.246 OA
ATOM     19  O   UNL     1       6.321  -0.789  -0.092  0.00  0.00    -0.246 OA
ENDBRANCH  16  17
ENDBRANCH   8  11
ENDBRANCH   5   7
BRANCH   1  20
ATOM     20  S   UNL     1      -1.461  -1.703  -0.922  0.00  0.00    +0.072 S 
ATOM     21  O   UNL     1      -0.643  -0.544  -1.001  0.00  0.00    -0.150 OA
ATOM     22  O   UNL     1      -2.528  -1.821   0.008  0.00  0.00    -0.150 OA
BRANCH  20  23
ATOM     23  N   UNL     1      -2.118  -1.921  -2.427  0.00  0.00    -0.216 N 
ATOM     24  H   UNL     1      -1.988  -1.249  -3.115  0.00  0.00    +0.174 HD
BRANCH  23  27
ATOM     25  C   UNL     1      -4.968  -4.134  -3.127  0.00  0.00    +0.003 A 
ATOM     26  C   UNL     1      -4.237  -2.994  -2.851  0.00  0.00    +0.024 A 
ATOM     27  C   UNL     1      -2.858  -3.072  -2.705  0.00  0.00    +0.049 A 
ATOM     28  C   UNL     1      -2.217  -4.297  -2.837  0.00  0.00    +0.044 A 
ATOM     29  C   UNL     1      -2.953  -5.434  -3.112  0.00  0.00    +0.043 A 
ATOM     30  C   UNL     1      -4.327  -5.352  -3.257  0.00  0.00    +0.020 A 
ATOM     31 CL   UNL     1      -2.154  -6.966  -3.277  0.00  0.00    -0.083 Cl
ENDBRANCH  23  27
ENDBRANCH  20  23
ENDBRANCH   1  20
BRANCH   4  32
ATOM     32  O   UNL     1       2.143  -6.256   0.080  0.00  0.00    -0.505 OA
ATOM     33  H   UNL     1       2.187  -6.890  -0.648  0.00  0.00    +0.292 HD
ENDBRANCH   4  32
TORSDOF 7
