REMARK  Name = ZINC08635528
REMARK  13 active torsions:
REMARK  status: ('A' for Active; 'I' for Inactive)
REMARK    1  A    between atoms: C_1  and  N_2
REMARK    2  A    between atoms: C_3  and  C_17
REMARK    3  A    between atoms: C_5  and  C_7
REMARK    4  A    between atoms: C_10  and  O_15
REMARK    5  A    between atoms: C_11  and  O_13
REMARK    6  A    between atoms: O_13  and  C_14
REMARK    7  A    between atoms: O_15  and  C_16
REMARK    8  A    between atoms: C_25  and  C_27
REMARK    9  A    between atoms: C_27  and  N_28
REMARK   10  A    between atoms: N_28  and  C_29
REMARK   11  A    between atoms: C_29  and  N_31
REMARK   12  A    between atoms: N_31  and  C_32
REMARK   13  A    between atoms: C_36  and  C_38
REMARK                            x       y       z     vdW  Elec       q    Type
REMARK                         _______ _______ _______ _____ _____    ______ ____
ROOT
ATOM      1  C   UNL     1       6.908   2.569  -0.567  0.00  0.00    +0.024 C 
ATOM      2  C   UNL     1       7.492   2.337   0.829  0.00  0.00    -0.068 C 
ATOM      3  C   UNL     1       9.037   0.681  -0.032  0.00  0.00    -0.078 C 
ATOM      4  C   UNL     1       8.497   0.867  -1.452  0.00  0.00    -0.015 C 
ATOM      5  C   UNL     1       7.018   1.268  -1.372  0.00  0.00    -0.007 C 
ATOM      6  C   UNL     1       6.252   0.166  -0.629  0.00  0.00    -0.010 C 
ATOM      7  C   UNL     1       6.855   0.001   0.769  0.00  0.00    -0.051 C 
ATOM      8  N   UNL     1       7.975   0.946   0.963  0.00  0.00    +0.383 N 
ATOM      9  H   UNL     1       8.361   0.816   1.905  0.00  0.00    -0.081 HD
ENDROOT
BRANCH   1  12
ATOM     10  C   UNL     1       4.639   1.903  -2.566  0.00  0.00    +0.172 C 
ATOM     11  N   UNL     1       4.479   2.670  -1.329  0.00  0.00    -0.271 N 
ATOM     12  C   UNL     1       5.460   2.968  -0.449  0.00  0.00    +0.041 A 
ATOM     13  C   UNL     1       4.913   3.686   0.557  0.00  0.00    +0.053 A 
ATOM     14  C   UNL     1       3.540   3.836   0.283  0.00  0.00    +0.093 A 
ATOM     15  N   UNL     1       3.283   3.218  -0.850  0.00  0.00    -0.171 NA
BRANCH  14  16
ATOM     16  C   UNL     1       2.555   4.558   1.127  0.00  0.00    +0.006 A 
ATOM     17  C   UNL     1       2.981   5.252   2.257  0.00  0.00    +0.014 A 
ATOM     18  C   UNL     1       2.065   5.923   3.042  0.00  0.00    +0.050 A 
ATOM     19  C   UNL     1       0.719   5.907   2.709  0.00  0.00    +0.162 A 
ATOM     20  C   UNL     1       0.288   5.213   1.581  0.00  0.00    +0.162 A 
ATOM     21  C   UNL     1       1.203   4.540   0.791  0.00  0.00    +0.059 A 
BRANCH  20  22
ATOM     22  O   UNL     1      -1.033   5.193   1.259  0.00  0.00    -0.491 OA
ATOM     23  C   UNL     1      -1.405   4.462   0.089  0.00  0.00    +0.277 C 
ENDBRANCH  20  22
BRANCH  19  24
ATOM     24  O   UNL     1      -0.180   6.569   3.484  0.00  0.00    -0.491 OA
ATOM     25  C   UNL     1       0.332   7.259   4.626  0.00  0.00    +0.277 C 
ENDBRANCH  19  24
ENDBRANCH  14  16
ENDBRANCH   1  12
BRANCH   7  26
ATOM     26  C   UNL     1       5.782   0.278   1.824  0.00  0.00    +0.088 C 
BRANCH  26  27
ATOM     27  N   UNL     1       6.387   0.239   3.157  0.00  0.00    -0.328 N 
ATOM     28  H   UNL     1       7.335   0.058   3.255  0.00  0.00    +0.148 HD
BRANCH  27  29
ATOM     29  C   UNL     1       5.627   0.457   4.249  0.00  0.00    +0.134 C 
ATOM     30  S   UNL     1       3.954   0.778   4.077  0.00  0.00    -0.019 S 
BRANCH  29  31
ATOM     31  N   UNL     1       6.184   0.422   5.476  0.00  0.00    -0.297 N 
ATOM     32  H   UNL     1       7.142   0.307   5.570  0.00  0.00    +0.154 HD
BRANCH  31  33
ATOM     33  C   UNL     1       5.379   0.550   6.613  0.00  0.00    +0.034 A 
ATOM     34  C   UNL     1       4.505   1.625   6.728  0.00  0.00    +0.023 A 
ATOM     35  C   UNL     1       3.704   1.754   7.847  0.00  0.00    +0.003 A 
ATOM     36  C   UNL     1       3.774   0.823   8.863  0.00  0.00    +0.019 A 
ATOM     37  C   UNL     1       4.652  -0.258   8.760  0.00  0.00    +0.054 A 
ATOM     38  C   UNL     1       5.457  -0.391   7.627  0.00  0.00    +0.042 A 
BRANCH  37  39
ATOM     39  C   UNL     1       4.728  -1.225   9.812  0.00  0.00    +0.099 C 
ATOM     40  N   UNL     1       4.787  -1.993  10.648  0.00  0.00    -0.191 NA
ENDBRANCH  37  39
ENDBRANCH  31  33
ENDBRANCH  29  31
ENDBRANCH  27  29
ENDBRANCH  26  27
ENDBRANCH   7  26
TORSDOF 10
