REMARK  Name = ZINC04534171
REMARK  6 active torsions:
REMARK  status: ('A' for Active; 'I' for Inactive)
REMARK    1  A    between atoms: C_1  and  C_2
REMARK    2  A    between atoms: C_4  and  O_28
REMARK    3  A    between atoms: C_6  and  O_27
REMARK    4  A    between atoms: C_8  and  O_26
REMARK    5  A    between atoms: C_10  and  O_13
REMARK    6  A    between atoms: O_13  and  C_14
REMARK                            x       y       z     vdW  Elec       q    Type
REMARK                         _______ _______ _______ _____ _____    ______ ____
ROOT
ATOM      1  C   UNL     1       2.260  -0.400   1.202  0.00  0.00    +0.041 C 
ATOM      2  C   UNL     1       2.064   1.117   1.240  0.00  0.00    +0.150 C 
ATOM      3  C   UNL     1       1.286   1.562  -0.002  0.00  0.00    +0.174 C 
ATOM      4  C   UNL     1       1.146   3.087   0.011  0.00  0.00    +0.180 C 
ATOM      5  C   UNL     1       2.541   3.716   0.081  0.00  0.00    +0.214 C 
ATOM      6  C   UNL     1       3.270   3.188   1.319  0.00  0.00    +0.339 C 
ATOM      7  O   UNL     1       3.339   1.762   1.258  0.00  0.00    -0.334 OA
ENDROOT
BRANCH   5   8
ATOM      8  O   UNL     1       3.280   3.370  -1.092  0.00  0.00    -0.383 OA
ATOM      9  H   UNL     1       4.176   3.731  -1.114  0.00  0.00    +0.210 HD
ENDBRANCH   5   8
BRANCH   4  10
ATOM     10  O   UNL     1       0.486   3.516  -1.182  0.00  0.00    -0.386 OA
ATOM     11  H   UNL     1       0.363   4.474  -1.240  0.00  0.00    +0.210 HD
ENDBRANCH   4  10
BRANCH   3  12
ATOM     12  O   UNL     1      -0.011   0.963   0.007  0.00  0.00    -0.387 OA
ATOM     13  H   UNL     1       0.002  -0.004   0.002  0.00  0.00    +0.210 HD
ENDBRANCH   3  12
BRANCH   6  14
ATOM     14  O   UNL     1       4.593   3.728   1.360  0.00  0.00    -0.459 OA
BRANCH  14  15
ATOM     15  C   UNL     1       5.345   3.439   2.458  0.00  0.00    +0.150 A 
ATOM     16  C   UNL     1       4.968   2.694   3.513  0.00  0.00    +0.130 A 
ATOM     17  N   UNL     1       5.995   2.626   4.425  0.00  0.00    -0.358 N 
ATOM     18  H   UNL     1       5.962   2.144   5.266  0.00  0.00    +0.165 HD
ATOM     19  C   UNL     1       7.077   3.341   3.964  0.00  0.00    +0.052 A 
ATOM     20  C   UNL     1       6.722   3.876   2.713  0.00  0.00    +0.061 A 
ATOM     21  C   UNL     1       7.634   4.664   2.006  0.00  0.00    +0.068 A 
ATOM     22  C   UNL     1       8.884   4.901   2.537  0.00  0.00    +0.037 A 
ATOM     23  C   UNL     1       9.235   4.367   3.770  0.00  0.00    +0.019 A 
ATOM     24  C   UNL     1       8.344   3.594   4.481  0.00  0.00    +0.027 A 
ATOM     25 BR   UNL     1      10.126   5.960   1.582  0.00  0.00    -0.049 Br
ATOM     26 CL   UNL     1       7.199   5.334   0.465  0.00  0.00    -0.082 Cl
ENDBRANCH  14  15
ENDBRANCH   6  14
TORSDOF 5
