REMARK  Name = ZINC33266950
REMARK  12 active torsions:
REMARK  status: ('A' for Active; 'I' for Inactive)
REMARK    1  A    between atoms: C_1  and  C_2
REMARK    2  A    between atoms: C_2  and  O_3
REMARK    3  A    between atoms: O_3  and  C_4
REMARK    4  A    between atoms: C_4  and  C_6
REMARK    5  A    between atoms: C_6  and  C_7
REMARK    6  A    between atoms: C_7  and  N_8
REMARK    7  A    between atoms: C_14  and  C_40
REMARK    8  A    between atoms: N_16  and  C_34
REMARK    9  A    between atoms: C_23  and  C_25
REMARK   10  A    between atoms: C_28  and  C_31
REMARK   11  A    between atoms: C_31  and  C_32
REMARK   12  A    between atoms: C_31  and  C_33
REMARK                            x       y       z     vdW  Elec       q    Type
REMARK                         _______ _______ _______ _____ _____    ______ ____
ROOT
ATOM      1  N   UNL     1      -1.046  11.178  -2.666  0.00  0.00    -0.299 N 
ATOM      2  C   UNL     1      -0.992   9.974  -3.268  0.00  0.00    +0.303 C 
ATOM      3  O   UNL     1      -0.861   9.903  -4.474  0.00  0.00    -0.253 OA
ATOM      4  N   UNL     1      -1.084   8.848  -2.533  0.00  0.00    -0.269 N 
ATOM      5  C   UNL     1      -1.245   8.885  -1.059  0.00  0.00    +0.151 C 
ATOM      6  C   UNL     1      -0.439   7.812  -0.389  0.00  0.00    +0.035 A 
ATOM      7  C   UNL     1       0.705   7.933   0.394  0.00  0.00    +0.067 A 
ATOM      8  N   UNL     1       1.044   6.738   0.819  0.00  0.00    -0.169 NA
ATOM      9  N   UNL     1       0.126   5.807   0.306  0.00  0.00    -0.215 N 
ATOM     10  C   UNL     1      -0.759   6.486  -0.448  0.00  0.00    +0.146 A 
ATOM     11  N   UNL     1      -1.823   6.044  -1.243  0.00  0.00    -0.303 N 
ATOM     12  C   UNL     1      -2.807   5.153  -0.983  0.00  0.00    +0.093 A 
ATOM     13  C   UNL     1      -3.640   5.132  -2.048  0.00  0.00    +0.020 A 
ATOM     14  C   UNL     1      -3.129   6.035  -3.006  0.00  0.00    +0.025 A 
ATOM     15  C   UNL     1      -2.001   6.560  -2.502  0.00  0.00    +0.050 A 
ATOM     16  C   UNL     1      -1.030   7.503  -3.150  0.00  0.00    +0.155 C 
ATOM     17  C   UNL     1       1.427   9.218   0.708  0.00  0.00    +0.068 C 
ATOM     18  H   UNL     1      -1.165  11.243  -1.574  0.00  0.00    +0.150 HD
ENDROOT
BRANCH  16  19
ATOM     19  C   UNL     1       0.365   6.950  -3.004  0.00  0.00    -0.021 A 
ATOM     20  C   UNL     1       1.417   7.797  -2.709  0.00  0.00    +0.006 A 
ATOM     21  C   UNL     1       2.695   7.290  -2.571  0.00  0.00    +0.004 A 
ATOM     22  C   UNL     1       2.923   5.936  -2.738  0.00  0.00    -0.045 A 
ATOM     23  C   UNL     1       1.872   5.090  -3.039  0.00  0.00    +0.004 A 
ATOM     24  C   UNL     1       0.593   5.597  -3.172  0.00  0.00    +0.006 A 
BRANCH  22  25
ATOM     25  C   UNL     1       4.317   5.384  -2.592  0.00  0.00    +0.013 C 
ATOM     26  C   UNL     1       5.237   6.044  -3.621  0.00  0.00    +0.012 C 
ATOM     27  C   UNL     1       4.837   5.675  -1.183  0.00  0.00    +0.012 C 
ENDBRANCH  22  25
ENDBRANCH  16  19
BRANCH   9  28
ATOM     28  C   UNL     1       0.127   4.425   0.541  0.00  0.00    +0.068 A 
ATOM     29  C   UNL     1      -0.152   3.543  -0.495  0.00  0.00    +0.028 A 
ATOM     30  C   UNL     1      -0.149   2.182  -0.260  0.00  0.00    +0.002 A 
ATOM     31  C   UNL     1       0.131   1.697   1.004  0.00  0.00    +0.000 A 
ATOM     32  C   UNL     1       0.404   2.573   2.038  0.00  0.00    +0.002 A 
ATOM     33  C   UNL     1       0.408   3.935   1.809  0.00  0.00    +0.028 A 
ENDBRANCH   9  28
BRANCH   1  34
ATOM     34  C   UNL     1      -0.947  12.402  -3.465  0.00  0.00    +0.117 C 
BRANCH  34  35
ATOM     35  C   UNL     1      -1.035  13.621  -2.544  0.00  0.00    +0.139 C 
BRANCH  35  36
ATOM     36  C   UNL     1      -0.933  14.880  -3.367  0.00  0.00    +0.309 C 
ATOM     37  O   UNL     1      -0.802  14.809  -4.566  0.00  0.00    -0.251 OA
BRANCH  36  38
ATOM     38  O   UNL     1      -0.986  16.080  -2.767  0.00  0.00    -0.465 OA
BRANCH  38  40
ATOM     39  C   UNL     1      -0.962  18.515  -2.765  0.00  0.00    +0.048 C 
ATOM     40  C   UNL     1      -0.881  17.249  -3.621  0.00  0.00    +0.229 C 
ENDBRANCH  38  40
ENDBRANCH  36  38
ENDBRANCH  35  36
ENDBRANCH  34  35
ENDBRANCH   1  34
TORSDOF 8
