REMARK  Name = ZINC36066347
REMARK  9 active torsions:
REMARK  status: ('A' for Active; 'I' for Inactive)
REMARK    1  A    between atoms: C_1  and  C_2
REMARK    2  A    between atoms: C_5  and  N_9
REMARK    3  A    between atoms: C_7  and  C_8
REMARK    4  A    between atoms: C_10  and  C_12
REMARK    5  A    between atoms: N_23  and  C_35
REMARK    6  A    between atoms: C_24  and  C_26
REMARK    7  A    between atoms: N_28  and  C_29
REMARK    8  A    between atoms: C_35  and  C_37
REMARK    9  A    between atoms: C_35  and  C_38
REMARK                            x       y       z     vdW  Elec       q    Type
REMARK                         _______ _______ _______ _____ _____    ______ ____
ROOT
ATOM      1  C   UNL     1      -0.002  -6.435  -1.478  0.00  0.00    +0.123 C 
ATOM      2  C   UNL     1       1.310  -6.941  -0.794  0.00  0.00    +0.155 C 
ATOM      3  C   UNL     1       1.293  -8.471  -0.875  0.00  0.00    +0.004 C 
ATOM      4  C   UNL     1       1.534  -8.806  -2.148  0.00  0.00    +0.009 C 
ATOM      5  C   UNL     1       1.655  -7.495  -2.840  0.00  0.00    +0.127 C 
ATOM      6  C   UNL     1       0.217  -6.865  -2.939  0.00  0.00    +0.128 C 
ATOM      7  C   UNL     1       0.442  -5.735  -3.904  0.00  0.00    +0.224 C 
ATOM      8  O   UNL     1      -0.228  -4.727  -3.973  0.00  0.00    -0.275 OA
ATOM      9  N   UNL     1       1.514  -6.021  -4.686  0.00  0.00    -0.280 N 
ATOM     10  C   UNL     1       2.160  -7.313  -4.237  0.00  0.00    +0.199 C 
ATOM     11  O   UNL     1       2.287  -6.614  -1.848  0.00  0.00    -0.358 OA
ENDROOT
BRANCH   1  13
ATOM     12  N   UNL     1      -1.341  -4.358  -1.372  0.00  0.00    -0.285 N 
ATOM     13  C   UNL     1      -0.124  -4.937  -1.369  0.00  0.00    +0.224 C 
ATOM     14  O   UNL     1       0.873  -4.253  -1.278  0.00  0.00    -0.275 OA
ATOM     15  H   UNL     1      -2.140  -4.908  -1.375  0.00  0.00    +0.155 HD
BRANCH  12  20
ATOM     16  C   UNL     1      -1.790   1.297  -1.373  0.00  0.00    +0.044 C 
ATOM     17  C   UNL     1      -1.671  -0.205  -1.373  0.00  0.00    -0.047 A 
ATOM     18  C   UNL     1      -0.643  -0.816  -0.677  0.00  0.00    +0.005 A 
ATOM     19  C   UNL     1      -0.530  -2.192  -0.675  0.00  0.00    +0.023 A 
ATOM     20  C   UNL     1      -1.452  -2.963  -1.372  0.00  0.00    +0.034 A 
ATOM     21  C   UNL     1      -2.483  -2.347  -2.068  0.00  0.00    +0.027 A 
ATOM     22  C   UNL     1      -2.592  -0.970  -2.063  0.00  0.00    -0.046 A 
ATOM     23  C   UNL     1      -3.715  -0.301  -2.814  0.00  0.00    +0.044 C 
ENDBRANCH  12  20
ENDBRANCH   1  13
BRANCH  10  24
ATOM     24  C   UNL     1       1.748  -8.476  -5.103  0.00  0.00    +0.237 C 
ATOM     25  O   UNL     1       0.794  -8.371  -5.845  0.00  0.00    -0.274 OA
ATOM     26  N   UNL     1       2.439  -9.632  -5.054  0.00  0.00    -0.311 N 
ATOM     27  H   UNL     1       3.202  -9.715  -4.460  0.00  0.00    +0.149 HD
BRANCH  26  28
ATOM     28  C   UNL     1       2.039 -10.761  -5.896  0.00  0.00    +0.073 C 
ATOM     29  C   UNL     1       0.940 -11.559  -5.190  0.00  0.00    +0.022 C 
ATOM     30  C   UNL     1       0.521 -12.739  -6.070  0.00  0.00    +0.002 C 
ATOM     31  C   UNL     1       1.730 -13.644  -6.317  0.00  0.00    +0.000 C 
ATOM     32  C   UNL     1       2.829 -12.847  -7.023  0.00  0.00    +0.002 C 
ATOM     33  C   UNL     1       3.247 -11.667  -6.143  0.00  0.00    +0.022 C 
ENDBRANCH  26  28
ENDBRANCH  10  24
BRANCH   9  34
ATOM     34  C   UNL     1       1.958  -5.204  -5.819  0.00  0.00    +0.104 C 
ATOM     35  C   UNL     1       0.955  -4.074  -6.057  0.00  0.00    +0.033 C 
BRANCH  34  36
ATOM     36  C   UNL     1       3.312  -4.618  -5.516  0.00  0.00    -0.027 A 
ATOM     37  C   UNL     1       3.624  -4.227  -4.227  0.00  0.00    +0.005 A 
ATOM     38  C   UNL     1       4.866  -3.689  -3.949  0.00  0.00    +0.000 A 
ATOM     39  C   UNL     1       5.798  -3.543  -4.960  0.00  0.00    +0.000 A 
ATOM     40  C   UNL     1       5.487  -3.935  -6.248  0.00  0.00    +0.000 A 
ATOM     41  C   UNL     1       4.246  -4.477  -6.525  0.00  0.00    +0.005 A 
ENDBRANCH  34  36
ENDBRANCH   9  34
TORSDOF 6
