REMARK  Name = ZINC64802059
REMARK  11 active torsions:
REMARK  status: ('A' for Active; 'I' for Inactive)
REMARK    1  A    between atoms: C_1  and  C_2
REMARK    2  A    between atoms: C_2  and  N_3
REMARK    3  A    between atoms: C_6  and  C_30
REMARK    4  A    between atoms: C_8  and  N_10
REMARK    5  A    between atoms: N_10  and  C_11
REMARK    6  A    between atoms: C_14  and  N_17
REMARK    7  A    between atoms: N_17  and  S_18
REMARK    8  A    between atoms: S_18  and  C_21
REMARK    9  A    between atoms: C_22  and  C_29
REMARK   10  A    between atoms: C_24  and  C_28
REMARK   11  A    between atoms: C_26  and  C_27
REMARK                            x       y       z     vdW  Elec       q    Type
REMARK                         _______ _______ _______ _____ _____    ______ ____
ROOT
ATOM      1  C   UNL     1      -5.628  -4.321   0.774  0.00  0.00    +0.032 A 
ATOM      2  C   UNL     1      -4.418  -4.994   0.663  0.00  0.00    +0.025 A 
ATOM      3  C   UNL     1      -4.399  -6.321   0.280  0.00  0.00    +0.026 A 
ATOM      4  C   UNL     1      -5.589  -6.982   0.007  0.00  0.00    +0.048 A 
ATOM      5  C   UNL     1      -6.799  -6.309   0.118  0.00  0.00    +0.026 A 
ATOM      6  C   UNL     1      -6.819  -4.984   0.505  0.00  0.00    +0.025 A 
ENDROOT
BRANCH   1   7
ATOM      7  N   UNL     1      -5.647  -2.975   1.162  0.00  0.00    -0.299 N 
ATOM      8  H   UNL     1      -6.371  -2.640   1.714  0.00  0.00    +0.154 HD
BRANCH   7  14
ATOM      9  N   UNL     1      -1.572  -2.287  -1.060  0.00  0.00    -0.315 N 
ATOM     10  C   UNL     1      -2.631  -1.773  -0.333  0.00  0.00    +0.195 A 
ATOM     11  N   UNL     1      -2.648  -0.480  -0.042  0.00  0.00    -0.332 N 
ATOM     12  C   UNL     1      -3.645   0.048   0.653  0.00  0.00    +0.019 A 
ATOM     13  C   UNL     1      -4.678  -0.764   1.078  0.00  0.00    +0.064 A 
ATOM     14  C   UNL     1      -4.633  -2.123   0.757  0.00  0.00    +0.128 A 
ATOM     15  N   UNL     1      -3.605  -2.585   0.051  0.00  0.00    -0.201 NA
ATOM     16  C   UNL     1      -3.651   1.520   0.977  0.00  0.00    +0.063 C 
ATOM     17  H   UNL     1      -1.549  -3.230  -1.284  0.00  0.00    +0.149 HD
ATOM     18  H   UNL     1      -1.921   0.087  -0.341  0.00  0.00    +0.168 HD
BRANCH   9  20
ATOM     19  C   UNL     1       0.550  -2.217  -2.275  0.00  0.00    +0.024 C 
ATOM     20  C   UNL     1      -0.485  -1.405  -1.494  0.00  0.00    +0.101 C 
ENDBRANCH   9  20
ENDBRANCH   7  14
ENDBRANCH   1   7
BRANCH   4  21
ATOM     21  N   UNL     1      -5.570  -8.326  -0.381  0.00  0.00    -0.216 N 
ATOM     22  H   UNL     1      -4.940  -8.628  -1.055  0.00  0.00    +0.174 HD
BRANCH  21  23
ATOM     23  S   UNL     1      -6.622  -9.403   0.309  0.00  0.00    +0.073 S 
ATOM     24  O   UNL     1      -6.355 -10.668  -0.282  0.00  0.00    -0.150 OA
ATOM     25  O   UNL     1      -6.560  -9.189   1.712  0.00  0.00    -0.150 OA
BRANCH  23  26
ATOM     26  C   UNL     1      -8.246  -8.943  -0.199  0.00  0.00    +0.114 A 
ATOM     27  C   UNL     1      -8.625  -9.092  -1.520  0.00  0.00    -0.023 A 
ATOM     28  C   UNL     1      -9.899  -8.732  -1.919  0.00  0.00    +0.008 A 
ATOM     29  C   UNL     1     -10.793  -8.222  -0.996  0.00  0.00    -0.050 A 
ATOM     30  C   UNL     1     -10.414  -8.073   0.325  0.00  0.00    +0.008 A 
ATOM     31  C   UNL     1      -9.142  -8.438   0.724  0.00  0.00    -0.023 A 
ATOM     32  C   UNL     1      -8.730  -8.280   2.165  0.00  0.00    +0.046 C 
ATOM     33  C   UNL     1     -12.181  -7.827  -1.431  0.00  0.00    +0.044 C 
ATOM     34  C   UNL     1      -7.650  -9.649  -2.526  0.00  0.00    +0.046 C 
ENDBRANCH  23  26
ENDBRANCH  21  23
ENDBRANCH   4  21
TORSDOF 6
