REMARK  Name = ZINC66243711
REMARK  7 active torsions:
REMARK  status: ('A' for Active; 'I' for Inactive)
REMARK    1  A    between atoms: C_1  and  C_2
REMARK    2  A    between atoms: C_2  and  C_3
REMARK    3  A    between atoms: C_2  and  C_4
REMARK    4  A    between atoms: C_2  and  C_15
REMARK    5  A    between atoms: C_4  and  N_5
REMARK    6  A    between atoms: N_7  and  C_8
REMARK    7  A    between atoms: C_8  and  C_9
REMARK                            x       y       z     vdW  Elec       q    Type
REMARK                         _______ _______ _______ _____ _____    ______ ____
ROOT
ATOM      1  C   UNL     1      -1.433  -0.534   0.013  0.00  0.00    +0.126 C 
ENDROOT
BRANCH   1   2
ATOM      2  N   UNL     1      -2.119  -0.061   1.218  0.00  0.00    -0.357 N 
ATOM      3  C   UNL     1      -3.429  -0.412   1.446  0.00  0.00    +0.169 C 
ATOM      4  N   UNL     1      -4.039   0.008   2.519  0.00  0.00    -0.351 N 
ATOM      5  N   UNL     1      -4.095  -1.207   0.543  0.00  0.00    -0.371 N 
ATOM      6  H   UNL     1      -1.649   0.499   1.855  0.00  0.00    +0.162 HD
ATOM      7  H   UNL     1      -3.640  -1.520  -0.255  0.00  0.00    +0.159 HD
ATOM      8  H   UNL     1      -5.018  -1.455   0.705  0.00  0.00    +0.159 HD
ATOM      9  H   UNL     1      -3.569   0.569   3.156  0.00  0.00    +0.163 HD
BRANCH   4  10
ATOM     10  C   UNL     1      -5.434  -0.366   2.762  0.00  0.00    +0.190 C 
BRANCH  10  11
ATOM     11  C   UNL     1      -5.899   0.244   4.059  0.00  0.00    +0.124 A 
ATOM     12  C   UNL     1      -6.479   1.450   4.198  0.00  0.00    +0.046 A 
ATOM     13  C   UNL     1      -6.750   1.618   5.575  0.00  0.00    +0.041 A 
ATOM     14  C   UNL     1      -6.319   0.505   6.196  0.00  0.00    +0.195 A 
ATOM     15  O   UNL     1      -5.810  -0.326   5.272  0.00  0.00    -0.466 OA
ENDBRANCH  10  11
ENDBRANCH   4  10
ENDBRANCH   1   2
BRANCH   1  17
ATOM     16  C   UNL     1      -0.019   1.526   0.010  0.00  0.00    +0.017 C 
ATOM     17  C   UNL     1       0.002  -0.004   0.002  0.00  0.00    +0.008 C 
ATOM     18  C   UNL     1       0.742  -0.511   1.242  0.00  0.00    +0.017 C 
BRANCH  17  19
ATOM     19  C   UNL     1       0.707  -0.490  -1.238  0.00  0.00    -0.036 A 
ATOM     20  C   UNL     1       0.035  -1.284  -2.148  0.00  0.00    +0.008 A 
ATOM     21  C   UNL     1       0.679  -1.733  -3.285  0.00  0.00    +0.050 A 
ATOM     22  C   UNL     1       2.002  -1.387  -3.517  0.00  0.00    +0.162 A 
ATOM     23  C   UNL     1       2.677  -0.587  -2.604  0.00  0.00    +0.162 A 
ATOM     24  C   UNL     1       2.024  -0.136  -1.466  0.00  0.00    +0.053 A 
ATOM     25  O   UNL     1       3.973  -0.229  -2.816  0.00  0.00    -0.485 OA
ATOM     26  C   UNL     1       4.704  -0.998  -3.777  0.00  0.00    +0.270 C 
ATOM     27  C   UNL     1       3.827  -1.166  -5.025  0.00  0.00    +0.270 C 
ATOM     28  O   UNL     1       2.624  -1.840  -4.640  0.00  0.00    -0.485 OA
ENDBRANCH  17  19
ENDBRANCH   1  17
TORSDOF 5
