REMARK  Name = ZINC40980887
REMARK  15 active torsions:
REMARK  status: ('A' for Active; 'I' for Inactive)
REMARK    1  A    between atoms: C_1  and  C_2
REMARK    2  A    between atoms: C_2  and  C_3
REMARK    3  A    between atoms: C_3  and  S_4
REMARK    4  A    between atoms: S_4  and  C_5
REMARK    5  A    between atoms: C_10  and  C_27
REMARK    6  A    between atoms: C_12  and  C_16
REMARK    7  A    between atoms: C_13  and  C_15
REMARK    8  A    between atoms: N_18  and  C_19
REMARK    9  A    between atoms: C_22  and  C_26
REMARK   10  A    between atoms: C_24  and  C_25
REMARK   11  A    between atoms: C_30  and  O_35
REMARK   12  A    between atoms: C_31  and  O_33
REMARK   13  A    between atoms: O_33  and  C_34
REMARK   14  A    between atoms: O_35  and  C_36
REMARK   15  A    between atoms: C_36  and  C_37
REMARK                            x       y       z     vdW  Elec       q    Type
REMARK                         _______ _______ _______ _____ _____    ______ ____
ROOT
ATOM      1  C   UNL     1      -3.751  -1.354  -1.163  0.00  0.00    +0.210 A 
ATOM      2  N   UNL     1      -4.755  -0.667  -0.597  0.00  0.00    -0.187 NA
ATOM      3  C   UNL     1      -5.788  -1.451  -0.445  0.00  0.00    +0.219 A 
ATOM      4  N   UNL     1      -5.457  -2.679  -0.915  0.00  0.00    -0.220 N 
ATOM      5  N   UNL     1      -4.146  -2.590  -1.379  0.00  0.00    -0.141 NA
ATOM      6  C   UNL     1      -6.367  -3.822  -0.899  0.00  0.00    +0.177 C 
ATOM      7  C   UNL     1      -7.759  -3.350  -0.577  0.00  0.00    +0.060 C 
ATOM      8  C   UNL     1      -8.027  -2.119  -0.118  0.00  0.00    +0.018 C 
ATOM      9  N   UNL     1      -7.043  -1.183   0.084  0.00  0.00    -0.287 N 
ATOM     10  C   UNL     1      -9.457  -1.750   0.185  0.00  0.00    +0.061 C 
ATOM     11  H   UNL     1      -7.217  -0.367   0.579  0.00  0.00    +0.155 HD
ENDROOT
BRANCH   6  12
ATOM     12  C   UNL     1      -5.916  -4.809   0.148  0.00  0.00    -0.015 A 
ATOM     13  C   UNL     1      -5.739  -4.394   1.455  0.00  0.00    +0.010 A 
ATOM     14  C   UNL     1      -5.326  -5.295   2.419  0.00  0.00    +0.050 A 
ATOM     15  C   UNL     1      -5.088  -6.616   2.076  0.00  0.00    +0.162 A 
ATOM     16  C   UNL     1      -5.266  -7.033   0.760  0.00  0.00    +0.162 A 
ATOM     17  C   UNL     1      -5.686  -6.127  -0.200  0.00  0.00    +0.055 A 
BRANCH  16  18
ATOM     18  O   UNL     1      -5.035  -8.329   0.419  0.00  0.00    -0.491 OA
ATOM     19  C   UNL     1      -5.155  -8.667  -0.965  0.00  0.00    +0.277 C 
ENDBRANCH  16  18
BRANCH  15  20
ATOM     20  O   UNL     1      -4.681  -7.504   3.023  0.00  0.00    -0.489 OA
BRANCH  20  21
ATOM     21  C   UNL     1      -4.518  -7.005   4.352  0.00  0.00    +0.226 C 
ATOM     22  C   UNL     1      -4.059  -8.140   5.270  0.00  0.00    +0.048 C 
ENDBRANCH  20  21
ENDBRANCH  15  20
ENDBRANCH   6  12
BRANCH   7  23
ATOM     23  C   UNL     1      -8.836  -4.248  -0.768  0.00  0.00    +0.248 C 
ATOM     24  O   UNL     1      -9.296  -4.419  -1.883  0.00  0.00    -0.270 OA
ATOM     25  N   UNL     1      -9.354  -4.914   0.283  0.00  0.00    -0.281 N 
ATOM     26  H   UNL     1      -8.941  -4.835   1.157  0.00  0.00    +0.155 HD
BRANCH  25  27
ATOM     27  C   UNL     1     -10.485  -5.718   0.114  0.00  0.00    +0.037 A 
ATOM     28  C   UNL     1     -10.595  -6.539  -1.001  0.00  0.00    +0.024 A 
ATOM     29  C   UNL     1     -11.713  -7.332  -1.166  0.00  0.00    +0.005 A 
ATOM     30  C   UNL     1     -12.724  -7.309  -0.222  0.00  0.00    -0.050 A 
ATOM     31  C   UNL     1     -12.618  -6.492   0.889  0.00  0.00    +0.008 A 
ATOM     32  C   UNL     1     -11.499  -5.701   1.062  0.00  0.00    -0.029 A 
ATOM     33  C   UNL     1     -11.382  -4.816   2.276  0.00  0.00    +0.045 C 
ATOM     34  C   UNL     1     -13.943  -8.175  -0.405  0.00  0.00    +0.044 C 
ENDBRANCH  25  27
ENDBRANCH   7  23
BRANCH   1  35
ATOM     35  S   UNL     1      -2.163  -0.702  -1.559  0.00  0.00    -0.084 S 
BRANCH  35  36
ATOM     36  C   UNL     1      -2.251   1.028  -1.021  0.00  0.00    +0.077 C 
BRANCH  36  38
ATOM     37  C   UNL     1      -0.992   3.179  -0.856  0.00  0.00    +0.004 C 
ATOM     38  C   UNL     1      -0.918   1.720  -1.311  0.00  0.00    +0.008 C 
ENDBRANCH  36  38
ENDBRANCH  35  36
ENDBRANCH   1  35
TORSDOF 9
