REMARK  Name = ZINC32906583
REMARK  6 active torsions:
REMARK  status: ('A' for Active; 'I' for Inactive)
REMARK    1  A    between atoms: C_9  and  C_18
REMARK    2  A    between atoms: C_18  and  N_19
REMARK    3  A    between atoms: C_20  and  C_22
REMARK    4  A    between atoms: C_22  and  C_23
REMARK    5  A    between atoms: C_23  and  C_24
REMARK    6  A    between atoms: C_24  and  N_25
REMARK                            x       y       z     vdW  Elec       q    Type
REMARK                         _______ _______ _______ _____ _____    ______ ____
ROOT
ATOM      1  C   UNL     1      -4.146   3.552  -3.500  0.00  0.00    +0.000 A 
ATOM      2  C   UNL     1      -4.177   4.274  -2.321  0.00  0.00    +0.000 A 
ATOM      3  C   UNL     1      -4.060   3.628  -1.097  0.00  0.00    +0.004 A 
ATOM      4  C   UNL     1      -3.915   2.270  -1.080  0.00  0.00    -0.036 A 
ATOM      5  C   UNL     1      -3.884   1.543  -2.268  0.00  0.00    -0.036 A 
ATOM      6  C   UNL     1      -3.998   2.171  -3.475  0.00  0.00    +0.004 A 
ATOM      7  C   UNL     1      -3.715   0.043  -2.082  0.00  0.00    +0.050 C 
ATOM      8  C   UNL     1      -2.405  -0.125  -1.285  0.00  0.00    +0.018 C 
ATOM      9  C   UNL     1      -2.439   0.671   0.017  0.00  0.00    +0.019 C 
ATOM     10  C   UNL     1      -3.776   1.427   0.177  0.00  0.00    +0.054 C 
ATOM     11  C   UNL     1      -4.856   0.363   0.063  0.00  0.00    -0.036 A 
ATOM     12  C   UNL     1      -4.824  -0.365  -1.125  0.00  0.00    -0.036 A 
ATOM     13  C   UNL     1      -5.736  -1.353  -1.363  0.00  0.00    +0.004 A 
ATOM     14  C   UNL     1      -6.699  -1.622  -0.399  0.00  0.00    +0.000 A 
ATOM     15  C   UNL     1      -6.731  -0.900   0.780  0.00  0.00    +0.000 A 
ATOM     16  C   UNL     1      -5.800   0.104   1.015  0.00  0.00    +0.004 A 
ENDROOT
BRANCH   9  17
ATOM     17  C   UNL     1      -1.290   1.681   0.017  0.00  0.00    +0.108 C 
BRANCH  17  18
ATOM     18  N   UNL     1      -0.011   0.966   0.007  0.00  0.00    -0.315 N 
ATOM     19  C   UNL     1       1.147   1.655   0.000  0.00  0.00    +0.213 C 
ATOM     20  O   UNL     1       1.130   2.868   0.007  0.00  0.00    -0.276 OA
ATOM     21  H   UNL     1       0.004  -0.134   0.006  0.00  0.00    +0.149 HD
BRANCH  19  22
ATOM     22  C   UNL     1       2.462   0.920  -0.017  0.00  0.00    +0.097 C 
BRANCH  22  23
ATOM     23  C   UNL     1       3.611   1.930  -0.022  0.00  0.00    +0.028 C 
BRANCH  23  24
ATOM     24  C   UNL     1       4.946   1.183  -0.039  0.00  0.00    +0.106 C 
BRANCH  24  25
ATOM     25  N   UNL     1       6.047   2.150  -0.044  0.00  0.00    -0.300 N 
ATOM     26  C   UNL     1       7.324   1.718  -0.059  0.00  0.00    +0.297 C 
ATOM     27  O   UNL     1       7.562   0.526  -0.067  0.00  0.00    -0.253 OA
ATOM     28  N   UNL     1       8.336   2.608  -0.064  0.00  0.00    -0.313 N 
ATOM     29  H   UNL     1       5.831   3.229  -0.036  0.00  0.00    +0.150 HD
ATOM     30  H   UNL     1       9.378   2.255  -0.075  0.00  0.00    +0.146 HD
ATOM     31  H   UNL     1       8.120   3.686  -0.056  0.00  0.00    +0.146 HD
ENDBRANCH  24  25
ENDBRANCH  23  24
ENDBRANCH  22  23
ENDBRANCH  19  22
ENDBRANCH  17  18
ENDBRANCH   9  17
TORSDOF 6
