REMARK  Name = ZINC61368659
REMARK  6 active torsions:
REMARK  status: ('A' for Active; 'I' for Inactive)
REMARK    1  A    between atoms: C_3  and  S_9
REMARK    2  A    between atoms: C_5  and  C_6
REMARK    3  A    between atoms: C_6  and  C_7
REMARK    4  A    between atoms: C_7  and  N_8
REMARK    5  A    between atoms: S_9  and  N_12
REMARK    6  A    between atoms: N_12  and  C_13
REMARK                            x       y       z     vdW  Elec       q    Type
REMARK                         _______ _______ _______ _____ _____    ______ ____
ROOT
ATOM      1  S   UNL     1       4.100   1.930  -0.050  0.00  0.00    +0.065 S 
ATOM      2  O   UNL     1       5.078   1.005  -0.506  0.00  0.00    -0.153 OA
ATOM      3  O   UNL     1       3.908   3.199  -0.661  0.00  0.00    -0.153 OA
ENDROOT
BRANCH   1   6
ATOM      4  C   UNL     1       0.214   0.765  -0.182  0.00  0.00    +0.013 A 
ATOM      5  C   UNL     1       1.298   1.621  -0.122  0.00  0.00    +0.036 A 
ATOM      6  C   UNL     1       2.549   1.097  -0.119  0.00  0.00    +0.143 A 
ATOM      7  S   UNL     1       2.216  -0.655  -0.203  0.00  0.00    -0.074 S 
ATOM      8  C   UNL     1       0.433  -0.571  -0.237  0.00  0.00    -0.010 A 
BRANCH   8   9
ATOM      9  C   UNL     1      -0.569  -1.695  -0.307  0.00  0.00    +0.023 C 
BRANCH   9  10
ATOM     10  C   UNL     1      -0.878  -2.011  -1.772  0.00  0.00    -0.081 C 
BRANCH  10  11
ATOM     11  N   UNL     1      -1.854  -3.107  -1.840  0.00  0.00    +0.378 N 
ATOM     12  H   UNL     1      -1.472  -3.926  -1.392  0.00  0.00    -0.090 HD
ATOM     13  H   UNL     1      -2.703  -2.831  -1.369  0.00  0.00    -0.090 HD
ATOM     14  H   UNL     1      -2.058  -3.316  -2.806  0.00  0.00    -0.090 HD
ENDBRANCH  10  11
ENDBRANCH   9  10
ENDBRANCH   8   9
ENDBRANCH   1   6
BRANCH   1  15
ATOM     15  N   UNL     1       4.430   2.219   1.547  0.00  0.00    -0.182 NA
ATOM     16  H   UNL     1       4.491   3.131   1.872  0.00  0.00    +0.149 HD
BRANCH  15  17
ATOM     17  C   UNL     1       4.630   1.098   2.468  0.00  0.00    +0.107 C 
ATOM     18  C   UNL     1       6.126   0.820   2.621  0.00  0.00    +0.025 C 
ATOM     19  C   UNL     1       6.357  -0.225   3.716  0.00  0.00    +0.007 C 
ATOM     20  C   UNL     1       6.039   0.411   5.078  0.00  0.00    +0.043 C 
ATOM     21  C   UNL     1       4.728   1.120   4.971  0.00  0.00    -0.005 A 
ATOM     22  C   UNL     1       4.051   1.449   3.835  0.00  0.00    -0.019 A 
ATOM     23  C   UNL     1       2.833   2.110   4.001  0.00  0.00    +0.013 A 
ATOM     24  C   UNL     1       2.380   2.392   5.244  0.00  0.00    +0.046 A 
ATOM     25  S   UNL     1       3.687   1.726   6.272  0.00  0.00    -0.101 S 
ENDBRANCH  15  17
ENDBRANCH   1  15
TORSDOF 6
