REMARK  Name = ZINC35063906
REMARK  8 active torsions:
REMARK  status: ('A' for Active; 'I' for Inactive)
REMARK    1  A    between atoms: C_1  and  C_2
REMARK    2  A    between atoms: C_5  and  N_8
REMARK    3  A    between atoms: C_18  and  C_19
REMARK    4  A    between atoms: C_19  and  C_21
REMARK    5  A    between atoms: C_19  and  N_22
REMARK    6  A    between atoms: N_30  and  C_31
REMARK    7  A    between atoms: C_32  and  C_38
REMARK    8  A    between atoms: C_36  and  C_37
REMARK                            x       y       z     vdW  Elec       q    Type
REMARK                         _______ _______ _______ _____ _____    ______ ____
ROOT
ATOM      1  C   UNL     1      -0.817  -5.721   1.444  0.00  0.00    -0.003 C 
ATOM      2  C   UNL     1      -0.717  -4.462   0.580  0.00  0.00    -0.005 C 
ENDROOT
BRANCH   1  13
ATOM      3  N   UNL     1      -0.794  -7.693  -0.032  0.00  0.00    -0.266 N 
ATOM      4  C   UNL     1      -0.182  -8.721  -0.665  0.00  0.00    +0.266 A 
ATOM      5  O   UNL     1      -0.803  -9.477  -1.389  0.00  0.00    -0.267 OA
ATOM      6  C   UNL     1       1.261  -8.888  -0.445  0.00  0.00    +0.065 A 
ATOM      7  C   UNL     1       1.985  -9.914  -1.050  0.00  0.00    +0.015 A 
ATOM      8  C   UNL     1       3.337 -10.024  -0.809  0.00  0.00    +0.001 A 
ATOM      9  C   UNL     1       3.981  -9.124   0.031  0.00  0.00    +0.002 A 
ATOM     10  C   UNL     1       3.284  -8.104   0.638  0.00  0.00    +0.028 A 
ATOM     11  C   UNL     1       1.913  -7.971   0.409  0.00  0.00    +0.078 A 
ATOM     12  N   UNL     1       1.188  -6.980   0.987  0.00  0.00    -0.235 NA
ATOM     13  C   UNL     1      -0.085  -6.853   0.769  0.00  0.00    +0.104 A 
BRANCH   3  18
ATOM     14  C   UNL     1      -6.363  -6.867  -0.746  0.00  0.00    +0.044 C 
ATOM     15  C   UNL     1      -4.884  -7.087  -0.556  0.00  0.00    -0.050 A 
ATOM     16  C   UNL     1      -4.006  -6.794  -1.584  0.00  0.00    +0.005 A 
ATOM     17  C   UNL     1      -2.650  -6.994  -1.413  0.00  0.00    +0.026 A 
ATOM     18  C   UNL     1      -2.169  -7.489  -0.208  0.00  0.00    +0.051 A 
ATOM     19  C   UNL     1      -3.053  -7.782   0.822  0.00  0.00    +0.026 A 
ATOM     20  C   UNL     1      -4.408  -7.574   0.647  0.00  0.00    +0.005 A 
ENDBRANCH   3  18
ENDBRANCH   1  13
BRANCH   1  21
ATOM     21  N   UNL     1      -0.212  -5.462   2.758  0.00  0.00    +0.388 N 
ATOM     22  C   UNL     1      -0.906  -4.339   3.401  0.00  0.00    -0.059 C 
ATOM     23  C   UNL     1      -0.205  -3.994   4.719  0.00  0.00    +0.091 C 
ATOM     24  N   UNL     1      -0.131  -5.212   5.540  0.00  0.00    -0.289 N 
ATOM     25  C   UNL     1       0.403  -6.434   4.920  0.00  0.00    +0.091 C 
ATOM     26  C   UNL     1      -0.327  -6.664   3.593  0.00  0.00    -0.059 C 
ATOM     27  C   UNL     1      -0.539  -5.208   6.825  0.00  0.00    +0.306 C 
ATOM     28  O   UNL     1      -1.071  -4.219   7.290  0.00  0.00    -0.252 OA
ATOM     29  N   UNL     1      -0.358  -6.300   7.593  0.00  0.00    -0.269 N 
ATOM     30  H   UNL     1       0.107  -7.073   7.236  0.00  0.00    +0.156 HD
ATOM     31  H   UNL     1       0.762  -5.228   2.639  0.00  0.00    -0.081 HD
BRANCH  29  32
ATOM     32  C   UNL     1      -0.842  -6.321   8.906  0.00  0.00    +0.041 A 
ATOM     33  C   UNL     1      -0.404  -5.375   9.823  0.00  0.00    -0.029 A 
ATOM     34  C   UNL     1      -0.884  -5.397  11.118  0.00  0.00    +0.005 A 
ATOM     35  C   UNL     1      -1.800  -6.360  11.502  0.00  0.00    +0.001 A 
ATOM     36  C   UNL     1      -2.237  -7.303  10.590  0.00  0.00    +0.005 A 
ATOM     37  C   UNL     1      -1.766  -7.283   9.292  0.00  0.00    -0.029 A 
ATOM     38  C   UNL     1      -2.248  -8.308   8.298  0.00  0.00    +0.045 C 
ATOM     39  C   UNL     1       0.594  -4.325   9.407  0.00  0.00    +0.045 C 
ENDBRANCH  29  32
ENDBRANCH   1  21
TORSDOF 4
