REMARK  Name = ZINC12591796
REMARK  11 active torsions:
REMARK  status: ('A' for Active; 'I' for Inactive)
REMARK    1  A    between atoms: C_1  and  C_2
REMARK    2  A    between atoms: C_6  and  N_9
REMARK    3  A    between atoms: C_10  and  C_12
REMARK    4  A    between atoms: C_12  and  S_13
REMARK    5  A    between atoms: S_13  and  C_14
REMARK    6  A    between atoms: C_17  and  C_26
REMARK    7  A    between atoms: N_18  and  C_19
REMARK    8  A    between atoms: C_26  and  C_28
REMARK    9  A    between atoms: C_26  and  N_53
REMARK   10  A    between atoms: C_29  and  N_53
REMARK   11  A    between atoms: C_30  and  N_53
REMARK                            x       y       z     vdW  Elec       q    Type
REMARK                         _______ _______ _______ _____ _____    ______ ____
ROOT
ATOM      1  C   UNL     1      -0.429  -0.895   2.796  0.00  0.00    +0.197 A 
ATOM      2  N   UNL     1      -0.712  -0.241   1.693  0.00  0.00    -0.122 NA
ATOM      3  N   UNL     1      -0.756   1.021   1.931  0.00  0.00    -0.135 NA
ATOM      4  C   UNL     1      -0.507   1.249   3.189  0.00  0.00    +0.125 A 
ATOM      5  N   UNL     1      -0.289   0.037   3.788  0.00  0.00    -0.275 N 
ENDROOT
BRANCH   5   6
ATOM      6  C   UNL     1       0.015  -0.201   5.137  0.00  0.00    +0.050 A 
ATOM      7  C   UNL     1      -0.912   0.107   6.123  0.00  0.00    +0.029 A 
ATOM      8  C   UNL     1      -0.614  -0.133   7.450  0.00  0.00    +0.040 A 
ATOM      9  C   UNL     1       0.615  -0.668   7.798  0.00  0.00    +0.124 A 
ATOM     10  C   UNL     1       1.544  -0.970   6.817  0.00  0.00    +0.040 A 
ATOM     11  C   UNL     1       1.246  -0.737   5.488  0.00  0.00    +0.029 A 
ATOM     12  F   UNL     1       0.907  -0.897   9.097  0.00  0.00    -0.205 F 
ENDBRANCH   5   6
BRANCH   4  13
ATOM     13  C   UNL     1      -0.466   2.597   3.862  0.00  0.00    -0.003 C 
ATOM     14  C   UNL     1       0.825   3.321   3.475  0.00  0.00    -0.005 C 
BRANCH  13  17
ATOM     15  C   UNL     1      -2.881   2.687   3.701  0.00  0.00    -0.096 C 
ATOM     16  C   UNL     1      -1.615   4.718   4.067  0.00  0.00    -0.096 C 
ATOM     17  N   UNL     1      -1.620   3.398   3.402  0.00  0.00    +0.382 N 
ATOM     18  H   UNL     1      -1.547   3.536   2.387  0.00  0.00    -0.082 HD
ENDBRANCH  13  17
ENDBRANCH   4  13
BRANCH   1  19
ATOM     19  S   UNL     1      -0.261  -2.641   2.967  0.00  0.00    -0.076 S 
BRANCH  19  20
ATOM     20  C   UNL     1      -0.584  -3.155   1.262  0.00  0.00    +0.173 C 
BRANCH  20  22
ATOM     21  N   UNL     1      -0.696  -5.269  -0.019  0.00  0.00    -0.282 N 
ATOM     22  C   UNL     1      -0.491  -4.656   1.164  0.00  0.00    +0.228 C 
ATOM     23  O   UNL     1      -0.233  -5.314   2.150  0.00  0.00    -0.275 OA
ATOM     24  H   UNL     1      -0.974  -4.751  -0.791  0.00  0.00    +0.155 HD
BRANCH  21  30
ATOM     25  C   UNL     1      -2.535  -9.826   0.195  0.00  0.00    +0.045 C 
ATOM     26  C   UNL     1      -1.382  -8.883  -0.036  0.00  0.00    -0.030 A 
ATOM     27  C   UNL     1      -0.135  -9.385  -0.361  0.00  0.00    +0.006 A 
ATOM     28  C   UNL     1       0.926  -8.525  -0.574  0.00  0.00    +0.022 A 
ATOM     29  C   UNL     1       0.743  -7.159  -0.466  0.00  0.00    +0.064 A 
ATOM     30  C   UNL     1      -0.507  -6.651  -0.134  0.00  0.00    +0.071 A 
ATOM     31  C   UNL     1      -1.572  -7.519   0.079  0.00  0.00    +0.066 A 
ATOM     32 CL   UNL     1      -3.138  -6.891   0.487  0.00  0.00    -0.081 Cl
ATOM     33 CL   UNL     1       2.074  -6.079  -0.739  0.00  0.00    -0.082 Cl
ENDBRANCH  21  30
ENDBRANCH  20  22
ENDBRANCH  19  20
ENDBRANCH   1  19
TORSDOF 7
