REMARK  Name = ZINC04506742
REMARK  8 active torsions:
REMARK  status: ('A' for Active; 'I' for Inactive)
REMARK    1  A    between atoms: C_1  and  C_2
REMARK    2  A    between atoms: C_2  and  C_21
REMARK    3  A    between atoms: C_4  and  N_9
REMARK    4  A    between atoms: C_6  and  C_7
REMARK    5  A    between atoms: C_6  and  C_8
REMARK    6  A    between atoms: N_9  and  C_10
REMARK    7  A    between atoms: C_10  and  N_12
REMARK    8  A    between atoms: N_12  and  C_13
REMARK                            x       y       z     vdW  Elec       q    Type
REMARK                         _______ _______ _______ _____ _____    ______ ____
ROOT
ATOM      1  N   UNL     1      -0.015   5.083  -1.126  0.00  0.00    -0.324 N 
ATOM      2  H   UNL     1       0.436   5.523  -0.389  0.00  0.00    +0.148 HD
ENDROOT
BRANCH   1   6
ATOM      3  C   UNL     1      -2.605   1.552  -1.710  0.00  0.00    -0.010 C 
ATOM      4  C   UNL     1      -2.312   2.164  -0.335  0.00  0.00    -0.072 C 
ATOM      5  C   UNL     1      -1.868   3.615  -0.507  0.00  0.00    +0.009 C 
ATOM      6  C   UNL     1      -0.423   3.678  -1.003  0.00  0.00    +0.069 C 
ATOM      7  C   UNL     1       0.470   2.984   0.026  0.00  0.00    +0.009 C 
ATOM      8  C   UNL     1       0.062   1.518   0.166  0.00  0.00    -0.072 C 
ATOM      9  C   UNL     1       0.820   0.938   1.380  0.00  0.00    -0.010 C 
ATOM     10  C   UNL     1       0.512   0.735  -1.071  0.00  0.00    -0.010 C 
ATOM     11  C   UNL     1      -3.642   2.176   0.451  0.00  0.00    -0.010 C 
ATOM     12  N   UNL     1      -1.384   1.311   0.454  0.00  0.00    +0.386 N 
ATOM     13  H   UNL     1      -1.610   0.329   0.259  0.00  0.00    -0.084 HD
ATOM     14  H   UNL     1      -1.541   1.507   1.450  0.00  0.00    -0.084 HD
ENDBRANCH   1   6
BRANCH   1  15
ATOM     15  C   UNL     1      -0.269   5.761  -2.263  0.00  0.00    +0.135 C 
ATOM     16  S   UNL     1      -1.066   4.984  -3.564  0.00  0.00    -0.019 S 
BRANCH  15  17
ATOM     17  N   UNL     1       0.106   7.051  -2.376  0.00  0.00    -0.297 N 
ATOM     18  H   UNL     1       0.502   7.509  -1.619  0.00  0.00    +0.154 HD
BRANCH  17  19
ATOM     19  C   UNL     1      -0.077   7.729  -3.587  0.00  0.00    +0.034 A 
ATOM     20  C   UNL     1       0.944   8.518  -4.103  0.00  0.00    +0.026 A 
ATOM     21  C   UNL     1       0.764   9.182  -5.301  0.00  0.00    +0.041 A 
ATOM     22  C   UNL     1      -0.437   9.072  -5.981  0.00  0.00    +0.142 A 
ATOM     23  C   UNL     1      -1.458   8.290  -5.466  0.00  0.00    +0.078 A 
ATOM     24  C   UNL     1      -1.280   7.619  -4.271  0.00  0.00    +0.046 A 
ATOM     25 CL   UNL     1      -2.962   8.152  -6.323  0.00  0.00    -0.081 Cl
ATOM     26  F   UNL     1      -0.612   9.727  -7.150  0.00  0.00    -0.204 F 
ENDBRANCH  17  19
ENDBRANCH  15  17
ENDBRANCH   1  15
TORSDOF 4
