REMARK  Name = ZINC44539164
REMARK  5 active torsions:
REMARK  status: ('A' for Active; 'I' for Inactive)
REMARK    1  A    between atoms: C_1  and  N_2
REMARK    2  A    between atoms: C_6  and  C_9
REMARK    3  A    between atoms: C_9  and  N_10
REMARK    4  A    between atoms: C_12  and  C_20
REMARK    5  A    between atoms: C_20  and  N_22
REMARK                            x       y       z     vdW  Elec       q    Type
REMARK                         _______ _______ _______ _____ _____    ______ ____
ROOT
ATOM      1  N   UNL     1       1.757  -3.966   2.277  0.00  0.00    -0.328 N 
ATOM      2  C   UNL     1       2.395  -4.651   3.296  0.00  0.00    +0.129 A 
ATOM      3  C   UNL     1       2.478  -6.054   3.252  0.00  0.00    +0.043 A 
ATOM      4  C   UNL     1       3.128  -6.719   4.296  0.00  0.00    +0.019 A 
ATOM      5  C   UNL     1       3.663  -5.967   5.329  0.00  0.00    -0.025 A 
ATOM      6  C   UNL     1       3.544  -4.589   5.306  0.00  0.00    +0.047 A 
ATOM      7  N   UNL     1       2.928  -3.982   4.304  0.00  0.00    -0.236 NA
ATOM      8  C   UNL     1       4.206  -4.003   6.537  0.00  0.00    +0.056 C 
ATOM      9  C   UNL     1       4.350  -5.183   7.521  0.00  0.00    +0.011 C 
ATOM     10  C   UNL     1       4.409  -6.399   6.573  0.00  0.00    +0.037 C 
ATOM     11  H   UNL     1       1.435  -4.446   1.498  0.00  0.00    +0.147 HD
ENDROOT
BRANCH   3  12
ATOM     12  C   UNL     1       1.891  -6.806   2.130  0.00  0.00    +0.080 C 
ATOM     13  S   UNL     1       0.237  -7.245   2.165  0.00  0.00    -0.035 S 
BRANCH  12  14
ATOM     14  N   UNL     1       2.657  -7.150   1.076  0.00  0.00    -0.352 N 
ATOM     15  H   UNL     1       3.595  -6.902   1.056  0.00  0.00    +0.143 HD
ATOM     16  H   UNL     1       2.271  -7.646   0.337  0.00  0.00    +0.143 HD
ENDBRANCH  12  14
ENDBRANCH   3  12
BRANCH   1  17
ATOM     17  C   UNL     1       1.568  -2.517   2.374  0.00  0.00    +0.104 C 
BRANCH  17  23
ATOM     18  C   UNL     1       0.034   1.469  -0.020  0.00  0.00    -0.096 C 
ATOM     19  N   UNL     1       0.052   0.000  -0.027  0.00  0.00    +0.378 N 
ATOM     20  C   UNL     1      -1.327  -0.504  -0.039  0.00  0.00    -0.079 C 
ATOM     21  C   UNL     1      -1.315  -2.032  -0.128  0.00  0.00    -0.018 C 
ATOM     22  C   UNL     1      -0.570  -2.603   1.082  0.00  0.00    +0.001 C 
ATOM     23  C   UNL     1       0.842  -2.012   1.126  0.00  0.00    -0.011 C 
ATOM     24  C   UNL     1       0.750  -0.486   1.169  0.00  0.00    -0.074 C 
ATOM     25  H   UNL     1       0.533  -0.325  -0.852  0.00  0.00    -0.082 HD
ENDBRANCH  17  23
ENDBRANCH   1  17
TORSDOF 4
