REMARK  Name = ZINC05223106
REMARK  6 active torsions:
REMARK  status: ('A' for Active; 'I' for Inactive)
REMARK    1  A    between atoms: C_1  and  C_2
REMARK    2  A    between atoms: C_9  and  N_14
REMARK    3  A    between atoms: C_10  and  C_11
REMARK    4  A    between atoms: C_15  and  C_17
REMARK    5  A    between atoms: C_21  and  S_23
REMARK    6  A    between atoms: S_23  and  C_26
REMARK                            x       y       z     vdW  Elec       q    Type
REMARK                         _______ _______ _______ _____ _____    ______ ____
ROOT
ATOM      1  C   UNL     1      -0.019   1.526   0.010  0.00  0.00    +0.008 C 
ATOM      2  C   UNL     1       0.002  -0.004   0.002  0.00  0.00    -0.009 C 
ATOM      3  C   UNL     1       0.742  -0.514   1.242  0.00  0.00    +0.008 C 
ATOM      4  C   UNL     1       0.984  -2.020   1.120  0.00  0.00    +0.037 C 
ATOM      5  C   UNL     1      -0.340  -2.706   0.810  0.00  0.00    -0.023 A 
ATOM      6  C   UNL     1      -1.390  -2.006   0.327  0.00  0.00    -0.004 A 
ATOM      7  S   UNL     1      -2.678  -3.203   0.126  0.00  0.00    -0.077 S 
ATOM      8  C   UNL     1      -1.837  -4.615   0.674  0.00  0.00    +0.085 A 
ATOM      9  C   UNL     1      -0.579  -4.126   1.000  0.00  0.00    +0.068 A 
ATOM     10  C   UNL     1      -1.437  -0.538   0.030  0.00  0.00    +0.046 C 
ENDROOT
BRANCH   9  11
ATOM     11  C   UNL     1       0.470  -5.011   1.516  0.00  0.00    +0.244 C 
ATOM     12  O   UNL     1       0.578  -5.192   2.715  0.00  0.00    -0.270 OA
ATOM     13  N   UNL     1       1.314  -5.625   0.663  0.00  0.00    -0.325 N 
ATOM     14  H   UNL     1       1.228  -5.481  -0.292  0.00  0.00    +0.145 HD
ATOM     15  H   UNL     1       2.008  -6.210   1.005  0.00  0.00    +0.145 HD
ENDBRANCH   9  11
BRANCH   8  16
ATOM     16  N   UNL     1      -2.305  -5.915   0.765  0.00  0.00    -0.275 N 
ATOM     17  C   UNL     1      -3.570  -6.203   0.399  0.00  0.00    +0.249 C 
ATOM     18  O   UNL     1      -4.300  -5.322  -0.011  0.00  0.00    -0.270 OA
ATOM     19  H   UNL     1      -1.723  -6.619   1.092  0.00  0.00    +0.156 HD
BRANCH  17  20
ATOM     20  C   UNL     1      -4.070  -7.591   0.495  0.00  0.00    +0.039 A 
ATOM     21  C   UNL     1      -3.234  -8.606   0.966  0.00  0.00    +0.013 A 
ATOM     22  C   UNL     1      -3.707  -9.898   1.053  0.00  0.00    +0.003 A 
ATOM     23  C   UNL     1      -5.006 -10.191   0.677  0.00  0.00    +0.027 A 
ATOM     24  C   UNL     1      -5.839  -9.190   0.210  0.00  0.00    +0.089 A 
ATOM     25  C   UNL     1      -5.381  -7.891   0.122  0.00  0.00    +0.040 A 
BRANCH  24  26
ATOM     26  S   UNL     1      -7.492  -9.572  -0.267  0.00  0.00    -0.006 S 
ATOM     27  O   UNL     1      -7.836  -8.573  -1.216  0.00  0.00    -0.170 OA
ATOM     28  O   UNL     1      -7.454 -10.943  -0.639  0.00  0.00    -0.170 OA
ATOM     29  C   UNL     1      -8.473  -9.363   1.244  0.00  0.00    +0.200 C 
ENDBRANCH  24  26
ENDBRANCH  17  20
ENDBRANCH   8  16
TORSDOF 4
