REMARK  Name = ZINC14644439
REMARK  11 active torsions:
REMARK  status: ('A' for Active; 'I' for Inactive)
REMARK    1  A    between atoms: C_1  and  C_2
REMARK    2  A    between atoms: C_2  and  C_3
REMARK    3  A    between atoms: C_3  and  C_4
REMARK    4  A    between atoms: C_4  and  C_5
REMARK    5  A    between atoms: N_7  and  C_8
REMARK    6  A    between atoms: C_11  and  C_14
REMARK    7  A    between atoms: N_16  and  N_17
REMARK    8  A    between atoms: C_18  and  C_20
REMARK    9  A    between atoms: C_20  and  C_22
REMARK   10  A    between atoms: C_20  and  O_23
REMARK   11  A    between atoms: O_23  and  C_24
REMARK                            x       y       z     vdW  Elec       q    Type
REMARK                         _______ _______ _______ _____ _____    ______ ____
ROOT
ATOM      1  C   UNL     1       4.408  -6.633  -2.209  0.00  0.00    +0.260 C 
ATOM      2  O   UNL     1       5.459  -6.383  -1.650  0.00  0.00    -0.269 OA
ATOM      3  N   UNL     1       3.369  -5.782  -2.103  0.00  0.00    -0.230 N 
ATOM      4  H   UNL     1       2.531  -5.981  -2.549  0.00  0.00    +0.173 HD
ENDROOT
BRANCH   1   8
ATOM      5  C   UNL     1       4.014 -10.190  -4.497  0.00  0.00    +0.033 A 
ATOM      6  C   UNL     1       5.217  -9.905  -3.858  0.00  0.00    +0.024 A 
ATOM      7  C   UNL     1       5.348  -8.753  -3.115  0.00  0.00    +0.015 A 
ATOM      8  C   UNL     1       4.271  -7.869  -3.004  0.00  0.00    +0.038 A 
ATOM      9  C   UNL     1       3.063  -8.161  -3.642  0.00  0.00    +0.015 A 
ATOM     10  C   UNL     1       2.940  -9.312  -4.388  0.00  0.00    +0.024 A 
BRANCH   5  13
ATOM     11  C   UNL     1       4.944 -11.847  -5.921  0.00  0.00    +0.217 C 
ATOM     12  O   UNL     1       5.985 -11.224  -5.950  0.00  0.00    -0.275 OA
ATOM     13  N   UNL     1       3.884 -11.358  -5.248  0.00  0.00    -0.285 N 
ATOM     14  H   UNL     1       3.031 -11.818  -5.285  0.00  0.00    +0.155 HD
BRANCH  11  15
ATOM     15  C   UNL     1       4.837 -13.167  -6.640  0.00  0.00    +0.096 C 
BRANCH  15  16
ATOM     16  C   UNL     1       6.170 -13.488  -7.319  0.00  0.00    +0.009 C 
BRANCH  16  18
ATOM     17  C   UNL     1       7.394 -15.150  -8.726  0.00  0.00    +0.004 C 
ATOM     18  C   UNL     1       6.061 -14.829  -8.048  0.00  0.00    -0.003 C 
ENDBRANCH  16  18
ENDBRANCH  15  16
ENDBRANCH  11  15
ENDBRANCH   5  13
ENDBRANCH   1   8
BRANCH   3  19
ATOM     19  N   UNL     1       3.499  -4.609  -1.348  0.00  0.00    -0.231 N 
ATOM     20  C   UNL     1       2.460  -3.757  -1.242  0.00  0.00    +0.270 C 
ATOM     21  O   UNL     1       1.412  -4.007  -1.799  0.00  0.00    -0.270 OA
ATOM     22  H   UNL     1       4.337  -4.409  -0.902  0.00  0.00    +0.173 HD
BRANCH  20  23
ATOM     23  C   UNL     1       2.599  -2.495  -0.430  0.00  0.00    +0.257 C 
ATOM     24  C   UNL     1       2.932  -2.855   1.019  0.00  0.00    +0.062 C 
BRANCH  23  25
ATOM     25  O   UNL     1       1.372  -1.765  -0.470  0.00  0.00    -0.479 OA
BRANCH  25  26
ATOM     26  C   UNL     1       1.445  -0.423  -0.265  0.00  0.00    +0.136 A 
ATOM     27  C   UNL     1       2.654   0.161   0.084  0.00  0.00    +0.048 A 
ATOM     28  C   UNL     1       2.727   1.525   0.291  0.00  0.00    +0.023 A 
ATOM     29  C   UNL     1       1.595   2.309   0.150  0.00  0.00    +0.042 A 
ATOM     30  C   UNL     1       0.388   1.729  -0.198  0.00  0.00    +0.039 A 
ATOM     31  C   UNL     1       0.311   0.364  -0.406  0.00  0.00    +0.061 A 
ATOM     32 BR   UNL     1      -1.338  -0.428  -0.882  0.00  0.00    -0.046 Br
ATOM     33 CL   UNL     1       1.689   4.023   0.411  0.00  0.00    -0.084 Cl
ENDBRANCH  25  26
ENDBRANCH  23  25
ENDBRANCH  20  23
ENDBRANCH   3  19
TORSDOF 9
