REMARK  Name = ZINC36157002
REMARK  5 active torsions:
REMARK  status: ('A' for Active; 'I' for Inactive)
REMARK    1  A    between atoms: C_6  and  C_7
REMARK    2  A    between atoms: C_7  and  C_9
REMARK    3  A    between atoms: C_7  and  O_12
REMARK    4  A    between atoms: C_9  and  C_10
REMARK    5  A    between atoms: C_10  and  N_11
REMARK                            x       y       z     vdW  Elec       q    Type
REMARK                         _______ _______ _______ _____ _____    ______ ____
ROOT
ATOM      1  C   UNL     1      -0.017   1.378   0.010  0.00  0.00    +0.010 A 
ATOM      2  C   UNL     1       1.170   2.088   0.002  0.00  0.00    +0.050 A 
ATOM      3  C   UNL     1       2.380   1.416  -0.013  0.00  0.00    +0.166 A 
ATOM      4  C   UNL     1       2.399   0.023  -0.021  0.00  0.00    +0.167 A 
ATOM      5  C   UNL     1       1.207  -0.682  -0.014  0.00  0.00    +0.055 A 
ATOM      6  C   UNL     1       0.002  -0.004   0.002  0.00  0.00    -0.016 A 
ATOM      7  O   UNL     1       3.698  -0.395  -0.036  0.00  0.00    -0.453 OA
ATOM      8  C   UNL     1       4.466   0.750  -0.450  0.00  0.00    +0.466 C 
ATOM      9  O   UNL     1       3.668   1.870  -0.024  0.00  0.00    -0.453 OA
ENDROOT
BRANCH   6  10
ATOM     10  C   UNL     1      -1.294  -0.774   0.010  0.00  0.00    +0.143 C 
BRANCH  10  11
ATOM     11  O   UNL     1      -2.259  -0.072   0.796  0.00  0.00    -0.387 OA
ATOM     12  H   UNL     1      -2.458   0.817   0.473  0.00  0.00    +0.210 HD
ENDBRANCH  10  11
BRANCH  10  13
ATOM     13  C   UNL     1      -1.810  -0.918  -1.423  0.00  0.00    +0.016 C 
BRANCH  13  14
ATOM     14  C   UNL     1      -3.057  -1.804  -1.428  0.00  0.00    -0.084 C 
BRANCH  14  15
ATOM     15  N   UNL     1      -3.553  -1.943  -2.804  0.00  0.00    +0.378 N 
ATOM     16  H   UNL     1      -3.786  -1.033  -3.171  0.00  0.00    -0.090 HD
ATOM     17  H   UNL     1      -2.838  -2.365  -3.378  0.00  0.00    -0.090 HD
ATOM     18  H   UNL     1      -4.375  -2.528  -2.808  0.00  0.00    -0.090 HD
ENDBRANCH  14  15
ENDBRANCH  13  14
ENDBRANCH  10  13
ENDBRANCH   6  10
TORSDOF 5
