REMARK  Name = ZINC39534441
REMARK  12 active torsions:
REMARK  status: ('A' for Active; 'I' for Inactive)
REMARK    1  A    between atoms: C_1  and  C_2
REMARK    2  A    between atoms: C_2  and  C_3
REMARK    3  A    between atoms: C_2  and  S_4
REMARK    4  A    between atoms: S_4  and  C_7
REMARK    5  A    between atoms: C_10  and  C_13
REMARK    6  A    between atoms: C_13  and  C_15
REMARK    7  A    between atoms: C_13  and  N_19
REMARK    8  A    between atoms: C_15  and  N_16
REMARK    9  A    between atoms: N_16  and  S_17
REMARK   10  A    between atoms: S_17  and  C_18
REMARK   11  A    between atoms: C_23  and  C_26
REMARK   12  A    between atoms: C_31  and  O_32
REMARK                            x       y       z     vdW  Elec       q    Type
REMARK                         _______ _______ _______ _____ _____    ______ ____
ROOT
ATOM      1  C   UNL     1      -4.233   1.597  -4.888  0.00  0.00    +0.101 C 
ENDROOT
BRANCH   1   2
ATOM      2  N   UNL     1      -4.881   0.499  -5.618  0.00  0.00    -0.297 NA
ATOM      3  C   UNL     1      -5.958   1.004  -6.481  0.00  0.00    +0.066 C 
ATOM      4  C   UNL     1      -6.566  -0.160  -7.267  0.00  0.00    -0.066 C 
ATOM      5  N   UNL     1      -7.094  -1.161  -6.330  0.00  0.00    +0.385 N 
ATOM      6  C   UNL     1      -6.002  -1.674  -5.492  0.00  0.00    -0.023 C 
ATOM      7  C   UNL     1      -5.389  -0.522  -4.692  0.00  0.00    +0.074 C 
ATOM      8  H   UNL     1      -7.796  -0.735  -5.743  0.00  0.00    -0.085 HD
ATOM      9  H   UNL     1      -7.506  -1.922  -6.848  0.00  0.00    -0.085 HD
BRANCH   6  10
ATOM     10  C   UNL     1      -6.541  -2.713  -4.544  0.00  0.00    -0.019 A 
ATOM     11  C   UNL     1      -7.894  -2.760  -4.267  0.00  0.00    +0.005 A 
ATOM     12  C   UNL     1      -8.390  -3.714  -3.397  0.00  0.00    +0.000 A 
ATOM     13  C   UNL     1      -7.534  -4.623  -2.802  0.00  0.00    +0.004 A 
ATOM     14  C   UNL     1      -6.181  -4.580  -3.077  0.00  0.00    +0.045 A 
ATOM     15  C   UNL     1      -5.681  -3.628  -3.954  0.00  0.00    +0.118 A 
BRANCH  15  16
ATOM     16  O   UNL     1      -4.351  -3.587  -4.230  0.00  0.00    -0.507 OA
ATOM     17  H   UNL     1      -3.842  -3.022  -3.633  0.00  0.00    +0.292 HD
ENDBRANCH  15  16
ENDBRANCH   6  10
ENDBRANCH   1   2
BRANCH   1  21
ATOM     18  C   UNL     1      -2.253   0.037  -1.439  0.00  0.00    +0.088 A 
ATOM     19  C   UNL     1      -3.089   1.132  -1.320  0.00  0.00    +0.027 A 
ATOM     20  C   UNL     1      -3.729   1.637  -2.437  0.00  0.00    +0.007 A 
ATOM     21  C   UNL     1      -3.534   1.047  -3.671  0.00  0.00    -0.029 A 
ATOM     22  C   UNL     1      -2.697  -0.047  -3.790  0.00  0.00    +0.007 A 
ATOM     23  C   UNL     1      -2.053  -0.549  -2.675  0.00  0.00    +0.027 A 
BRANCH  18  24
ATOM     24  S   UNL     1      -1.437  -0.606  -0.016  0.00  0.00    -0.001 S 
ATOM     25  O   UNL     1      -1.198  -1.973  -0.322  0.00  0.00    -0.169 OA
ATOM     26  O   UNL     1      -2.271  -0.243   1.075  0.00  0.00    -0.169 OA
BRANCH  24  28
ATOM     27  C   UNL     1      -0.147   1.796   0.206  0.00  0.00    +0.032 C 
ATOM     28  C   UNL     1       0.134   0.298   0.069  0.00  0.00    +0.130 C 
ATOM     29  C   UNL     1       0.935  -0.184   1.280  0.00  0.00    +0.032 C 
ENDBRANCH  24  28
ENDBRANCH  18  24
ENDBRANCH   1  21
BRANCH   1  30
ATOM     30  C   UNL     1      -3.211   2.281  -5.798  0.00  0.00    +0.117 C 
BRANCH  30  31
ATOM     31  N   UNL     1      -3.866   2.697  -7.045  0.00  0.00    -0.262 NA
ATOM     32  H   UNL     1      -3.986   1.913  -7.669  0.00  0.00    +0.135 HD
BRANCH  31  33
ATOM     33  S   UNL     1      -2.968   3.999  -7.828  0.00  0.00    -0.084 S 
ATOM     34  C   UNL     1      -3.930   4.358  -9.324  0.00  0.00    +0.102 C 
ENDBRANCH  31  33
ENDBRANCH  30  31
ENDBRANCH   1  30
TORSDOF 9
