REMARK  Name = ZINC63294445
REMARK  9 active torsions:
REMARK  status: ('A' for Active; 'I' for Inactive)
REMARK    1  A    between atoms: C_1  and  O_2
REMARK    2  A    between atoms: O_2  and  C_3
REMARK    3  A    between atoms: C_6  and  C_11
REMARK    4  A    between atoms: C_8  and  O_9
REMARK    5  A    between atoms: O_9  and  C_10
REMARK    6  A    between atoms: C_11  and  N_12
REMARK    7  A    between atoms: C_13  and  C_15
REMARK    8  A    between atoms: C_18  and  C_22
REMARK    9  A    between atoms: C_22  and  C_23
REMARK                            x       y       z     vdW  Elec       q    Type
REMARK                         _______ _______ _______ _____ _____    ______ ____
ROOT
ATOM      1  C   UNL     1       6.188  -3.509  -4.686  0.00  0.00    +0.297 C 
ATOM      2  N   UNL     1       6.898  -2.211  -4.620  0.00  0.00    -0.265 NA
ATOM      3  C   UNL     1       7.891  -2.338  -3.531  0.00  0.00    +0.154 C 
ATOM      4  N   UNL     1       7.726  -3.708  -2.993  0.00  0.00    -0.181 NA
ATOM      5  O   UNL     1       6.344  -4.084  -3.369  0.00  0.00    -0.270 OA
ATOM      6  H   UNL     1       7.349  -2.000  -5.497  0.00  0.00    +0.126 HD
ATOM      7  H   UNL     1       8.396  -4.341  -3.404  0.00  0.00    +0.156 HD
ENDROOT
BRANCH   1   9
ATOM      8  N   UNL     1       3.926  -2.710  -4.085  0.00  0.00    -0.308 N 
ATOM      9  C   UNL     1       4.729  -3.294  -4.996  0.00  0.00    +0.259 C 
ATOM     10  O   UNL     1       4.278  -3.646  -6.066  0.00  0.00    -0.271 OA
ATOM     11  H   UNL     1       4.287  -2.428  -3.230  0.00  0.00    +0.149 HD
BRANCH   8  12
ATOM     12  C   UNL     1       2.507  -2.501  -4.386  0.00  0.00    +0.139 C 
BRANCH  12  16
ATOM     13  C   UNL     1       0.606  -0.608  -1.056  0.00  0.00    +0.162 A 
ATOM     14  C   UNL     1       1.173   0.159  -2.062  0.00  0.00    +0.050 A 
ATOM     15  C   UNL     1       1.787  -0.456  -3.137  0.00  0.00    +0.009 A 
ATOM     16  C   UNL     1       1.837  -1.836  -3.212  0.00  0.00    -0.027 A 
ATOM     17  C   UNL     1       1.273  -2.606  -2.212  0.00  0.00    +0.054 A 
ATOM     18  C   UNL     1       0.662  -1.996  -1.129  0.00  0.00    +0.162 A 
BRANCH  13  20
ATOM     19  C   UNL     1      -0.017   1.425   0.010  0.00  0.00    +0.277 C 
ATOM     20  O   UNL     1       0.002  -0.004   0.002  0.00  0.00    -0.491 OA
ENDBRANCH  13  20
BRANCH  18  21
ATOM     21  O   UNL     1       0.112  -2.753  -0.142  0.00  0.00    -0.491 OA
ATOM     22  C   UNL     1       0.206  -4.171  -0.283  0.00  0.00    +0.277 C 
ENDBRANCH  18  21
ENDBRANCH  12  16
ENDBRANCH   8  12
ENDBRANCH   1   9
BRANCH   3  23
ATOM     23  C   UNL     1       9.306  -2.152  -4.083  0.00  0.00    +0.070 C 
BRANCH  23  24
ATOM     24  C   UNL     1      10.304  -2.285  -2.962  0.00  0.00    -0.039 C 
ATOM     25  C   UNL     1      10.984  -3.399  -2.606  0.00  0.00    -0.001 A 
ATOM     26  C   UNL     1      10.996  -4.768  -3.134  0.00  0.00    +0.010 A 
ATOM     27  C   UNL     1      11.799  -5.688  -2.554  0.00  0.00    +0.001 A 
ATOM     28  C   UNL     1      12.619  -5.368  -1.463  0.00  0.00    +0.002 A 
ATOM     29  C   UNL     1      12.662  -4.132  -0.922  0.00  0.00    +0.026 A 
ATOM     30  C   UNL     1      11.858  -3.086  -1.453  0.00  0.00    +0.043 A 
ATOM     31  N   UNL     1      11.725  -1.828  -1.110  0.00  0.00    -0.380 N 
ATOM     32  C   UNL     1      10.753  -1.198  -2.011  0.00  0.00    +0.144 C 
ATOM     33  H   UNL     1      12.193  -1.386  -0.384  0.00  0.00    +0.160 HD
ENDBRANCH  23  24
ENDBRANCH   3  23
TORSDOF 7
