REMARK  Name = ZINC35104378
REMARK  6 active torsions:
REMARK  status: ('A' for Active; 'I' for Inactive)
REMARK    1  A    between atoms: C_1  and  C_2
REMARK    2  A    between atoms: C_5  and  N_9
REMARK    3  A    between atoms: C_10  and  S_27
REMARK    4  A    between atoms: N_13  and  C_14
REMARK    5  A    between atoms: S_27  and  C_28
REMARK    6  A    between atoms: C_28  and  C_29
REMARK                            x       y       z     vdW  Elec       q    Type
REMARK                         _______ _______ _______ _____ _____    ______ ____
ROOT
ATOM      1  N   UNL     1      -0.314  -4.204  -0.016  0.00  0.00    -0.268 N 
ATOM      2  C   UNL     1      -0.198  -5.013  -1.115  0.00  0.00    +0.141 C 
ATOM      3  N   UNL     1      -0.005  -6.271  -0.790  0.00  0.00    -0.326 N 
ATOM      4  C   UNL     1       0.031  -6.457   0.535  0.00  0.00    +0.111 C 
ATOM      5  N   UNL     1       0.207  -7.591   1.170  0.00  0.00    -0.343 N 
ATOM      6  C   UNL     1      -0.166  -5.090   1.147  0.00  0.00    +0.097 C 
ATOM      7  C   UNL     1       1.052  -4.690   1.972  0.00  0.00    +0.034 C 
ATOM      8  C   UNL     1       0.841  -3.288   2.549  0.00  0.00    +0.003 C 
ATOM      9  C   UNL     1      -0.414  -3.282   3.424  0.00  0.00    +0.000 C 
ATOM     10  C   UNL     1      -1.630  -3.663   2.578  0.00  0.00    +0.003 C 
ATOM     11  C   UNL     1      -1.429  -5.066   2.001  0.00  0.00    +0.034 C 
ATOM     12  H   UNL     1       0.099  -6.985  -1.438  0.00  0.00    +0.169 HD
ATOM     13  H   UNL     1       0.325  -8.414   0.670  0.00  0.00    +0.167 HD
ENDROOT
BRANCH   1  18
ATOM     14  C   UNL     1      -1.162   1.405   0.038  0.00  0.00    +0.045 C 
ATOM     15  C   UNL     1      -0.937  -0.085   0.023  0.00  0.00    -0.036 A 
ATOM     16  C   UNL     1      -0.819  -0.777   1.215  0.00  0.00    +0.006 A 
ATOM     17  C   UNL     1      -0.612  -2.142   1.205  0.00  0.00    +0.024 A 
ATOM     18  C   UNL     1      -0.523  -2.821  -0.003  0.00  0.00    +0.038 A 
ATOM     19  C   UNL     1      -0.642  -2.125  -1.198  0.00  0.00    +0.039 A 
ATOM     20  C   UNL     1      -0.854  -0.759  -1.182  0.00  0.00    +0.023 A 
ATOM     21 BR   UNL     1      -1.024   0.190  -2.809  0.00  0.00    -0.050 Br
ENDBRANCH   1  18
BRANCH   5  22
ATOM     22  C   UNL     1       0.223  -7.613   2.538  0.00  0.00    +0.041 A 
ATOM     23  C   UNL     1       0.409  -8.819   3.218  0.00  0.00    +0.027 A 
ATOM     24  C   UNL     1       0.424  -8.835   4.597  0.00  0.00    +0.022 A 
ATOM     25  C   UNL     1       0.255  -7.659   5.308  0.00  0.00    +0.041 A 
ATOM     26  C   UNL     1       0.070  -6.460   4.640  0.00  0.00    +0.022 A 
ATOM     27  C   UNL     1       0.060  -6.429   3.261  0.00  0.00    +0.027 A 
ATOM     28 CL   UNL     1       0.276  -7.687   7.043  0.00  0.00    -0.084 Cl
ENDBRANCH   5  22
BRANCH   2  29
ATOM     29  S   UNL     1      -0.296  -4.432  -2.776  0.00  0.00    -0.080 S 
BRANCH  29  30
ATOM     30  C   UNL     1      -0.075  -5.927  -3.778  0.00  0.00    +0.202 C 
BRANCH  30  31
ATOM     31  C   UNL     1      -0.139  -5.567  -5.239  0.00  0.00    +0.366 C 
ATOM     32  O   UNL     1      -0.317  -4.408  -5.574  0.00  0.00    -0.245 OA
ATOM     33  O   UNL     1      -0.012  -6.434  -6.088  0.00  0.00    -0.245 OA
ENDBRANCH  30  31
ENDBRANCH  29  30
ENDBRANCH   2  29
TORSDOF 5
