REMARK  Name = ZINC67019689
REMARK  4 active torsions:
REMARK  status: ('A' for Active; 'I' for Inactive)
REMARK    1  A    between atoms: C_2  and  N_10
REMARK    2  A    between atoms: N_4  and  C_6
REMARK    3  A    between atoms: C_6  and  C_7
REMARK    4  A    between atoms: C_11  and  C_13
REMARK                            x       y       z     vdW  Elec       q    Type
REMARK                         _______ _______ _______ _____ _____    ______ ____
ROOT
ATOM      1  N   UNL     1       1.720   3.109   0.002  0.00  0.00    -0.278 N 
ATOM      2  C   UNL     1       0.801   4.094   0.016  0.00  0.00    +0.268 C 
ATOM      3  O   UNL     1      -0.384   3.820   0.026  0.00  0.00    -0.268 OA
ATOM      4  H   UNL     1       2.665   3.328  -0.006  0.00  0.00    +0.155 HD
ENDROOT
BRANCH   2   5
ATOM      5  C   UNL     1       1.233   5.510   0.019  0.00  0.00    +0.147 A 
ATOM      6  C   UNL     1       0.276   6.524   0.039  0.00  0.00    +0.091 A 
ATOM      7  C   UNL     1       0.697   7.847   0.042  0.00  0.00    +0.083 A 
ATOM      8  C   UNL     1       2.060   8.108   0.024  0.00  0.00    +0.097 A 
ATOM      9  C   UNL     1       2.955   7.047   0.004  0.00  0.00    +0.150 A 
ATOM     10  N   UNL     1       2.528   5.803   0.008  0.00  0.00    -0.228 NA
ATOM     11 CL   UNL     1       4.661   7.367  -0.018  0.00  0.00    -0.060 Cl
ATOM     12 CL   UNL     1       2.639   9.745   0.026  0.00  0.00    -0.079 Cl
ATOM     13 CL   UNL     1      -0.456   9.145   0.067  0.00  0.00    -0.080 Cl
ATOM     14 CL   UNL     1      -1.416   6.138   0.061  0.00  0.00    -0.080 Cl
ENDBRANCH   2   5
BRANCH   1  16
ATOM     15  C   UNL     1      -0.016   1.304   0.009  0.00  0.00    +0.157 A 
ATOM     16  C   UNL     1       1.310   1.763  -0.001  0.00  0.00    +0.072 A 
ATOM     17  C   UNL     1       2.126   0.678  -0.015  0.00  0.00    +0.132 A 
ATOM     18  N   UNL     1       1.337  -0.427  -0.013  0.00  0.00    -0.261 N 
ATOM     19  N   UNL     1       0.002  -0.004   0.002  0.00  0.00    -0.177 NA
BRANCH  18  20
ATOM     20  C   UNL     1       1.801  -1.817  -0.025  0.00  0.00    +0.238 C 
BRANCH  20  21
ATOM     21  C   UNL     1       1.198  -2.558   1.140  0.00  0.00    +0.232 C 
ATOM     22  O   UNL     1       0.455  -1.982   1.906  0.00  0.00    -0.274 OA
ATOM     23  N   UNL     1       1.486  -3.861   1.332  0.00  0.00    -0.328 N 
ATOM     24  H   UNL     1       2.080  -4.322   0.720  0.00  0.00    +0.145 HD
ATOM     25  H   UNL     1       1.098  -4.338   2.082  0.00  0.00    +0.145 HD
ENDBRANCH  20  21
ENDBRANCH  18  20
ENDBRANCH   1  16
TORSDOF 4
