REMARK  Name = ZINC38971821
REMARK  6 active torsions:
REMARK  status: ('A' for Active; 'I' for Inactive)
REMARK    1  A    between atoms: C_1  and  C_2
REMARK    2  A    between atoms: C_5  and  C_31
REMARK    3  A    between atoms: C_6  and  S_8
REMARK    4  A    between atoms: S_8  and  N_11
REMARK    5  A    between atoms: C_13  and  N_23
REMARK    6  A    between atoms: N_23  and  C_24
REMARK                            x       y       z     vdW  Elec       q    Type
REMARK                         _______ _______ _______ _____ _____    ______ ____
ROOT
ATOM      1  N   UNL     1      -1.329  -3.626   3.047  0.00  0.00    -0.110 NA
ATOM      2  C   UNL     1      -1.612  -4.495   3.972  0.00  0.00    +0.192 C 
ATOM      3  C   UNL     1      -2.879  -5.316   3.892  0.00  0.00    +0.237 C 
ATOM      4  N   UNL     1      -3.141  -6.283   4.970  0.00  0.00    -0.359 N 
ATOM      5  C   UNL     1      -2.273  -6.386   5.937  0.00  0.00    +0.063 A 
ATOM      6  C   UNL     1      -2.488  -7.337   7.038  0.00  0.00    +0.027 A 
ATOM      7  C   UNL     1      -1.566  -7.415   8.023  0.00  0.00    +0.002 A 
ATOM      8  C   UNL     1      -0.413  -6.614   8.021  0.00  0.00    +0.002 A 
ATOM      9  C   UNL     1      -0.147  -5.718   7.045  0.00  0.00    +0.030 A 
ATOM     10  C   UNL     1      -1.046  -5.552   5.961  0.00  0.00    +0.089 A 
ATOM     11  N   UNL     1      -0.780  -4.681   5.010  0.00  0.00    -0.226 NA
ATOM     12  H   UNL     1      -3.941  -6.831   4.960  0.00  0.00    +0.162 HD
ENDROOT
BRANCH   1  13
ATOM     13  S   UNL     1       0.066  -2.738   3.144  0.00  0.00    +0.101 S 
ATOM     14  O   UNL     1       1.142  -3.655   2.997  0.00  0.00    -0.146 OA
ATOM     15  O   UNL     1      -0.067  -1.895   4.281  0.00  0.00    -0.146 OA
BRANCH  13  21
ATOM     16  C   UNL     1      -0.001   2.015   0.971  0.00  0.00    +0.044 C 
ATOM     17  C   UNL     1       0.073   0.521   0.794  0.00  0.00    -0.049 A 
ATOM     18  C   UNL     1       0.175  -0.021  -0.474  0.00  0.00    +0.004 A 
ATOM     19  C   UNL     1       0.243  -1.391  -0.637  0.00  0.00    +0.005 A 
ATOM     20  C   UNL     1       0.210  -2.221   0.468  0.00  0.00    -0.024 A 
ATOM     21  C   UNL     1       0.109  -1.680   1.736  0.00  0.00    +0.116 A 
ATOM     22  C   UNL     1       0.045  -0.309   1.899  0.00  0.00    +0.032 A 
ATOM     23  C   UNL     1       0.283  -3.716   0.290  0.00  0.00    +0.046 C 
ENDBRANCH  13  21
ENDBRANCH   1  13
BRANCH   3  24
ATOM     24  N   UNL     1      -4.011  -4.387   3.841  0.00  0.00    -0.318 N 
ATOM     25  H   UNL     1      -4.034  -3.618   4.431  0.00  0.00    +0.148 HD
BRANCH  24  26
ATOM     26  C   UNL     1      -5.057  -4.609   2.942  0.00  0.00    +0.030 A 
ATOM     27  C   UNL     1      -5.107  -5.790   2.211  0.00  0.00    +0.023 A 
ATOM     28  C   UNL     1      -6.142  -6.007   1.323  0.00  0.00    +0.003 A 
ATOM     29  C   UNL     1      -7.129  -5.051   1.161  0.00  0.00    +0.015 A 
ATOM     30  C   UNL     1      -7.082  -3.875   1.888  0.00  0.00    +0.020 A 
ATOM     31  C   UNL     1      -6.052  -3.654   2.783  0.00  0.00    +0.038 A 
ATOM     32 BR   UNL     1      -8.434  -2.572   1.663  0.00  0.00    -0.050 Br
ENDBRANCH  24  26
ENDBRANCH   3  24
TORSDOF 4
