REMARK  Name = ZINC44686538
REMARK  5 active torsions:
REMARK  status: ('A' for Active; 'I' for Inactive)
REMARK    1  A    between atoms: C_5  and  S_8
REMARK    2  A    between atoms: C_6  and  N_7
REMARK    3  A    between atoms: S_8  and  N_11
REMARK    4  A    between atoms: N_11  and  C_12
REMARK    5  A    between atoms: N_16  and  C_18
REMARK                            x       y       z     vdW  Elec       q    Type
REMARK                         _______ _______ _______ _____ _____    ______ ____
ROOT
ATOM      1  S   UNL     1       1.078  -2.344  -0.775  0.00  0.00    +0.062 S 
ATOM      2  O   UNL     1      -0.274  -2.630  -1.104  0.00  0.00    -0.153 OA
ATOM      3  O   UNL     1       2.147  -2.575  -1.682  0.00  0.00    -0.153 OA
ENDROOT
BRANCH   1   8
ATOM      4  C   UNL     1       0.052   1.358   0.438  0.00  0.00    +0.044 A 
ATOM      5  C   UNL     1       1.245   2.048   0.332  0.00  0.00    +0.044 A 
ATOM      6  C   UNL     1       2.384   1.399  -0.111  0.00  0.00    +0.042 A 
ATOM      7  C   UNL     1       2.333   0.058  -0.448  0.00  0.00    +0.070 A 
ATOM      8  C   UNL     1       1.143  -0.637  -0.344  0.00  0.00    +0.144 A 
ATOM      9  C   UNL     1      -0.003   0.012   0.100  0.00  0.00    +0.054 A 
ATOM     10 CL   UNL     1       3.765  -0.752  -1.002  0.00  0.00    -0.081 Cl
ATOM     11 CL   UNL     1       1.313   3.731   0.753  0.00  0.00    -0.083 Cl
BRANCH   9  12
ATOM     12  N   UNL     1      -1.206  -0.689   0.207  0.00  0.00    -0.356 N 
ATOM     13  H   UNL     1      -2.049  -0.208   0.203  0.00  0.00    +0.142 HD
ATOM     14  H   UNL     1      -1.200  -1.655   0.284  0.00  0.00    +0.142 HD
ENDBRANCH   9  12
ENDBRANCH   1   8
BRANCH   1  15
ATOM     15  N   UNL     1       1.425  -3.208   0.594  0.00  0.00    -0.189 NA
ATOM     16  H   UNL     1       2.230  -3.747   0.637  0.00  0.00    +0.148 HD
BRANCH  15  17
ATOM     17  C   UNL     1       0.516  -3.158   1.742  0.00  0.00    +0.058 C 
ATOM     18  C   UNL     1      -0.415  -4.400   1.759  0.00  0.00    -0.000 C 
ATOM     19  C   UNL     1      -0.753  -4.517   3.266  0.00  0.00    -0.077 C 
ATOM     20  N   UNL     1       0.496  -4.143   3.963  0.00  0.00    +0.383 N 
ATOM     21  C   UNL     1       1.299  -3.288   3.065  0.00  0.00    -0.058 C 
ATOM     22  H   UNL     1       1.016  -4.975   4.199  0.00  0.00    -0.081 HD
BRANCH  20  23
ATOM     23  C   UNL     1       0.174  -3.400   5.189  0.00  0.00    -0.069 C 
ATOM     24  C   UNL     1       0.840  -3.857   6.488  0.00  0.00    -0.017 C 
ATOM     25  C   UNL     1      -0.649  -4.123   6.258  0.00  0.00    -0.017 C 
ENDBRANCH  20  23
ENDBRANCH  15  17
ENDBRANCH   1  15
TORSDOF 5
