REMARK  Name = ZINC22047980
REMARK  15 active torsions:
REMARK  status: ('A' for Active; 'I' for Inactive)
REMARK    1  A    between atoms: C_2  and  C_3
REMARK    2  A    between atoms: C_3  and  O_4
REMARK    3  A    between atoms: O_4  and  C_5
REMARK    4  A    between atoms: N_7  and  C_8
REMARK    5  A    between atoms: C_10  and  O_39
REMARK    6  A    between atoms: C_12  and  O_22
REMARK    7  A    between atoms: C_14  and  C_20
REMARK    8  A    between atoms: C_17  and  O_19
REMARK    9  A    between atoms: C_20  and  O_21
REMARK   10  A    between atoms: O_22  and  C_23
REMARK   11  A    between atoms: C_25  and  O_38
REMARK   12  A    between atoms: C_27  and  O_37
REMARK   13  A    between atoms: C_29  and  O_36
REMARK   14  A    between atoms: C_31  and  C_34
REMARK   15  A    between atoms: C_34  and  O_35
REMARK                            x       y       z     vdW  Elec       q    Type
REMARK                         _______ _______ _______ _____ _____    ______ ____
ROOT
ATOM      1  C   UNL     1       0.213  -0.016  -0.453  0.00  0.00    +0.163 C 
ATOM      2  C   UNL     1       0.877  -0.627   0.784  0.00  0.00    +0.171 C 
ATOM      3  C   UNL     1       2.189   0.113   1.063  0.00  0.00    +0.183 C 
ATOM      4  C   UNL     1       1.897   1.606   1.238  0.00  0.00    +0.178 C 
ATOM      5  O   UNL     1       1.252   2.104   0.064  0.00  0.00    -0.341 OA
ATOM      6  C   UNL     1      -0.003   1.481  -0.221  0.00  0.00    +0.271 C 
ENDROOT
BRANCH   1   9
ATOM      7  C   UNL     1      -1.610  -0.683  -1.927  0.00  0.00    +0.401 C 
ATOM      8  O   UNL     1      -1.017  -0.158  -2.849  0.00  0.00    -0.226 OA
ATOM      9  N   UNL     1      -1.079  -0.666  -0.688  0.00  0.00    -0.271 N 
ATOM     10  H   UNL     1      -1.615  -1.141   0.147  0.00  0.00    +0.153 HD
BRANCH   7  11
ATOM     11  O   UNL     1      -2.797  -1.280  -2.142  0.00  0.00    -0.446 OA
BRANCH  11  12
ATOM     12  C   UNL     1      -3.308  -1.259  -3.501  0.00  0.00    +0.261 C 
BRANCH  12  14
ATOM     13  C   UNL     1      -5.639  -1.441  -4.205  0.00  0.00    +0.007 C 
ATOM     14  C   UNL     1      -4.636  -1.970  -3.549  0.00  0.00    +0.006 C 
ENDBRANCH  12  14
ENDBRANCH  11  12
ENDBRANCH   7  11
ENDBRANCH   1   9
BRANCH   6  15
ATOM     15  O   UNL     1      -0.889   1.669   0.884  0.00  0.00    -0.365 OA
ATOM     16  H   UNL     1      -1.164   2.686   1.202  0.00  0.00    +0.213 HD
ENDBRANCH   6  15
BRANCH   2  17
ATOM     17  O   UNL     1       0.005  -0.497   1.909  0.00  0.00    -0.387 OA
ATOM     18  H   UNL     1       0.314  -0.880   2.892  0.00  0.00    +0.210 HD
ENDBRANCH   2  17
BRANCH   4  19
ATOM     19  C   UNL     1       3.210   2.360   1.457  0.00  0.00    +0.190 C 
BRANCH  19  20
ATOM     20  O   UNL     1       2.929   3.730   1.753  0.00  0.00    -0.392 OA
ATOM     21  H   UNL     1       3.753   4.433   1.942  0.00  0.00    +0.210 HD
ENDBRANCH  19  20
ENDBRANCH   4  19
BRANCH   3  22
ATOM     22  O   UNL     1       3.086  -0.075  -0.033  0.00  0.00    -0.340 OA
BRANCH  22  23
ATOM     23  C   UNL     1       3.981  -1.177   0.130  0.00  0.00    +0.282 C 
ATOM     24  C   UNL     1       4.774  -1.386  -1.163  0.00  0.00    +0.201 C 
ATOM     25  C   UNL     1       5.773  -2.530  -0.961  0.00  0.00    +0.179 C 
ATOM     26  C   UNL     1       6.678  -2.197   0.229  0.00  0.00    +0.177 C 
ATOM     27  C   UNL     1       5.812  -1.957   1.468  0.00  0.00    +0.178 C 
ATOM     28  O   UNL     1       4.885  -0.902   1.202  0.00  0.00    -0.341 OA
BRANCH  26  29
ATOM     29  O   UNL     1       7.567  -3.290   0.473  0.00  0.00    -0.386 OA
ATOM     30  H   UNL     1       8.296  -3.233   1.294  0.00  0.00    +0.210 HD
ENDBRANCH  26  29
BRANCH  25  31
ATOM     31  O   UNL     1       6.568  -2.684  -2.138  0.00  0.00    -0.386 OA
ATOM     32  H   UNL     1       7.345  -3.461  -2.179  0.00  0.00    +0.210 HD
ENDBRANCH  25  31
BRANCH  24  33
ATOM     33  O   UNL     1       5.480  -0.187  -1.490  0.00  0.00    -0.384 OA
ATOM     34  H   UNL     1       6.108  -0.147  -2.392  0.00  0.00    +0.210 HD
ENDBRANCH  24  33
BRANCH  27  35
ATOM     35  C   UNL     1       6.705  -1.565   2.647  0.00  0.00    +0.190 C 
BRANCH  35  36
ATOM     36  O   UNL     1       5.910  -1.454   3.830  0.00  0.00    -0.392 OA
ATOM     37  H   UNL     1       6.382  -1.179   4.785  0.00  0.00    +0.210 HD
ENDBRANCH  35  36
ENDBRANCH  27  35
ENDBRANCH  22  23
ENDBRANCH   3  22
TORSDOF 15
