REMARK  Name = ZINC39940957
REMARK  12 active torsions:
REMARK  status: ('A' for Active; 'I' for Inactive)
REMARK    1  A    between atoms: C_1  and  C_2
REMARK    2  A    between atoms: C_5  and  N_8
REMARK    3  A    between atoms: C_9  and  C_11
REMARK    4  A    between atoms: C_11  and  S_12
REMARK    5  A    between atoms: S_12  and  C_13
REMARK    6  A    between atoms: C_18  and  C_19
REMARK    7  A    between atoms: C_19  and  O_21
REMARK    8  A    between atoms: O_21  and  C_22
REMARK    9  A    between atoms: C_22  and  C_24
REMARK   10  A    between atoms: C_22  and  C_25
REMARK   11  A    between atoms: C_25  and  C_27
REMARK   12  A    between atoms: C_35  and  C_37
REMARK                            x       y       z     vdW  Elec       q    Type
REMARK                         _______ _______ _______ _____ _____    ______ ____
ROOT
ATOM      1  C   UNL     1       0.593  -8.709   2.636  0.00  0.00    +0.022 A 
ATOM      2  C   UNL     1       0.588  -9.279   1.368  0.00  0.00    +0.015 A 
ATOM      3  C   UNL     1       0.704 -10.646   1.225  0.00  0.00    +0.001 A 
ATOM      4  C   UNL     1       0.826 -11.461   2.340  0.00  0.00    +0.001 A 
ATOM      5  C   UNL     1       0.832 -10.916   3.604  0.00  0.00    +0.016 A 
ATOM      6  C   UNL     1       0.721  -9.532   3.767  0.00  0.00    +0.072 A 
ENDROOT
BRANCH   6   7
ATOM      7  C   UNL     1       0.733  -8.941   5.116  0.00  0.00    +0.341 C 
ATOM      8  O   UNL     1       0.632  -7.738   5.254  0.00  0.00    -0.245 OA
BRANCH   7   9
ATOM      9  O   UNL     1       0.857  -9.735   6.198  0.00  0.00    -0.450 OA
BRANCH   9  10
ATOM     10  C   UNL     1       0.861  -9.095   7.476  0.00  0.00    +0.244 C 
ATOM     11  C   UNL     1      -0.573  -8.995   8.001  0.00  0.00    +0.061 C 
BRANCH  10  12
ATOM     12  C   UNL     1       1.694  -9.901   8.439  0.00  0.00    +0.202 C 
ATOM     13  O   UNL     1       2.004 -11.042   8.166  0.00  0.00    -0.288 OA
BRANCH  12  14
ATOM     14  C   UNL     1       2.113  -9.329   9.659  0.00  0.00    +0.030 C 
ATOM     15  C   UNL     1       1.843  -8.053  10.121  0.00  0.00    +0.007 A 
ATOM     16  C   UNL     1       1.114  -6.968   9.580  0.00  0.00    +0.010 A 
ATOM     17  C   UNL     1       1.010  -5.808  10.266  0.00  0.00    +0.001 A 
ATOM     18  C   UNL     1       1.605  -5.620  11.524  0.00  0.00    +0.002 A 
ATOM     19  C   UNL     1       2.322  -6.592  12.128  0.00  0.00    +0.026 A 
ATOM     20  C   UNL     1       2.484  -7.888  11.449  0.00  0.00    +0.043 A 
ATOM     21  N   UNL     1       3.110  -8.978  11.792  0.00  0.00    -0.377 N 
ATOM     22  C   UNL     1       2.947  -9.984  10.738  0.00  0.00    +0.111 C 
ATOM     23  C   UNL     1       2.224 -11.215  11.287  0.00  0.00    +0.035 C 
ATOM     24  H   UNL     1       3.602  -9.105  12.618  0.00  0.00    +0.160 HD
ENDBRANCH  12  14
ENDBRANCH  10  12
ENDBRANCH   9  10
ENDBRANCH   7   9
ENDBRANCH   6   7
BRANCH   1  25
ATOM     25  S   UNL     1       0.446  -6.963   2.823  0.00  0.00    -0.115 S 
BRANCH  25  26
ATOM     26  C   UNL     1       0.309  -6.349   1.121  0.00  0.00    +0.170 C 
BRANCH  26  28
ATOM     27  N   UNL     1       0.059  -4.170  -0.021  0.00  0.00    -0.285 N 
ATOM     28  C   UNL     1       0.175  -4.848   1.138  0.00  0.00    +0.227 C 
ATOM     29  O   UNL     1       0.173  -4.251   2.193  0.00  0.00    -0.275 OA
ATOM     30  H   UNL     1      -0.017  -4.651  -0.860  0.00  0.00    +0.155 HD
BRANCH  27  35
ATOM     31  C   UNL     1       0.008   1.503   0.007  0.00  0.00    +0.044 C 
ATOM     32  C   UNL     1       0.022  -0.004  -0.001  0.00  0.00    -0.050 A 
ATOM     33  C   UNL     1       0.777  -0.692   0.931  0.00  0.00    +0.005 A 
ATOM     34  C   UNL     1       0.791  -2.073   0.927  0.00  0.00    +0.023 A 
ATOM     35  C   UNL     1       0.046  -2.771  -0.014  0.00  0.00    +0.033 A 
ATOM     36  C   UNL     1      -0.712  -2.077  -0.948  0.00  0.00    +0.023 A 
ATOM     37  C   UNL     1      -0.726  -0.696  -0.936  0.00  0.00    +0.005 A 
ENDBRANCH  27  35
ENDBRANCH  26  28
ENDBRANCH  25  26
ENDBRANCH   1  25
TORSDOF 9
