REMARK  Name = ZINC62099728
REMARK  6 active torsions:
REMARK  status: ('A' for Active; 'I' for Inactive)
REMARK    1  A    between atoms: C_1  and  C_2
REMARK    2  A    between atoms: C_2  and  C_3
REMARK    3  A    between atoms: C_3  and  C_5
REMARK    4  A    between atoms: C_3  and  N_22
REMARK    5  A    between atoms: C_5  and  C_7
REMARK    6  A    between atoms: C_5  and  N_14
REMARK                            x       y       z     vdW  Elec       q    Type
REMARK                         _______ _______ _______ _____ _____    ______ ____
ROOT
ATOM      1  C   UNL     1      -1.644  -2.170   0.177  0.00  0.00    +0.074 C 
ENDROOT
BRANCH   1   2
ATOM      2  N   UNL     1      -1.034  -2.884   1.307  0.00  0.00    -0.295 NA
ATOM      3  C   UNL     1      -1.100  -2.088   2.524  0.00  0.00    +0.094 C 
ATOM      4  C   UNL     1      -0.136  -2.634   3.581  0.00  0.00    +0.111 C 
ATOM      5  C   UNL     1      -0.826  -3.763   4.319  0.00  0.00    +0.214 C 
ATOM      6  O   UNL     1      -1.164  -3.615   5.475  0.00  0.00    -0.276 OA
ATOM      7  N   UNL     1      -1.062  -4.920   3.695  0.00  0.00    -0.314 N 
ATOM      8  C   UNL     1      -0.647  -5.103   2.294  0.00  0.00    +0.119 C 
ATOM      9  C   UNL     1      -1.548  -4.242   1.404  0.00  0.00    +0.103 C 
ATOM     10  H   UNL     1      -1.508  -5.642   4.166  0.00  0.00    +0.149 HD
ENDBRANCH   1   2
BRANCH   1  11
ATOM     11  C   UNL     1      -1.382  -2.929  -1.097  0.00  0.00    -0.018 A 
ATOM     12  C   UNL     1      -0.203  -3.632  -1.253  0.00  0.00    +0.006 A 
ATOM     13  C   UNL     1       0.038  -4.330  -2.422  0.00  0.00    +0.000 A 
ATOM     14  C   UNL     1      -0.902  -4.324  -3.437  0.00  0.00    +0.001 A 
ATOM     15  C   UNL     1      -2.082  -3.621  -3.282  0.00  0.00    +0.015 A 
ATOM     16  C   UNL     1      -2.325  -2.927  -2.110  0.00  0.00    +0.022 A 
ATOM     17 BR   UNL     1      -3.942  -1.971  -1.895  0.00  0.00    -0.050 Br
ENDBRANCH   1  11
BRANCH   1  18
ATOM     18  C   UNL     1      -1.037  -0.769   0.071  0.00  0.00    -0.053 C 
BRANCH  18  19
ATOM     19  N   UNL     1      -1.553  -0.102  -1.131  0.00  0.00    +0.381 N 
ATOM     20  H   UNL     1      -2.556  -0.014  -1.063  0.00  0.00    -0.090 HD
ATOM     21  H   UNL     1      -1.139   0.815  -1.210  0.00  0.00    -0.090 HD
ATOM     22  H   UNL     1      -1.317  -0.648  -1.947  0.00  0.00    -0.090 HD
ENDBRANCH  18  19
BRANCH  18  24
ATOM     23  C   UNL     1       1.102   0.520  -0.002  0.00  0.00    +0.002 C 
ATOM     24  C   UNL     1       0.486  -0.880  -0.021  0.00  0.00    -0.018 C 
ENDBRANCH  18  24
ENDBRANCH   1  18
TORSDOF 5
