REMARK  Name = ZINC36749345
REMARK  6 active torsions:
REMARK  status: ('A' for Active; 'I' for Inactive)
REMARK    1  A    between atoms: C_1  and  C_2
REMARK    2  A    between atoms: C_3  and  N_16
REMARK    3  A    between atoms: C_4  and  N_8
REMARK    4  A    between atoms: N_5  and  C_7
REMARK    5  A    between atoms: N_8  and  C_9
REMARK    6  A    between atoms: N_12  and  C_15
REMARK                            x       y       z     vdW  Elec       q    Type
REMARK                         _______ _______ _______ _____ _____    ______ ____
ROOT
ATOM      1  C   UNL     1      -0.120   1.481  -0.045  0.00  0.00    +0.069 C 
ATOM      2  C   UNL     1       0.053  -0.016  -0.060  0.00  0.00    +0.082 A 
ATOM      3  C   UNL     1       0.268  -0.804  -1.197  0.00  0.00    +0.087 A 
ATOM      4  C   UNL     1       0.373  -2.102  -0.791  0.00  0.00    +0.138 A 
ATOM      5  N   UNL     1       0.228  -2.119   0.562  0.00  0.00    -0.252 N 
ATOM      6  N   UNL     1       0.035  -0.799   0.990  0.00  0.00    -0.173 NA
ATOM      7  C   UNL     1       0.272  -3.306   1.419  0.00  0.00    +0.174 C 
ENDROOT
BRANCH   3   8
ATOM      8  N   UNL     1       0.358  -0.338  -2.529  0.00  0.00    -0.354 N 
ATOM      9  H   UNL     1       0.269   0.610  -2.718  0.00  0.00    +0.142 HD
ATOM     10  H   UNL     1       0.508  -0.965  -3.253  0.00  0.00    +0.142 HD
ENDBRANCH   3   8
BRANCH   4  11
ATOM     11  N   UNL     1       0.590  -3.210  -1.613  0.00  0.00    -0.325 N 
ATOM     12  H   UNL     1       0.578  -3.108  -2.578  0.00  0.00    +0.148 HD
BRANCH  11  13
ATOM     13  C   UNL     1       0.835  -4.527  -1.019  0.00  0.00    +0.068 C 
ATOM     14  C   UNL     1      -0.480  -5.307  -0.943  0.00  0.00    +0.003 C 
ATOM     15  C   UNL     1      -0.204  -6.709  -0.396  0.00  0.00    -0.077 C 
ATOM     16  N   UNL     1       0.732  -7.410  -1.283  0.00  0.00    +0.378 N 
ATOM     17  C   UNL     1       2.019  -6.706  -1.305  0.00  0.00    -0.077 C 
ATOM     18  C   UNL     1       1.829  -5.304  -1.887  0.00  0.00    +0.003 C 
ATOM     19  C   UNL     1       0.933  -8.781  -0.796  0.00  0.00    -0.096 C 
ATOM     20  H   UNL     1       0.350  -7.439  -2.217  0.00  0.00    -0.082 HD
ENDBRANCH  11  13
ENDBRANCH   4  11
TORSDOF 3
