REMARK  Name = ZINC66115472
REMARK  10 active torsions:
REMARK  status: ('A' for Active; 'I' for Inactive)
REMARK    1  A    between atoms: C_1  and  C_2
REMARK    2  A    between atoms: C_2  and  C_3
REMARK    3  A    between atoms: C_3  and  C_4
REMARK    4  A    between atoms: C_4  and  O_5
REMARK    5  A    between atoms: O_5  and  C_6
REMARK    6  A    between atoms: C_15  and  C_16
REMARK    7  A    between atoms: C_16  and  N_17
REMARK    8  A    between atoms: C_23  and  C_25
REMARK    9  A    between atoms: C_25  and  C_26
REMARK   10  A    between atoms: N_28  and  N_29
REMARK                            x       y       z     vdW  Elec       q    Type
REMARK                         _______ _______ _______ _____ _____    ______ ____
ROOT
ATOM      1  N   UNL     1       3.780  -3.083  -4.535  0.00  0.00    +0.391 N 
ATOM      2  C   UNL     1       3.715  -2.286  -3.301  0.00  0.00    -0.058 C 
ATOM      3  C   UNL     1       5.063  -2.376  -2.583  0.00  0.00    +0.085 C 
ATOM      4  N   UNL     1       6.144  -2.062  -3.514  0.00  0.00    -0.318 N 
ATOM      5  C   UNL     1       5.980  -2.085  -4.842  0.00  0.00    +0.200 C 
ATOM      6  O   UNL     1       6.933  -1.835  -5.550  0.00  0.00    -0.278 OA
ATOM      7  C   UNL     1       4.665  -2.407  -5.492  0.00  0.00    +0.028 C 
ATOM      8  H   UNL     1       7.014  -1.828  -3.156  0.00  0.00    +0.149 HD
ATOM      9  H   UNL     1       4.146  -4.001  -4.328  0.00  0.00    -0.080 HD
ENDROOT
BRANCH   1  10
ATOM     10  C   UNL     1       2.435  -3.209  -5.112  0.00  0.00    -0.038 C 
BRANCH  10  20
ATOM     11  C   UNL     1       0.839  -3.409  -3.210  0.00  0.00    +0.122 A 
ATOM     12  C   UNL     1       0.024  -4.150  -2.349  0.00  0.00    +0.046 A 
ATOM     13  C   UNL     1      -0.062  -5.503  -2.459  0.00  0.00    +0.012 A 
ATOM     14  C   UNL     1       0.677  -6.169  -3.452  0.00  0.00    -0.017 A 
ATOM     15  C   UNL     1       0.611  -7.566  -3.595  0.00  0.00    +0.008 A 
ATOM     16  C   UNL     1       1.340  -8.179  -4.567  0.00  0.00    +0.001 A 
ATOM     17  C   UNL     1       2.153  -7.442  -5.427  0.00  0.00    +0.001 A 
ATOM     18  C   UNL     1       2.242  -6.088  -5.319  0.00  0.00    +0.009 A 
ATOM     19  C   UNL     1       1.504  -5.420  -4.326  0.00  0.00    -0.013 A 
ATOM     20  C   UNL     1       1.567  -4.024  -4.189  0.00  0.00    -0.015 A 
BRANCH  11  21
ATOM     21  O   UNL     1       0.904  -2.058  -3.074  0.00  0.00    -0.492 OA
BRANCH  21  22
ATOM     22  C   UNL     1       0.121  -1.472  -2.033  0.00  0.00    +0.229 C 
BRANCH  22  23
ATOM     23  C   UNL     1       0.322   0.045  -2.035  0.00  0.00    +0.041 C 
BRANCH  23  25
ATOM     24  C   UNL     1      -0.316   2.189  -0.923  0.00  0.00    +0.004 C 
ATOM     25  C   UNL     1      -0.516   0.672  -0.920  0.00  0.00    -0.000 C 
ENDBRANCH  23  25
ENDBRANCH  22  23
ENDBRANCH  21  22
ENDBRANCH  11  21
ENDBRANCH  10  20
ENDBRANCH   1  10
BRANCH   7  26
ATOM     26  C   UNL     1       4.904  -3.320  -6.696  0.00  0.00    +0.091 C 
BRANCH  26  27
ATOM     27  C   UNL     1       5.662  -4.545  -6.254  0.00  0.00    +0.225 C 
ATOM     28  O   UNL     1       5.958  -4.687  -5.086  0.00  0.00    -0.275 OA
ATOM     29  N   UNL     1       6.012  -5.483  -7.156  0.00  0.00    -0.254 N 
ATOM     30  H   UNL     1       5.776  -5.370  -8.090  0.00  0.00    +0.169 HD
BRANCH  29  31
ATOM     31  N   UNL     1       6.700  -6.593  -6.756  0.00  0.00    -0.254 NA
ATOM     32  H   UNL     1       6.891  -7.202  -7.537  0.00  0.00    +0.140 HD
ATOM     33  H   UNL     1       7.552  -6.338  -6.280  0.00  0.00    +0.140 HD
ENDBRANCH  29  31
ENDBRANCH  26  27
ENDBRANCH   7  26
TORSDOF 9
