REMARK  Name = ZINC64885809
REMARK  8 active torsions:
REMARK  status: ('A' for Active; 'I' for Inactive)
REMARK    1  A    between atoms: C_1  and  C_2
REMARK    2  A    between atoms: N_8  and  C_9
REMARK    3  A    between atoms: C_12  and  C_15
REMARK    4  A    between atoms: N_17  and  N_18
REMARK    5  A    between atoms: N_21  and  C_22
REMARK    6  A    between atoms: C_22  and  C_23
REMARK    7  A    between atoms: C_23  and  C_24
REMARK    8  A    between atoms: C_24  and  N_25
REMARK                            x       y       z     vdW  Elec       q    Type
REMARK                         _______ _______ _______ _____ _____    ______ ____
ROOT
ATOM      1  C   UNL     1      -0.220   0.402   6.628  0.00  0.00    +0.260 C 
ATOM      2  O   UNL     1      -0.383   1.557   6.971  0.00  0.00    -0.269 OA
ATOM      3  N   UNL     1      -0.085  -0.565   7.557  0.00  0.00    -0.229 N 
ATOM      4  H   UNL     1       0.046  -1.486   7.283  0.00  0.00    +0.173 HD
ENDROOT
BRANCH   1   8
ATOM      5  C   UNL     1      -0.071  -0.586   2.499  0.00  0.00    +0.051 A 
ATOM      6  C   UNL     1      -0.259   0.736   2.890  0.00  0.00    +0.027 A 
ATOM      7  C   UNL     1      -0.308   1.060   4.228  0.00  0.00    +0.015 A 
ATOM      8  C   UNL     1      -0.168   0.059   5.193  0.00  0.00    +0.038 A 
ATOM      9  C   UNL     1       0.020  -1.268   4.796  0.00  0.00    +0.015 A 
ATOM     10  C   UNL     1       0.062  -1.585   3.457  0.00  0.00    +0.027 A 
BRANCH   5  18
ATOM     11  C   UNL     1       2.453  -1.634   1.043  0.00  0.00    +0.065 C 
ATOM     12  C   UNL     1       1.088  -1.382   0.456  0.00  0.00    +0.041 A 
ATOM     13  C   UNL     1       0.733  -1.577  -0.810  0.00  0.00    +0.109 A 
ATOM     14  N   UNL     1      -0.603  -1.226  -0.938  0.00  0.00    -0.312 N 
ATOM     15  H   UNL     1      -1.127  -1.267  -1.752  0.00  0.00    +0.170 HD
ATOM     16  C   UNL     1      -1.044  -0.818   0.269  0.00  0.00    +0.331 A 
ATOM     17  O   UNL     1      -2.172  -0.437   0.525  0.00  0.00    -0.246 OA
ATOM     18  N   UNL     1      -0.023  -0.910   1.142  0.00  0.00    -0.266 N 
ENDBRANCH   5  18
ENDBRANCH   1   8
BRANCH   3  19
ATOM     19  N   UNL     1      -0.133  -0.239   8.919  0.00  0.00    -0.218 N 
ATOM     20  C   UNL     1       0.002  -1.206   9.848  0.00  0.00    +0.316 C 
ATOM     21  O   UNL     1      -0.040  -0.923  11.030  0.00  0.00    -0.251 OA
ATOM     22  N   UNL     1       0.183  -2.486   9.467  0.00  0.00    -0.298 N 
ATOM     23  H   UNL     1      -0.264   0.682   9.193  0.00  0.00    +0.174 HD
ATOM     24  H   UNL     1       0.217  -2.711   8.525  0.00  0.00    +0.150 HD
BRANCH  22  25
ATOM     25  C   UNL     1       0.330  -3.536  10.478  0.00  0.00    +0.107 C 
BRANCH  25  26
ATOM     26  C   UNL     1       0.522  -4.887   9.785  0.00  0.00    +0.040 C 
BRANCH  26  27
ATOM     27  C   UNL     1       0.675  -5.984  10.840  0.00  0.00    +0.124 C 
BRANCH  27  28
ATOM     28  N   UNL     1       0.859  -7.277  10.177  0.00  0.00    -0.338 N 
ATOM     29  C   UNL     1      -0.130  -8.146   9.801  0.00  0.00    +0.104 A 
ATOM     30  C   UNL     1       0.476  -9.203   9.229  0.00  0.00    +0.101 A 
ATOM     31  N   UNL     1       1.800  -8.986   9.254  0.00  0.00    -0.352 N 
ATOM     32  C   UNL     1       2.036  -7.832   9.816  0.00  0.00    +0.173 A 
ATOM     33  H   UNL     1       2.474  -9.591   8.906  0.00  0.00    +0.166 HD
ENDBRANCH  27  28
ENDBRANCH  26  27
ENDBRANCH  25  26
ENDBRANCH  22  25
ENDBRANCH   3  19
TORSDOF 7
