REMARK  Name = ZINC45695628
REMARK  6 active torsions:
REMARK  status: ('A' for Active; 'I' for Inactive)
REMARK    1  A    between atoms: C_4  and  S_20
REMARK    2  A    between atoms: C_5  and  N_7
REMARK    3  A    between atoms: N_10  and  C_11
REMARK    4  A    between atoms: N_14  and  C_17
REMARK    5  A    between atoms: S_20  and  C_21
REMARK    6  A    between atoms: C_21  and  C_22
REMARK                            x       y       z     vdW  Elec       q    Type
REMARK                         _______ _______ _______ _____ _____    ______ ____
ROOT
ATOM      1  N   UNL     1       1.233  -2.083  -0.021  0.00  0.00    -0.268 N 
ATOM      2  C   UNL     1       0.082  -2.775   0.088  0.00  0.00    +0.304 C 
ATOM      3  O   UNL     1      -0.982  -2.186   0.102  0.00  0.00    -0.253 OA
ATOM      4  N   UNL     1       0.110  -4.119   0.181  0.00  0.00    -0.296 N 
ATOM      5  H   UNL     1       2.075  -2.554  -0.115  0.00  0.00    +0.156 HD
ATOM      6  H   UNL     1       0.958  -4.588   0.170  0.00  0.00    +0.151 HD
ENDROOT
BRANCH   4   7
ATOM      7  C   UNL     1      -1.142  -4.871   0.300  0.00  0.00    +0.071 C 
ATOM      8  C   UNL     1      -1.714  -5.136  -1.096  0.00  0.00    +0.004 C 
ATOM      9  C   UNL     1      -2.978  -5.990  -0.969  0.00  0.00    -0.077 C 
ATOM     10  N   UNL     1      -2.648  -7.266  -0.323  0.00  0.00    +0.382 N 
ATOM     11  C   UNL     1      -2.166  -7.024   1.042  0.00  0.00    -0.077 C 
ATOM     12  C   UNL     1      -0.871  -6.210   0.993  0.00  0.00    +0.004 C 
ATOM     13  H   UNL     1      -1.930  -7.735  -0.854  0.00  0.00    -0.081 HD
BRANCH  10  14
ATOM     14  C   UNL     1      -3.848  -8.113  -0.275  0.00  0.00    -0.069 C 
ATOM     15  C   UNL     1      -3.727  -9.541  -0.809  0.00  0.00    -0.017 C 
ATOM     16  C   UNL     1      -4.501  -8.489  -1.606  0.00  0.00    -0.017 C 
ENDBRANCH  10  14
ENDBRANCH   4   7
BRANCH   1  21
ATOM     17  C   UNL     1       0.154   1.372   0.642  0.00  0.00    +0.002 A 
ATOM     18  C   UNL     1       1.173   2.090   0.042  0.00  0.00    +0.001 A 
ATOM     19  C   UNL     1       2.215   1.430  -0.580  0.00  0.00    +0.016 A 
ATOM     20  C   UNL     1       2.241   0.042  -0.605  0.00  0.00    +0.030 A 
ATOM     21  C   UNL     1       1.213  -0.681   0.000  0.00  0.00    +0.048 A 
ATOM     22  C   UNL     1       0.172  -0.010   0.622  0.00  0.00    +0.024 A 
BRANCH  20  23
ATOM     23  S   UNL     1       3.568  -0.802  -1.398  0.00  0.00    -0.114 S 
BRANCH  23  24
ATOM     24  C   UNL     1       4.629   0.532  -2.019  0.00  0.00    +0.169 C 
BRANCH  24  25
ATOM     25  C   UNL     1       5.818  -0.062  -2.729  0.00  0.00    +0.221 C 
ATOM     26  O   UNL     1       5.939  -1.266  -2.809  0.00  0.00    -0.275 OA
ATOM     27  N   UNL     1       6.749   0.746  -3.276  0.00  0.00    -0.329 N 
ATOM     28  H   UNL     1       6.652   1.709  -3.213  0.00  0.00    +0.145 HD
ATOM     29  H   UNL     1       7.514   0.364  -3.733  0.00  0.00    +0.145 HD
ENDBRANCH  24  25
ENDBRANCH  23  24
ENDBRANCH  20  23
ENDBRANCH   1  21
TORSDOF 6
