REMARK  Name = ZINC12462569
REMARK  7 active torsions:
REMARK  status: ('A' for Active; 'I' for Inactive)
REMARK    1  A    between atoms: C_1  and  C_2
REMARK    2  A    between atoms: C_12  and  C_36
REMARK    3  A    between atoms: C_13  and  C_34
REMARK    4  A    between atoms: C_14  and  O_18
REMARK    5  A    between atoms: C_14  and  O_26
REMARK    6  A    between atoms: O_18  and  N_19
REMARK    7  A    between atoms: O_26  and  N_27
REMARK                            x       y       z     vdW  Elec       q    Type
REMARK                         _______ _______ _______ _____ _____    ______ ____
ROOT
ATOM      1  C   UNL     1      -0.038   1.492   0.013  0.00  0.00    +0.044 C 
ATOM      2  C   UNL     1      -0.021  -0.015   0.011  0.00  0.00    -0.050 A 
ATOM      3  C   UNL     1      -0.132  -0.708  -1.180  0.00  0.00    +0.005 A 
ATOM      4  C   UNL     1      -0.118  -2.087  -1.188  0.00  0.00    +0.024 A 
ATOM      5  C   UNL     1       0.010  -2.793   0.007  0.00  0.00    +0.038 A 
ATOM      6  C   UNL     1       0.121  -2.085   1.198  0.00  0.00    -0.007 A 
ATOM      7  C   UNL     1       0.112  -0.708   1.202  0.00  0.00    +0.010 A 
ATOM      8  C   UNL     1       0.240  -3.119   2.287  0.00  0.00    +0.130 C 
ATOM      9  C   UNL     1       0.184  -4.442   1.567  0.00  0.00    +0.232 C 
ATOM     10  O   UNL     1       0.246  -5.544   2.071  0.00  0.00    -0.274 OA
ATOM     11  N   UNL     1       0.050  -4.167   0.256  0.00  0.00    -0.284 N 
ATOM     12  C   UNL     1      -0.400  -2.923   3.655  0.00  0.00    +0.159 C 
ATOM     13  C   UNL     1       1.134  -2.906   3.502  0.00  0.00    +0.205 C 
ATOM     14  C   UNL     1       1.509  -1.467   3.902  0.00  0.00    +0.404 C 
ATOM     15  N   UNL     1       0.260  -0.783   4.231  0.00  0.00    -0.300 N 
ATOM     16  C   UNL     1      -0.771  -1.534   4.108  0.00  0.00    +0.095 C 
ATOM     17  N   UNL     1      -2.054  -1.125   4.357  0.00  0.00    -0.347 N 
ATOM     18  H   UNL     1      -0.012  -4.844  -0.436  0.00  0.00    +0.155 HD
ATOM     19  H   UNL     1      -2.792  -1.744   4.244  0.00  0.00    +0.143 HD
ATOM     20  H   UNL     1      -2.225  -0.215   4.646  0.00  0.00    +0.143 HD
ATOM     21  H   UNL     1       0.215   0.143   4.513  0.00  0.00    +0.168 HD
ENDROOT
BRANCH  13  22
ATOM     22  C   UNL     1       1.988  -4.005   3.983  0.00  0.00    +0.083 C 
ATOM     23  N   UNL     1       2.646  -4.853   4.354  0.00  0.00    -0.196 NA
ENDBRANCH  13  22
BRANCH  12  24
ATOM     24  C   UNL     1      -1.117  -4.049   4.277  0.00  0.00    +0.080 C 
ATOM     25  N   UNL     1      -1.669  -4.917   4.757  0.00  0.00    -0.195 NA
ENDBRANCH  12  24
BRANCH  14  26
ATOM     26  O   UNL     1       2.372  -1.485   5.041  0.00  0.00    -0.323 OA
BRANCH  26  27
ATOM     27  N   UNL     1       2.770  -0.200   5.482  0.00  0.00    -0.087 NA
ATOM     28  C   UNL     1       3.543  -0.082   6.494  0.00  0.00    +0.058 C 
ATOM     29  C   UNL     1       4.048  -1.302   7.231  0.00  0.00    +0.054 C 
ATOM     30  C   UNL     1       5.572  -1.201   7.355  0.00  0.00    +0.006 C 
ATOM     31  C   UNL     1       5.941   0.130   8.013  0.00  0.00    +0.001 C 
ATOM     32  C   UNL     1       5.503   1.290   7.118  0.00  0.00    +0.006 C 
ATOM     33  C   UNL     1       3.981   1.282   6.982  0.00  0.00    +0.054 C 
ENDBRANCH  26  27
ENDBRANCH  14  26
BRANCH  14  34
ATOM     34  O   UNL     1       2.154  -0.809   2.810  0.00  0.00    -0.323 OA
BRANCH  34  35
ATOM     35  N   UNL     1       3.292  -1.492   2.317  0.00  0.00    -0.087 NA
ATOM     36  C   UNL     1       4.019  -0.954   1.411  0.00  0.00    +0.058 C 
ATOM     37  C   UNL     1       3.624   0.364   0.782  0.00  0.00    +0.054 C 
ATOM     38  C   UNL     1       4.822   1.317   0.855  0.00  0.00    +0.006 C 
ATOM     39  C   UNL     1       6.040   0.652   0.213  0.00  0.00    +0.001 C 
ATOM     40  C   UNL     1       6.431  -0.594   1.010  0.00  0.00    +0.006 C 
ATOM     41  C   UNL     1       5.297  -1.616   0.946  0.00  0.00    +0.054 C 
ENDBRANCH  34  35
ENDBRANCH  14  34
TORSDOF 6
