REMARK  Name = ZINC36888112
REMARK  6 active torsions:
REMARK  status: ('A' for Active; 'I' for Inactive)
REMARK    1  A    between atoms: C_1  and  C_2
REMARK    2  A    between atoms: C_5  and  O_12
REMARK    3  A    between atoms: C_8  and  C_10
REMARK    4  A    between atoms: C_8  and  C_11
REMARK    5  A    between atoms: O_12  and  C_13
REMARK    6  A    between atoms: C_16  and  C_20
REMARK                            x       y       z     vdW  Elec       q    Type
REMARK                         _______ _______ _______ _____ _____    ______ ____
ROOT
ATOM      1  C   UNL     1      -3.380  -2.666  -1.185  0.00  0.00    +0.156 A 
ATOM      2  C   UNL     1      -2.682  -2.402  -2.357  0.00  0.00    +0.049 A 
ATOM      3  C   UNL     1      -3.314  -2.510  -3.577  0.00  0.00    +0.015 A 
ATOM      4  C   UNL     1      -4.657  -2.887  -3.635  0.00  0.00    +0.015 A 
ATOM      5  C   UNL     1      -5.357  -3.152  -2.456  0.00  0.00    +0.053 A 
ATOM      6  C   UNL     1      -4.717  -3.047  -1.238  0.00  0.00    +0.165 A 
ATOM      7  F   UNL     1      -5.390  -3.308  -0.097  0.00  0.00    -0.202 F 
ENDROOT
BRANCH   4   8
ATOM      8  C   UNL     1      -5.338  -3.003  -4.942  0.00  0.00    +0.094 C 
ATOM      9  N   UNL     1      -6.619  -3.363  -4.996  0.00  0.00    -0.387 N 
ATOM     10  N   UNL     1      -4.669  -2.749  -6.066  0.00  0.00    -0.345 N 
ATOM     11  H   UNL     1      -7.066  -3.439  -5.853  0.00  0.00    +0.157 HD
ATOM     12  H   UNL     1      -3.736  -2.487  -6.026  0.00  0.00    +0.144 HD
ATOM     13  H   UNL     1      -5.115  -2.826  -6.923  0.00  0.00    +0.144 HD
ATOM     14  H   UNL     1      -7.106  -3.548  -4.177  0.00  0.00    +0.157 HD
ENDBRANCH   4   8
BRANCH   1  15
ATOM     15  O   UNL     1      -2.753  -2.558   0.015  0.00  0.00    -0.486 OA
BRANCH  15  19
ATOM     16  C   UNL     1       0.605   1.019  -0.271  0.00  0.00    +0.007 C 
ATOM     17  C   UNL     1       0.378  -0.489  -0.152  0.00  0.00    -0.010 C 
ATOM     18  C   UNL     1      -1.124  -0.779  -0.128  0.00  0.00    +0.048 C 
ATOM     19  C   UNL     1      -1.350  -2.287  -0.008  0.00  0.00    +0.174 C 
ATOM     20  C   UNL     1      -0.712  -2.798   1.285  0.00  0.00    +0.051 C 
ATOM     21  C   UNL     1       0.791  -2.508   1.261  0.00  0.00    -0.031 C 
ATOM     22  C   UNL     1       1.017  -1.000   1.141  0.00  0.00    +0.010 C 
ATOM     23  C   UNL     1       1.429  -3.019   2.554  0.00  0.00    +0.011 C 
ATOM     24  C   UNL     1       1.427  -3.216   0.064  0.00  0.00    +0.011 C 
ENDBRANCH  15  19
ENDBRANCH   1  15
TORSDOF 3
