REMARK  Name = ZINC32605441
REMARK  5 active torsions:
REMARK  status: ('A' for Active; 'I' for Inactive)
REMARK    1  A    between atoms: C_1  and  C_2
REMARK    2  A    between atoms: C_4  and  C_12
REMARK    3  A    between atoms: N_14  and  N_15
REMARK    4  A    between atoms: C_16  and  C_18
REMARK    5  A    between atoms: C_27  and  N_28
REMARK                            x       y       z     vdW  Elec       q    Type
REMARK                         _______ _______ _______ _____ _____    ______ ____
ROOT
ATOM      1  N   UNL     1       3.796  -5.000  -0.811  0.00  0.00    -0.230 N 
ATOM      2  C   UNL     1       3.764  -6.296  -0.442  0.00  0.00    +0.263 C 
ATOM      3  O   UNL     1       2.699  -6.874  -0.343  0.00  0.00    -0.269 OA
ATOM      4  H   UNL     1       4.760  -4.478  -0.902  0.00  0.00    +0.173 HD
ENDROOT
BRANCH   2   5
ATOM      5  C   UNL     1       5.019  -7.013  -0.160  0.00  0.00    +0.075 A 
ATOM      6  C   UNL     1       6.244  -6.325  -0.158  0.00  0.00    +0.098 A 
ATOM      7  N   UNL     1       7.373  -6.936   0.090  0.00  0.00    -0.360 N 
ATOM      8  C   UNL     1       7.428  -8.249   0.354  0.00  0.00    +0.048 A 
ATOM      9  C   UNL     1       8.656  -8.878   0.617  0.00  0.00    +0.026 A 
ATOM     10  C   UNL     1       8.690 -10.214   0.883  0.00  0.00    +0.002 A 
ATOM     11  C   UNL     1       7.522 -10.972   0.901  0.00  0.00    +0.001 A 
ATOM     12  C   UNL     1       6.313 -10.395   0.651  0.00  0.00    +0.012 A 
ATOM     13  C   UNL     1       6.243  -9.022   0.373  0.00  0.00    +0.020 A 
ATOM     14  C   UNL     1       5.004  -8.388   0.114  0.00  0.00    +0.047 A 
ATOM     15  H   UNL     1       8.317  -6.371   0.085  0.00  0.00    +0.165 HD
BRANCH  14  16
ATOM     16  N   UNL     1       3.824  -9.098   0.127  0.00  0.00    -0.357 N 
ATOM     17  H   UNL     1       3.834 -10.177   0.345  0.00  0.00    +0.142 HD
ATOM     18  H   UNL     1       2.873  -8.588  -0.080  0.00  0.00    +0.142 HD
ENDBRANCH  14  16
ENDBRANCH   2   5
BRANCH   1  21
ATOM     19  C   UNL     1       2.634  -3.023  -1.449  0.00  0.00    +0.261 C 
ATOM     20  O   UNL     1       3.699  -2.446  -1.548  0.00  0.00    -0.269 OA
ATOM     21  N   UNL     1       2.602  -4.319  -1.080  0.00  0.00    -0.230 N 
ATOM     22  H   UNL     1       1.638  -4.841  -0.989  0.00  0.00    +0.173 HD
BRANCH  19  26
ATOM     23  C   UNL     1      -2.333  -2.988  -1.999  0.00  0.00    +0.065 C 
ATOM     24  C   UNL     1      -1.015  -2.257  -2.003  0.00  0.00    +0.040 A 
ATOM     25  C   UNL     1       0.153  -2.966  -1.731  0.00  0.00    +0.036 A 
ATOM     26  C   UNL     1       1.373  -2.303  -1.732  0.00  0.00    +0.049 A 
ATOM     27  C   UNL     1       1.370  -0.914  -2.014  0.00  0.00    +0.013 A 
ATOM     28  C   UNL     1       2.558  -0.171  -2.035  0.00  0.00    +0.011 A 
ATOM     29  C   UNL     1       2.514   1.163  -2.310  0.00  0.00    +0.001 A 
ATOM     30  C   UNL     1       1.303   1.798  -2.573  0.00  0.00    +0.002 A 
ATOM     31  C   UNL     1       0.131   1.108  -2.561  0.00  0.00    +0.028 A 
ATOM     32  C   UNL     1       0.136  -0.271  -2.280  0.00  0.00    +0.072 A 
ATOM     33  N   UNL     1      -1.000  -0.973  -2.262  0.00  0.00    -0.252 NA
ENDBRANCH  19  26
ENDBRANCH   1  21
TORSDOF 4
