REMARK  Name = ZINC02618839
REMARK  11 active torsions:
REMARK  status: ('A' for Active; 'I' for Inactive)
REMARK    1  A    between atoms: C_1  and  C_2
REMARK    2  A    between atoms: C_2  and  C_3
REMARK    3  A    between atoms: C_3  and  C_5
REMARK    4  A    between atoms: C_3  and  N_29
REMARK    5  A    between atoms: C_8  and  S_16
REMARK    6  A    between atoms: N_9  and  C_10
REMARK    7  A    between atoms: S_16  and  C_17
REMARK    8  A    between atoms: C_17  and  C_18
REMARK    9  A    between atoms: N_20  and  C_21
REMARK   10  A    between atoms: N_29  and  C_30
REMARK   11  A    between atoms: N_29  and  C_31
REMARK                            x       y       z     vdW  Elec       q    Type
REMARK                         _______ _______ _______ _____ _____    ______ ____
ROOT
ATOM      1  C   UNL     1       0.871   0.686   5.085  0.00  0.00    +0.125 A 
ATOM      2  N   UNL     1       1.465   0.245   4.012  0.00  0.00    -0.135 NA
ATOM      3  N   UNL     1       0.874   0.693   2.963  0.00  0.00    -0.122 NA
ATOM      4  C   UNL     1      -0.140   1.451   3.310  0.00  0.00    +0.197 A 
ATOM      5  N   UNL     1      -0.171   1.476   4.678  0.00  0.00    -0.275 N 
ENDROOT
BRANCH   5   6
ATOM      6  C   UNL     1      -1.082   2.164   5.492  0.00  0.00    +0.050 A 
ATOM      7  C   UNL     1      -0.642   3.194   6.312  0.00  0.00    +0.026 A 
ATOM      8  C   UNL     1      -1.542   3.874   7.109  0.00  0.00    +0.002 A 
ATOM      9  C   UNL     1      -2.879   3.522   7.099  0.00  0.00    +0.000 A 
ATOM     10  C   UNL     1      -3.320   2.493   6.287  0.00  0.00    +0.002 A 
ATOM     11  C   UNL     1      -2.425   1.813   5.484  0.00  0.00    +0.026 A 
ENDBRANCH   5   6
BRANCH   1  12
ATOM     12  C   UNL     1       1.261   0.387   6.510  0.00  0.00    +0.000 C 
BRANCH  12  13
ATOM     13  N   UNL     1       1.533  -1.049   6.652  0.00  0.00    +0.383 N 
ATOM     14  C   UNL     1       0.356  -1.847   6.283  0.00  0.00    -0.096 C 
ATOM     15  C   UNL     1       2.706  -1.444   5.859  0.00  0.00    -0.096 C 
ATOM     16  H   UNL     1       1.758  -1.248   7.710  0.00  0.00    -0.082 HD
ENDBRANCH  12  13
BRANCH  12  18
ATOM     17  C   UNL     1       2.876   0.931   8.337  0.00  0.00    +0.002 C 
ATOM     18  C   UNL     1       2.517   1.182   6.871  0.00  0.00    -0.011 C 
ENDBRANCH  12  18
ENDBRANCH   1  12
BRANCH   4  19
ATOM     19  S   UNL     1      -1.246   2.285   2.221  0.00  0.00    -0.076 S 
BRANCH  19  20
ATOM     20  C   UNL     1      -0.560   1.777   0.626  0.00  0.00    +0.173 C 
BRANCH  20  21
ATOM     21  C   UNL     1      -1.370   2.389  -0.488  0.00  0.00    +0.228 C 
ATOM     22  O   UNL     1      -2.318   3.099  -0.228  0.00  0.00    -0.275 OA
ATOM     23  N   UNL     1      -1.040   2.147  -1.772  0.00  0.00    -0.283 N 
ATOM     24  H   UNL     1      -0.135   1.570  -2.009  0.00  0.00    +0.155 HD
BRANCH  23  25
ATOM     25  C   UNL     1      -1.852   2.631  -2.806  0.00  0.00    +0.069 A 
ATOM     26  C   UNL     1      -2.513   3.843  -2.662  0.00  0.00    +0.027 A 
ATOM     27  C   UNL     1      -3.313   4.318  -3.683  0.00  0.00    +0.017 A 
ATOM     28  C   UNL     1      -3.456   3.588  -4.850  0.00  0.00    +0.021 A 
ATOM     29  C   UNL     1      -2.799   2.380  -4.998  0.00  0.00    +0.055 A 
ATOM     30  C   UNL     1      -1.992   1.901  -3.982  0.00  0.00    +0.146 A 
ATOM     31  F   UNL     1      -1.346   0.724  -4.128  0.00  0.00    -0.204 F 
ATOM     32 BR   UNL     1      -4.552   4.243  -6.245  0.00  0.00    -0.050 Br
ENDBRANCH  23  25
ENDBRANCH  20  21
ENDBRANCH  19  20
ENDBRANCH   4  19
TORSDOF 8
