REMARK  Name = ZINC09469262
REMARK  11 active torsions:
REMARK  status: ('A' for Active; 'I' for Inactive)
REMARK    1  A    between atoms: C_1  and  C_2
REMARK    2  A    between atoms: C_2  and  C_3
REMARK    3  A    between atoms: C_3  and  C_5
REMARK    4  A    between atoms: C_3  and  N_6
REMARK    5  A    between atoms: C_10  and  C_12
REMARK    6  A    between atoms: C_12  and  S_13
REMARK    7  A    between atoms: S_13  and  C_14
REMARK    8  A    between atoms: C_17  and  C_26
REMARK    9  A    between atoms: N_18  and  C_19
REMARK   10  A    between atoms: C_26  and  C_28
REMARK   11  A    between atoms: C_26  and  N_63
REMARK                            x       y       z     vdW  Elec       q    Type
REMARK                         _______ _______ _______ _____ _____    ______ ____
ROOT
ATOM      1  C   UNL     1       7.695   1.438  -0.549  0.00  0.00    +0.197 A 
ATOM      2  N   UNL     1       7.487   0.143  -0.489  0.00  0.00    -0.122 NA
ATOM      3  N   UNL     1       8.604  -0.473  -0.331  0.00  0.00    -0.135 NA
ATOM      4  C   UNL     1       9.585   0.384  -0.281  0.00  0.00    +0.125 A 
ATOM      5  N   UNL     1       9.042   1.633  -0.423  0.00  0.00    -0.275 N 
ENDROOT
BRANCH   5   6
ATOM      6  C   UNL     1       9.726   2.859  -0.434  0.00  0.00    +0.050 A 
ATOM      7  C   UNL     1      10.621   3.146  -1.456  0.00  0.00    +0.029 A 
ATOM      8  C   UNL     1      11.288   4.355  -1.468  0.00  0.00    +0.040 A 
ATOM      9  C   UNL     1      11.075   5.275  -0.456  0.00  0.00    +0.124 A 
ATOM     10  C   UNL     1      10.188   4.988   0.568  0.00  0.00    +0.040 A 
ATOM     11  C   UNL     1       9.514   3.782   0.580  0.00  0.00    +0.029 A 
ATOM     12  F   UNL     1      11.733   6.455  -0.466  0.00  0.00    -0.205 F 
ENDBRANCH   5   6
BRANCH   4  13
ATOM     13  C   UNL     1      11.046   0.059  -0.105  0.00  0.00    -0.002 C 
ATOM     14  C   UNL     1      11.305  -0.359   1.344  0.00  0.00    -0.005 C 
BRANCH  13  20
ATOM     15  C   UNL     1      12.842  -1.365  -0.882  0.00  0.00    -0.078 C 
ATOM     16  C   UNL     1      13.159  -2.605  -1.722  0.00  0.00    -0.019 C 
ATOM     17  C   UNL     1      12.804  -2.328  -3.186  0.00  0.00    -0.004 C 
ATOM     18  C   UNL     1      11.324  -1.945  -3.280  0.00  0.00    -0.019 C 
ATOM     19  C   UNL     1      11.061  -0.725  -2.395  0.00  0.00    -0.078 C 
ATOM     20  N   UNL     1      11.399  -1.065  -0.997  0.00  0.00    +0.386 N 
ATOM     21  H   UNL     1      10.863  -1.894  -0.716  0.00  0.00    -0.081 HD
ENDBRANCH  13  20
ENDBRANCH   4  13
BRANCH   1  22
ATOM     22  S   UNL     1       6.470   2.687  -0.759  0.00  0.00    -0.076 S 
BRANCH  22  23
ATOM     23  C   UNL     1       4.984   1.657  -0.852  0.00  0.00    +0.173 C 
BRANCH  23  28
ATOM     24  N   UNL     1       0.240   2.220  -1.395  0.00  0.00    -0.297 N 
ATOM     25  C   UNL     1       1.466   2.772  -1.299  0.00  0.00    +0.306 C 
ATOM     26  O   UNL     1       1.596   3.978  -1.362  0.00  0.00    -0.252 OA
ATOM     27  N   UNL     1       2.548   1.985  -1.133  0.00  0.00    -0.239 N 
ATOM     28  C   UNL     1       3.774   2.537  -1.037  0.00  0.00    +0.231 C 
ATOM     29  O   UNL     1       3.904   3.741  -1.100  0.00  0.00    -0.274 OA
ATOM     30  H   UNL     1       0.137   1.257  -1.345  0.00  0.00    +0.151 HD
ATOM     31  H   UNL     1       2.445   1.022  -1.083  0.00  0.00    +0.159 HD
BRANCH  24  32
ATOM     32  C   UNL     1      -0.935   3.075  -1.581  0.00  0.00    +0.071 C 
ATOM     33  C   UNL     1      -1.429   3.565  -0.219  0.00  0.00    +0.028 C 
BRANCH  32  35
ATOM     34  C   UNL     1      -1.595   1.890  -3.679  0.00  0.00    +0.005 C 
ATOM     35  C   UNL     1      -2.043   2.275  -2.268  0.00  0.00    +0.019 C 
ENDBRANCH  32  35
ENDBRANCH  24  32
ENDBRANCH  23  28
ENDBRANCH  22  23
ENDBRANCH   1  22
TORSDOF 8
