REMARK  Name = ZINC04293577
REMARK  7 active torsions:
REMARK  status: ('A' for Active; 'I' for Inactive)
REMARK    1  A    between atoms: C_1  and  C_2
REMARK    2  A    between atoms: C_2  and  O_3
REMARK    3  A    between atoms: O_3  and  C_4
REMARK    4  A    between atoms: C_4  and  C_6
REMARK    5  A    between atoms: C_7  and  N_29
REMARK    6  A    between atoms: C_20  and  C_22
REMARK    7  A    between atoms: C_30  and  C_32
REMARK                            x       y       z     vdW  Elec       q    Type
REMARK                         _______ _______ _______ _____ _____    ______ ____
ROOT
ATOM      1  C   UNL     1       2.255   1.530   0.346  0.00  0.00    +0.106 C 
ATOM      2  C   UNL     1       1.043   2.022  -0.011  0.00  0.00    +0.204 C 
ATOM      3  O   UNL     1      -0.061   1.256   0.015  0.00  0.00    -0.440 OA
ATOM      4  C   UNL     1       0.050  -0.086   0.020  0.00  0.00    +0.152 A 
ATOM      5  C   UNL     1      -1.093  -0.925  -0.370  0.00  0.00    +0.060 A 
ATOM      6  C   UNL     1      -2.309  -0.354  -0.753  0.00  0.00    +0.015 A 
ATOM      7  C   UNL     1      -3.360  -1.168  -1.112  0.00  0.00    +0.001 A 
ATOM      8  C   UNL     1      -3.214  -2.548  -1.095  0.00  0.00    +0.004 A 
ATOM      9  C   UNL     1      -2.019  -3.124  -0.718  0.00  0.00    +0.047 A 
ATOM     10  C   UNL     1      -0.947  -2.321  -0.352  0.00  0.00    +0.143 A 
ATOM     11  O   UNL     1       0.231  -2.867   0.018  0.00  0.00    -0.422 OA
ATOM     12  C   UNL     1       1.280  -2.108   0.373  0.00  0.00    +0.345 A 
ATOM     13  O   UNL     1       2.321  -2.652   0.698  0.00  0.00    -0.245 OA
ATOM     14  C   UNL     1       1.210  -0.704   0.381  0.00  0.00    +0.092 A 
ATOM     15  C   UNL     1       2.414   0.102   0.788  0.00  0.00    +0.101 C 
ENDROOT
BRANCH  15  16
ATOM     16  C   UNL     1       2.562   0.057   2.287  0.00  0.00    -0.035 A 
ATOM     17  C   UNL     1       1.550   0.540   3.096  0.00  0.00    +0.005 A 
ATOM     18  C   UNL     1       1.683   0.494   4.471  0.00  0.00    +0.015 A 
ATOM     19  C   UNL     1       2.833  -0.026   5.038  0.00  0.00    +0.018 A 
ATOM     20  C   UNL     1       3.847  -0.504   4.228  0.00  0.00    +0.015 A 
ATOM     21  C   UNL     1       3.711  -0.463   2.853  0.00  0.00    +0.005 A 
ATOM     22 BR   UNL     1       3.019  -0.081   6.919  0.00  0.00    -0.050 Br
ENDBRANCH  15  16
BRANCH   2  23
ATOM     23  N   UNL     1       0.941   3.334  -0.407  0.00  0.00    -0.249 N 
ATOM     24  C   UNL     1      -0.269   3.869  -0.661  0.00  0.00    +0.286 C 
ATOM     25  O   UNL     1      -1.272   3.191  -0.539  0.00  0.00    -0.266 OA
ATOM     26  H   UNL     1       1.741   3.874  -0.505  0.00  0.00    +0.158 HD
BRANCH  24  27
ATOM     27  C   UNL     1      -0.378   5.268  -1.084  0.00  0.00    +0.189 A 
ATOM     28  C   UNL     1      -1.536   5.930  -1.377  0.00  0.00    +0.054 A 
ATOM     29  C   UNL     1      -1.174   7.239  -1.731  0.00  0.00    +0.042 A 
ATOM     30  C   UNL     1       0.173   7.315  -1.649  0.00  0.00    +0.196 A 
ATOM     31  O   UNL     1       0.649   6.126  -1.258  0.00  0.00    -0.458 OA
ENDBRANCH  24  27
ENDBRANCH   2  23
BRANCH   1  32
ATOM     32  C   UNL     1       3.382   2.370   0.303  0.00  0.00    +0.341 C 
ATOM     33  O   UNL     1       4.196   2.250  -0.595  0.00  0.00    -0.245 OA
BRANCH  32  34
ATOM     34  O   UNL     1       3.562   3.309   1.257  0.00  0.00    -0.462 OA
BRANCH  34  36
ATOM     35  C   UNL     1       4.760   5.123   2.310  0.00  0.00    +0.048 C 
ATOM     36  C   UNL     1       4.728   4.127   1.150  0.00  0.00    +0.229 C 
ENDBRANCH  34  36
ENDBRANCH  32  34
ENDBRANCH   1  32
TORSDOF 6
