REMARK  Name = ZINC56159684
REMARK  12 active torsions:
REMARK  status: ('A' for Active; 'I' for Inactive)
REMARK    1  A    between atoms: C_1  and  C_2
REMARK    2  A    between atoms: C_2  and  C_4
REMARK    3  A    between atoms: C_2  and  N_17
REMARK    4  A    between atoms: C_7  and  N_10
REMARK    5  A    between atoms: N_13  and  C_14
REMARK    6  A    between atoms: N_17  and  C_18
REMARK    7  A    between atoms: C_18  and  C_20
REMARK    8  A    between atoms: C_18  and  C_21
REMARK    9  A    between atoms: N_26  and  C_27
REMARK   10  A    between atoms: C_27  and  C_28
REMARK   11  A    between atoms: C_27  and  C_29
REMARK   12  A    between atoms: C_27  and  C_30
REMARK                            x       y       z     vdW  Elec       q    Type
REMARK                         _______ _______ _______ _____ _____    ______ ____
ROOT
ATOM      1  C   UNL     1       0.646   1.581  -0.035  0.00  0.00    +0.029 C 
ATOM      2  C   UNL     1       0.590   0.052  -0.056  0.00  0.00    +0.081 C 
ENDROOT
BRANCH   2   3
ATOM      3  C   UNL     1      -0.827  -0.402   0.183  0.00  0.00    -0.031 A 
ATOM      4  C   UNL     1      -1.335  -0.430   1.468  0.00  0.00    +0.007 A 
ATOM      5  C   UNL     1      -2.634  -0.845   1.691  0.00  0.00    +0.023 A 
ATOM      6  C   UNL     1      -3.429  -1.235   0.622  0.00  0.00    +0.035 A 
ATOM      7  C   UNL     1      -2.916  -1.206  -0.668  0.00  0.00    +0.023 A 
ATOM      8  C   UNL     1      -1.619  -0.784  -0.885  0.00  0.00    +0.007 A 
BRANCH   6   9
ATOM      9  N   UNL     1      -4.745  -1.657   0.844  0.00  0.00    -0.269 N 
ATOM     10  C   UNL     1      -5.481  -1.084   1.817  0.00  0.00    +0.304 C 
ATOM     11  O   UNL     1      -4.978  -0.258   2.553  0.00  0.00    -0.253 OA
ATOM     12  N   UNL     1      -6.775  -1.427   1.973  0.00  0.00    -0.296 N 
ATOM     13  H   UNL     1      -5.127  -2.361   0.297  0.00  0.00    +0.156 HD
ATOM     14  H   UNL     1      -7.176  -2.086   1.385  0.00  0.00    +0.151 HD
BRANCH  12  15
ATOM     15  C   UNL     1      -7.575  -0.805   3.030  0.00  0.00    +0.075 C 
ATOM     16  C   UNL     1      -8.488  -1.715   3.854  0.00  0.00    +0.024 C 
ATOM     17  C   UNL     1      -9.091  -0.751   2.830  0.00  0.00    +0.024 C 
ENDBRANCH  12  15
ENDBRANCH   6   9
ENDBRANCH   2   3
BRANCH   2  18
ATOM     18  N   UNL     1       1.460  -0.485   0.998  0.00  0.00    -0.299 NA
ATOM     19  H   UNL     1       2.205   0.160   1.215  0.00  0.00    +0.123 HD
BRANCH  18  20
ATOM     20  C   UNL     1       1.995  -1.800   0.620  0.00  0.00    +0.138 C 
ATOM     21  C   UNL     1       3.315  -1.616  -0.133  0.00  0.00    +0.034 C 
BRANCH  20  22
ATOM     22  C   UNL     1       2.235  -2.620   1.861  0.00  0.00    +0.237 C 
ATOM     23  O   UNL     1       1.985  -2.156   2.953  0.00  0.00    -0.274 OA
ATOM     24  N   UNL     1       2.728  -3.871   1.758  0.00  0.00    -0.239 N 
ATOM     25  C   UNL     1       2.942  -4.604   2.868  0.00  0.00    +0.306 C 
ATOM     26  O   UNL     1       2.691  -4.139   3.962  0.00  0.00    -0.252 OA
ATOM     27  N   UNL     1       3.434  -5.855   2.764  0.00  0.00    -0.294 N 
ATOM     28  H   UNL     1       2.928  -4.242   0.884  0.00  0.00    +0.159 HD
ATOM     29  H   UNL     1       3.635  -6.226   1.891  0.00  0.00    +0.151 HD
BRANCH  27  30
ATOM     30  C   UNL     1       3.667  -6.652   3.970  0.00  0.00    +0.028 C 
ATOM     31  C   UNL     1       2.348  -6.836   4.723  0.00  0.00    +0.031 C 
ATOM     32  C   UNL     1       4.225  -8.022   3.577  0.00  0.00    +0.031 C 
ATOM     33  C   UNL     1       4.672  -5.933   4.872  0.00  0.00    +0.031 C 
ENDBRANCH  27  30
ENDBRANCH  20  22
ENDBRANCH  18  20
ENDBRANCH   2  18
TORSDOF 7
