REMARK  Name = ZINC08855928
REMARK  7 active torsions:
REMARK  status: ('A' for Active; 'I' for Inactive)
REMARK    1  A    between atoms: C_1  and  S_2
REMARK    2  A    between atoms: S_2  and  N_5
REMARK    3  A    between atoms: N_5  and  C_6
REMARK    4  A    between atoms: C_11  and  C_12
REMARK    5  A    between atoms: C_11  and  N_43
REMARK    6  A    between atoms: N_14  and  C_15
REMARK    7  A    between atoms: C_16  and  C_20
REMARK                            x       y       z     vdW  Elec       q    Type
REMARK                         _______ _______ _______ _____ _____    ______ ____
ROOT
ATOM      1  C   UNL     1       5.811   0.854  -3.674  0.00  0.00    +0.019 C 
ENDROOT
BRANCH   1   7
ATOM      2  C   UNL     1       2.207  -0.061  -1.563  0.00  0.00    +0.073 C 
ATOM      3  C   UNL     1       2.319   1.261  -2.326  0.00  0.00    +0.002 C 
ATOM      4  C   UNL     1       3.796   1.591  -2.553  0.00  0.00    -0.077 C 
ATOM      5  C   UNL     1       4.375  -0.762  -2.584  0.00  0.00    -0.077 C 
ATOM      6  C   UNL     1       2.916  -1.162  -2.358  0.00  0.00    +0.002 C 
ATOM      7  N   UNL     1       4.414   0.505  -3.344  0.00  0.00    +0.385 N 
ATOM      8  H   UNL     1       3.885   0.386  -4.216  0.00  0.00    -0.081 HD
BRANCH   2   9
ATOM      9  N   UNL     1       0.795  -0.411  -1.394  0.00  0.00    -0.192 NA
ATOM     10  H   UNL     1       0.324  -0.881  -2.099  0.00  0.00    +0.148 HD
BRANCH   9  12
ATOM     11  C   UNL     1      -0.022   1.810   0.012  0.00  0.00    +0.214 C 
ATOM     12  S   UNL     1       0.002  -0.004   0.002  0.00  0.00    +0.027 S 
ATOM     13  O   UNL     1       0.835  -0.488   1.046  0.00  0.00    -0.158 OA
ATOM     14  O   UNL     1      -1.315  -0.510  -0.168  0.00  0.00    -0.158 OA
ENDBRANCH   9  12
ENDBRANCH   2   9
ENDBRANCH   1   7
BRANCH   1  15
ATOM     15  C   UNL     1       5.808   2.020  -4.628  0.00  0.00    +0.201 C 
ATOM     16  O   UNL     1       4.758   2.515  -4.977  0.00  0.00    -0.278 OA
ATOM     17  N   UNL     1       6.973   2.513  -5.093  0.00  0.00    -0.281 N 
ATOM     18  H   UNL     1       7.813   2.118  -4.814  0.00  0.00    +0.155 HD
BRANCH  17  19
ATOM     19  C   UNL     1       6.970   3.587  -5.971  0.00  0.00    +0.084 A 
ATOM     20  C   UNL     1       8.057   4.232  -6.549  0.00  0.00    +0.065 A 
ATOM     21  C   UNL     1       7.762   5.330  -7.439  0.00  0.00    +0.022 A 
ATOM     22  C   UNL     1       6.466   5.640  -7.623  0.00  0.00    +0.048 A 
ATOM     23  S   UNL     1       5.612   4.453  -6.607  0.00  0.00    -0.081 S 
BRANCH  20  24
ATOM     24  C   UNL     1       9.435   3.815  -6.272  0.00  0.00    +0.244 C 
ATOM     25  O   UNL     1       9.650   2.883  -5.519  0.00  0.00    -0.270 OA
ATOM     26  N   UNL     1      10.465   4.465  -6.851  0.00  0.00    -0.325 N 
ATOM     27  H   UNL     1      10.294   5.208  -7.451  0.00  0.00    +0.145 HD
ATOM     28  H   UNL     1      11.377   4.189  -6.668  0.00  0.00    +0.145 HD
ENDBRANCH  20  24
ENDBRANCH  17  19
ENDBRANCH   1  15
TORSDOF 6
