REMARK  Name = ZINC09805243
REMARK  12 active torsions:
REMARK  status: ('A' for Active; 'I' for Inactive)
REMARK    1  A    between atoms: C_1  and  O_2
REMARK    2  A    between atoms: O_2  and  C_3
REMARK    3  A    between atoms: C_7  and  C_11
REMARK    4  A    between atoms: C_8  and  O_9
REMARK    5  A    between atoms: O_9  and  C_10
REMARK    6  A    between atoms: C_16  and  C_21
REMARK    7  A    between atoms: C_23  and  O_31
REMARK    8  A    between atoms: C_24  and  O_29
REMARK    9  A    between atoms: C_25  and  O_27
REMARK   10  A    between atoms: O_27  and  C_28
REMARK   11  A    between atoms: O_29  and  C_30
REMARK   12  A    between atoms: O_31  and  C_32
REMARK                            x       y       z     vdW  Elec       q    Type
REMARK                         _______ _______ _______ _____ _____    ______ ____
ROOT
ATOM      1  C   UNL     1      -2.965   2.813   0.108  0.00  0.00    +0.140 C 
ATOM      2  C   UNL     1      -3.833   2.112   1.126  0.00  0.00    +0.037 C 
ATOM      3  C   UNL     1      -5.098   2.429   1.438  0.00  0.00    +0.017 C 
ATOM      4  C   UNL     1      -5.843   1.656   2.514  0.00  0.00    +0.059 C 
ATOM      5  C   UNL     1      -5.387   0.198   2.517  0.00  0.00    +0.032 C 
ATOM      6  C   UNL     1      -3.880   0.181   2.799  0.00  0.00    +0.088 C 
ATOM      7  C   UNL     1      -3.191   1.024   1.769  0.00  0.00    +0.163 C 
ATOM      8  O   UNL     1      -2.040   0.767   1.476  0.00  0.00    -0.292 OA
ATOM      9  N   UNL     1      -5.810   3.433   0.866  0.00  0.00    -0.316 N 
ATOM     10  C   UNL     1      -5.336   4.724   0.663  0.00  0.00    +0.052 A 
ATOM     11  C   UNL     1      -5.923   5.827   1.258  0.00  0.00    +0.025 A 
ATOM     12  C   UNL     1      -5.473   7.095   0.930  0.00  0.00    +0.002 A 
ATOM     13  C   UNL     1      -4.446   7.256   0.018  0.00  0.00    +0.002 A 
ATOM     14  C   UNL     1      -3.844   6.152  -0.562  0.00  0.00    +0.025 A 
ATOM     15  C   UNL     1      -4.281   4.882  -0.223  0.00  0.00    +0.049 A 
ATOM     16  N   UNL     1      -3.677   3.740  -0.746  0.00  0.00    -0.331 N 
ATOM     17  H   UNL     1      -6.715   3.235   0.578  0.00  0.00    +0.152 HD
ATOM     18  H   UNL     1      -3.734   3.564  -1.698  0.00  0.00    +0.147 HD
ENDROOT
BRANCH   1  23
ATOM     19  C   UNL     1       0.292   4.585   0.871  0.00  0.00    +0.162 A 
ATOM     20  C   UNL     1       0.095   4.959   2.191  0.00  0.00    +0.049 A 
ATOM     21  C   UNL     1      -1.086   4.633   2.832  0.00  0.00    +0.004 A 
ATOM     22  C   UNL     1      -2.074   3.939   2.158  0.00  0.00    +0.009 A 
ATOM     23  C   UNL     1      -1.886   3.569   0.840  0.00  0.00    +0.023 A 
ATOM     24  C   UNL     1      -0.705   3.893   0.191  0.00  0.00    +0.167 A 
BRANCH  19  26
ATOM     25  C   UNL     1       2.433   5.613   1.001  0.00  0.00    +0.277 C 
ATOM     26  O   UNL     1       1.455   4.901   0.241  0.00  0.00    -0.491 OA
ENDBRANCH  19  26
BRANCH  24  27
ATOM     27  O   UNL     1      -0.518   3.529  -1.106  0.00  0.00    -0.491 OA
ATOM     28  C   UNL     1      -0.941   4.457  -2.107  0.00  0.00    +0.277 C 
ENDBRANCH  24  27
ENDBRANCH   1  23
BRANCH   5  29
ATOM     29  C   UNL     1      -6.116  -0.563   3.594  0.00  0.00    -0.036 A 
ATOM     30  C   UNL     1      -5.989  -0.180   4.916  0.00  0.00    +0.053 A 
ATOM     31  C   UNL     1      -6.663  -0.874   5.909  0.00  0.00    +0.165 A 
ATOM     32  C   UNL     1      -7.459  -1.964   5.575  0.00  0.00    +0.204 A 
ATOM     33  C   UNL     1      -7.580  -2.349   4.245  0.00  0.00    +0.165 A 
ATOM     34  C   UNL     1      -6.906  -1.646   3.257  0.00  0.00    +0.053 A 
BRANCH  33  35
ATOM     35  O   UNL     1      -8.358  -3.414   3.913  0.00  0.00    -0.491 OA
ATOM     36  C   UNL     1      -8.436  -3.753   2.527  0.00  0.00    +0.277 C 
ENDBRANCH  33  35
BRANCH  32  37
ATOM     37  O   UNL     1      -8.118  -2.650   6.547  0.00  0.00    -0.488 OA
ATOM     38  C   UNL     1      -7.431  -3.752   7.144  0.00  0.00    +0.277 C 
ENDBRANCH  32  37
BRANCH  31  39
ATOM     39  O   UNL     1      -6.542  -0.493   7.209  0.00  0.00    -0.491 OA
ATOM     40  C   UNL     1      -5.707   0.635   7.479  0.00  0.00    +0.277 C 
ENDBRANCH  31  39
ENDBRANCH   5  29
TORSDOF 7
