REMARK  Name = ZINC42529221
REMARK  11 active torsions:
REMARK  status: ('A' for Active; 'I' for Inactive)
REMARK    1  A    between atoms: C_1  and  C_2
REMARK    2  A    between atoms: C_2  and  C_3
REMARK    3  A    between atoms: C_2  and  N_4
REMARK    4  A    between atoms: N_4  and  C_5
REMARK    5  A    between atoms: N_4  and  C_11
REMARK    6  A    between atoms: C_5  and  C_6
REMARK    7  A    between atoms: C_6  and  C_7
REMARK    8  A    between atoms: N_8  and  O_9
REMARK    9  A    between atoms: C_11  and  C_12
REMARK   10  A    between atoms: C_17  and  O_18
REMARK   11  A    between atoms: O_18  and  C_19
REMARK                            x       y       z     vdW  Elec       q    Type
REMARK                         _______ _______ _______ _____ _____    ______ ____
ROOT
ATOM      1  N   UNL     1      -2.308  -0.611   0.031  0.00  0.00    +0.384 N 
ATOM      2  H   UNL     1      -3.053  -0.633   0.711  0.00  0.00    -0.081 HD
ENDROOT
BRANCH   1   4
ATOM      3  C   UNL     1      -0.822  -0.235   1.941  0.00  0.00    -0.014 C 
ATOM      4  C   UNL     1      -1.211   0.226   0.534  0.00  0.00    -0.074 C 
ATOM      5  C   UNL     1      -0.003   0.098  -0.396  0.00  0.00    -0.014 C 
ENDBRANCH   1   4
BRANCH   1   6
ATOM      6  C   UNL     1      -2.812  -0.050  -1.230  0.00  0.00    -0.070 C 
BRANCH   6   7
ATOM      7  C   UNL     1      -3.360   1.356  -0.980  0.00  0.00    +0.056 C 
BRANCH   7   8
ATOM      8  C   UNL     1      -3.959   1.896  -2.253  0.00  0.00    +0.130 C 
ATOM      9  N   UNL     1      -3.948   1.179  -3.327  0.00  0.00    -0.077 NA
ATOM     10  N   UNL     1      -4.518   3.155  -2.272  0.00  0.00    -0.344 N 
ATOM     11  H   UNL     1      -4.527   3.693  -1.465  0.00  0.00    +0.143 HD
ATOM     12  H   UNL     1      -4.904   3.502  -3.091  0.00  0.00    +0.143 HD
BRANCH   9  13
ATOM     13  O   UNL     1      -4.510   1.686  -4.523  0.00  0.00    -0.408 OA
ATOM     14  H   UNL     1      -4.455   1.077  -5.273  0.00  0.00    +0.328 HD
ENDBRANCH   9  13
ENDBRANCH   7   8
ENDBRANCH   6   7
ENDBRANCH   1   6
BRANCH   1  15
ATOM     15  C   UNL     1      -1.816  -1.975  -0.202  0.00  0.00    -0.039 C 
BRANCH  15  16
ATOM     16  C   UNL     1      -1.509  -2.631   1.119  0.00  0.00    -0.021 A 
ATOM     17  C   UNL     1      -0.257  -3.167   1.351  0.00  0.00    +0.020 A 
ATOM     18  C   UNL     1       0.025  -3.769   2.564  0.00  0.00    +0.018 A 
ATOM     19  C   UNL     1      -0.946  -3.836   3.548  0.00  0.00    +0.019 A 
ATOM     20  C   UNL     1      -2.199  -3.302   3.320  0.00  0.00    +0.047 A 
ATOM     21  C   UNL     1      -2.482  -2.692   2.106  0.00  0.00    +0.122 A 
ATOM     22 BR   UNL     1       1.740  -4.502   2.879  0.00  0.00    -0.050 Br
BRANCH  21  23
ATOM     23  O   UNL     1      -3.713  -2.162   1.882  0.00  0.00    -0.495 OA
ATOM     24  C   UNL     1      -4.666  -2.261   2.942  0.00  0.00    +0.277 C 
ENDBRANCH  21  23
ENDBRANCH  15  16
ENDBRANCH   1  15
TORSDOF 8
