REMARK  Name = ZINC12483814
REMARK  11 active torsions:
REMARK  status: ('A' for Active; 'I' for Inactive)
REMARK    1  A    between atoms: C_1  and  C_2
REMARK    2  A    between atoms: C_5  and  S_8
REMARK    3  A    between atoms: S_8  and  N_11
REMARK    4  A    between atoms: N_11  and  C_12
REMARK    5  A    between atoms: C_15  and  O_18
REMARK    6  A    between atoms: O_18  and  C_19
REMARK    7  A    between atoms: C_21  and  O_34
REMARK    8  A    between atoms: C_23  and  O_33
REMARK    9  A    between atoms: C_25  and  O_32
REMARK   10  A    between atoms: C_27  and  C_30
REMARK   11  A    between atoms: C_30  and  O_31
REMARK                            x       y       z     vdW  Elec       q    Type
REMARK                         _______ _______ _______ _____ _____    ______ ____
ROOT
ATOM      1  C   UNL     1       0.002  -0.665   1.005  0.00  0.00    +0.048 A 
ATOM      2  C   UNL     1       1.076  -0.369   1.834  0.00  0.00    +0.028 A 
ATOM      3  C   UNL     1       1.296  -1.118   2.973  0.00  0.00    +0.047 A 
ATOM      4  C   UNL     1       0.450  -2.172   3.284  0.00  0.00    +0.124 A 
ATOM      5  C   UNL     1      -0.619  -2.473   2.454  0.00  0.00    +0.047 A 
ATOM      6  C   UNL     1      -0.844  -1.722   1.317  0.00  0.00    +0.028 A 
ENDROOT
BRANCH   1   7
ATOM      7  N   UNL     1      -0.224   0.096  -0.147  0.00  0.00    -0.216 N 
ATOM      8  H   UNL     1      -0.946   0.744  -0.166  0.00  0.00    +0.174 HD
BRANCH   7   9
ATOM      9  S   UNL     1       0.740  -0.108  -1.478  0.00  0.00    +0.072 S 
ATOM     10  O   UNL     1       0.230   0.754  -2.485  0.00  0.00    -0.150 OA
ATOM     11  O   UNL     1       2.083  -0.035  -1.021  0.00  0.00    -0.150 OA
BRANCH   9  16
ATOM     12  C   UNL     1      -0.107  -5.749  -3.444  0.00  0.00    +0.044 C 
ATOM     13  C   UNL     1       0.105  -4.340  -2.953  0.00  0.00    -0.050 A 
ATOM     14  C   UNL     1      -0.758  -3.335  -3.346  0.00  0.00    +0.005 A 
ATOM     15  C   UNL     1      -0.565  -2.042  -2.895  0.00  0.00    +0.029 A 
ATOM     16  C   UNL     1       0.493  -1.756  -2.052  0.00  0.00    +0.109 A 
ATOM     17  C   UNL     1       1.359  -2.760  -1.664  0.00  0.00    +0.029 A 
ATOM     18  C   UNL     1       1.162  -4.054  -2.110  0.00  0.00    +0.005 A 
ENDBRANCH   9  16
ENDBRANCH   7   9
ENDBRANCH   1   7
BRANCH   4  19
ATOM     19  O   UNL     1       0.671  -2.912   4.404  0.00  0.00    -0.461 OA
BRANCH  19  20
ATOM     20  C   UNL     1       1.790  -2.547   5.213  0.00  0.00    +0.339 C 
ATOM     21  C   UNL     1       2.026  -3.625   6.275  0.00  0.00    +0.214 C 
ATOM     22  C   UNL     1       0.799  -3.708   7.188  0.00  0.00    +0.180 C 
ATOM     23  C   UNL     1       0.543  -2.330   7.806  0.00  0.00    +0.177 C 
ATOM     24  C   UNL     1       0.364  -1.302   6.685  0.00  0.00    +0.179 C 
ATOM     25  O   UNL     1       1.527  -1.298   5.855  0.00  0.00    -0.331 OA
BRANCH  23  26
ATOM     26  O   UNL     1      -0.641  -2.376   8.604  0.00  0.00    -0.386 OA
ATOM     27  H   UNL     1      -0.598  -3.008   9.335  0.00  0.00    +0.210 HD
ENDBRANCH  23  26
BRANCH  22  28
ATOM     28  O   UNL     1      -0.340  -4.109   6.424  0.00  0.00    -0.386 OA
ATOM     29  H   UNL     1      -0.246  -4.974   6.004  0.00  0.00    +0.210 HD
ENDBRANCH  22  28
BRANCH  21  30
ATOM     30  O   UNL     1       3.178  -3.287   7.050  0.00  0.00    -0.383 OA
ATOM     31  H   UNL     1       3.992  -3.213   6.534  0.00  0.00    +0.210 HD
ENDBRANCH  21  30
BRANCH  24  32
ATOM     32  C   UNL     1       0.167   0.088   7.294  0.00  0.00    +0.190 C 
BRANCH  32  33
ATOM     33  O   UNL     1      -0.114   1.028   6.255  0.00  0.00    -0.392 OA
ATOM     34  H   UNL     1      -0.250   1.932   6.569  0.00  0.00    +0.210 HD
ENDBRANCH  32  33
ENDBRANCH  24  32
ENDBRANCH  19  20
ENDBRANCH   4  19
TORSDOF 10
