REMARK  Name = ZINC51952333
REMARK  7 active torsions:
REMARK  status: ('A' for Active; 'I' for Inactive)
REMARK    1  A    between atoms: C_1  and  C_2
REMARK    2  A    between atoms: C_2  and  C_4
REMARK    3  A    between atoms: C_2  and  N_13
REMARK    4  A    between atoms: N_9  and  C_10
REMARK    5  A    between atoms: C_10  and  C_11
REMARK    6  A    between atoms: C_10  and  C_12
REMARK    7  A    between atoms: C_16  and  N_19
REMARK                            x       y       z     vdW  Elec       q    Type
REMARK                         _______ _______ _______ _____ _____    ______ ____
ROOT
ATOM      1  C   UNL     1       0.630   1.331  -0.404  0.00  0.00    -0.004 C 
ATOM      2  C   UNL     1       0.002  -0.004   0.002  0.00  0.00    +0.017 C 
ENDROOT
BRANCH   2   3
ATOM      3  C   UNL     1       0.796  -0.610   1.130  0.00  0.00    +0.207 C 
ATOM      4  O   UNL     1       1.696  -1.387   0.889  0.00  0.00    -0.277 OA
ATOM      5  N   UNL     1       0.507  -0.289   2.407  0.00  0.00    -0.242 N 
ATOM      6  C   UNL     1       1.218  -0.831   3.416  0.00  0.00    +0.306 C 
ATOM      7  O   UNL     1       2.119  -1.609   3.174  0.00  0.00    -0.252 OA
ATOM      8  N   UNL     1       0.928  -0.510   4.692  0.00  0.00    -0.297 N 
ATOM      9  H   UNL     1      -0.212   0.332   2.599  0.00  0.00    +0.159 HD
ATOM     10  H   UNL     1       0.209   0.112   4.885  0.00  0.00    +0.151 HD
BRANCH   8  11
ATOM     11  C   UNL     1       1.700  -1.099   5.789  0.00  0.00    +0.068 C 
ATOM     12  C   UNL     1       2.967  -0.273   6.022  0.00  0.00    +0.027 C 
ATOM     13  C   UNL     1       0.854  -1.105   7.063  0.00  0.00    +0.027 C 
ENDBRANCH   8  11
ENDBRANCH   2   3
BRANCH   2  14
ATOM     14  N   UNL     1       0.009  -0.918  -1.148  0.00  0.00    +0.387 N 
ATOM     15  C   UNL     1      -0.619  -2.189  -0.764  0.00  0.00    -0.079 C 
ATOM     16  C   UNL     1      -0.542  -3.173  -1.933  0.00  0.00    -0.034 C 
ATOM     17  C   UNL     1      -1.278  -2.583  -3.140  0.00  0.00    -0.072 C 
ATOM     18  C   UNL     1      -0.663  -1.223  -3.485  0.00  0.00    -0.034 C 
ATOM     19  C   UNL     1      -0.735  -0.311  -2.258  0.00  0.00    -0.079 C 
ATOM     20  H   UNL     1       0.961  -1.089  -1.435  0.00  0.00    -0.081 HD
BRANCH  17  21
ATOM     21  N   UNL     1      -1.143  -3.488  -4.288  0.00  0.00    +0.381 N 
ATOM     22  C   UNL     1      -1.870  -2.931  -5.449  0.00  0.00    -0.079 C 
ATOM     23  C   UNL     1      -2.464  -4.165  -6.173  0.00  0.00    -0.020 C 
ATOM     24  C   UNL     1      -2.849  -5.075  -4.978  0.00  0.00    -0.020 C 
ATOM     25  C   UNL     1      -1.725  -4.801  -3.956  0.00  0.00    -0.079 C 
ATOM     26  H   UNL     1      -0.168  -3.599  -4.522  0.00  0.00    -0.081 HD
ENDBRANCH  17  21
ENDBRANCH   2  14
TORSDOF 4
