REMARK  Name = ZINC38779582
REMARK  8 active torsions:
REMARK  status: ('A' for Active; 'I' for Inactive)
REMARK    1  A    between atoms: C_1  and  C_2
REMARK    2  A    between atoms: N_10  and  N_11
REMARK    3  A    between atoms: N_11  and  C_12
REMARK    4  A    between atoms: C_22  and  C_25
REMARK    5  A    between atoms: C_28  and  O_33
REMARK    6  A    between atoms: C_29  and  O_31
REMARK    7  A    between atoms: O_31  and  C_32
REMARK    8  A    between atoms: O_33  and  C_34
REMARK                            x       y       z     vdW  Elec       q    Type
REMARK                         _______ _______ _______ _____ _____    ______ ____
ROOT
ATOM      1  C   UNL     1      -0.018   1.503   0.010  0.00  0.00    +0.045 C 
ATOM      2  C   UNL     1       0.002  -0.004   0.002  0.00  0.00    -0.029 A 
ATOM      3  C   UNL     1       0.006  -0.682  -1.203  0.00  0.00    +0.051 A 
ATOM      4  C   UNL     1       0.024  -2.068  -1.220  0.00  0.00    +0.131 A 
ATOM      5  C   UNL     1       0.035  -2.768  -0.006  0.00  0.00    +0.041 A 
ATOM      6  C   UNL     1       0.035  -2.079   1.203  0.00  0.00    +0.033 A 
ATOM      7  C   UNL     1       0.023  -0.697   1.201  0.00  0.00    +0.045 A 
ATOM      8 CL   UNL     1       0.027   0.172   2.704  0.00  0.00    -0.083 Cl
ATOM      9  C   UNL     1       0.043  -4.248  -0.032  0.00  0.00    +0.073 C 
ATOM     10  N   UNL     1      -0.175  -4.951   1.036  0.00  0.00    -0.188 NA
ATOM     11  C   UNL     1       0.321  -4.901  -1.375  0.00  0.00    +0.107 C 
ATOM     12  C   UNL     1      -0.426  -4.081  -2.438  0.00  0.00    +0.210 C 
ATOM     13  O   UNL     1       0.033  -2.730  -2.404  0.00  0.00    -0.483 OA
ENDROOT
BRANCH  12  14
ATOM     14  C   UNL     1      -0.162  -4.667  -3.801  0.00  0.00    -0.003 A 
ATOM     15  C   UNL     1       1.022  -4.384  -4.456  0.00  0.00    +0.011 A 
ATOM     16  C   UNL     1       1.269  -4.920  -5.707  0.00  0.00    +0.050 A 
ATOM     17  C   UNL     1       0.329  -5.742  -6.306  0.00  0.00    +0.162 A 
ATOM     18  C   UNL     1      -0.863  -6.027  -5.647  0.00  0.00    +0.162 A 
ATOM     19  C   UNL     1      -1.102  -5.491  -4.392  0.00  0.00    +0.056 A 
BRANCH  18  20
ATOM     20  O   UNL     1      -1.789  -6.834  -6.232  0.00  0.00    -0.491 OA
ATOM     21  C   UNL     1      -2.989  -7.083  -5.496  0.00  0.00    +0.277 C 
ENDBRANCH  18  20
BRANCH  17  22
ATOM     22  O   UNL     1       0.570  -6.269  -7.537  0.00  0.00    -0.491 OA
ATOM     23  C   UNL     1       1.814  -5.933  -8.154  0.00  0.00    +0.277 C 
ENDBRANCH  17  22
ENDBRANCH  12  14
BRANCH  10  24
ATOM     24  N   UNL     1      -0.159  -6.351   0.970  0.00  0.00    -0.229 N 
ATOM     25  H   UNL     1       0.016  -6.794   0.125  0.00  0.00    +0.172 HD
BRANCH  24  26
ATOM     26  C   UNL     1      -0.406  -7.144   2.176  0.00  0.00    +0.283 C 
ATOM     27  N   UNL     1       0.866  -7.477   2.830  0.00  0.00    -0.347 N 
ATOM     28  C   UNL     1       0.967  -8.774   2.851  0.00  0.00    +0.061 A 
ATOM     29  C   UNL     1       1.997  -9.688   3.365  0.00  0.00    +0.027 A 
ATOM     30  C   UNL     1       1.825 -11.019   3.244  0.00  0.00    +0.002 A 
ATOM     31  C   UNL     1       0.688 -11.585   2.638  0.00  0.00    +0.002 A 
ATOM     32  C   UNL     1      -0.314 -10.838   2.134  0.00  0.00    +0.027 A 
ATOM     33  C   UNL     1      -0.236  -9.373   2.211  0.00  0.00    +0.061 A 
ATOM     34  N   UNL     1      -1.034  -8.422   1.819  0.00  0.00    -0.347 N 
ATOM     35  H   UNL     1       1.513  -6.845   3.181  0.00  0.00    +0.163 HD
ATOM     36  H   UNL     1      -1.888  -8.537   1.372  0.00  0.00    +0.163 HD
ENDBRANCH  24  26
ENDBRANCH  10  24
TORSDOF 5
