REMARK  Name = ZINC20224308
REMARK  7 active torsions:
REMARK  status: ('A' for Active; 'I' for Inactive)
REMARK    1  A    between atoms: C_5  and  S_6
REMARK    2  A    between atoms: S_6  and  N_9
REMARK    3  A    between atoms: N_9  and  C_10
REMARK    4  A    between atoms: C_10  and  C_11
REMARK    5  A    between atoms: C_11  and  C_12
REMARK    6  A    between atoms: C_12  and  C_13
REMARK    7  A    between atoms: C_13  and  N_14
REMARK                            x       y       z     vdW  Elec       q    Type
REMARK                         _______ _______ _______ _____ _____    ______ ____
ROOT
ATOM      1  N   UNL     1       4.483  -0.617  -1.627  0.00  0.00    -0.189 NA
ATOM      2  H   UNL     1       4.567  -1.619  -2.074  0.00  0.00    +0.148 HD
ENDROOT
BRANCH   1   3
ATOM      3  S   UNL     1       4.034  -0.474  -0.040  0.00  0.00    +0.065 S 
ATOM      4  O   UNL     1       4.814   0.579   0.509  0.00  0.00    -0.153 OA
ATOM      5  O   UNL     1       4.036  -1.787   0.503  0.00  0.00    -0.153 OA
BRANCH   3  10
ATOM      6  C   UNL     1       1.220  -0.657  -0.013  0.00  0.00    +0.037 A 
ATOM      7  C   UNL     1       0.002  -0.004   0.002  0.00  0.00    +0.025 A 
ATOM      8  C   UNL     1      -0.016   1.352   0.009  0.00  0.00    +0.057 A 
ATOM      9  S   UNL     1       1.725   1.745  -0.005  0.00  0.00    -0.062 S 
ATOM     10  C   UNL     1       2.360   0.076  -0.020  0.00  0.00    +0.143 A 
ATOM     11 BR   UNL     1      -1.501   2.523   0.023  0.00  0.00    -0.043 Br
ENDBRANCH   3  10
ENDBRANCH   1   3
BRANCH   1  12
ATOM     12  C   UNL     1       4.553   0.573  -2.479  0.00  0.00    +0.106 C 
BRANCH  12  13
ATOM     13  C   UNL     1       5.333   0.242  -3.753  0.00  0.00    +0.015 C 
BRANCH  13  14
ATOM     14  C   UNL     1       5.406   1.485  -4.643  0.00  0.00    -0.018 C 
BRANCH  14  15
ATOM     15  C   UNL     1       6.186   1.155  -5.917  0.00  0.00    -0.086 C 
BRANCH  15  16
ATOM     16  N   UNL     1       6.256   2.348  -6.772  0.00  0.00    +0.378 N 
ATOM     17  H   UNL     1       6.816   2.110  -7.688  0.00  0.00    -0.090 HD
ATOM     18  H   UNL     1       6.765   3.158  -6.229  0.00  0.00    -0.090 HD
ATOM     19  H   UNL     1       5.237   2.668  -7.038  0.00  0.00    -0.090 HD
ENDBRANCH  15  16
ENDBRANCH  14  15
ENDBRANCH  13  14
ENDBRANCH  12  13
ENDBRANCH   1  12
TORSDOF 7
