REMARK  Name = ZINC40687342
REMARK  9 active torsions:
REMARK  status: ('A' for Active; 'I' for Inactive)
REMARK    1  A    between atoms: C_1  and  C_2
REMARK    2  A    between atoms: C_2  and  N_3
REMARK    3  A    between atoms: N_3  and  C_4
REMARK    4  A    between atoms: N_3  and  S_6
REMARK    5  A    between atoms: C_4  and  C_5
REMARK    6  A    between atoms: S_6  and  C_9
REMARK    7  A    between atoms: C_12  and  N_15
REMARK    8  A    between atoms: C_17  and  N_31
REMARK    9  A    between atoms: C_18  and  N_22
REMARK                            x       y       z     vdW  Elec       q    Type
REMARK                         _______ _______ _______ _____ _____    ______ ____
ROOT
ATOM      1  N   UNL     1      -4.807   3.924   3.516  0.00  0.00    -0.299 N 
ATOM      2  C   UNL     1      -6.089   4.240   3.081  0.00  0.00    +0.126 A 
ATOM      3  C   UNL     1      -6.694   5.438   3.469  0.00  0.00    +0.104 A 
ATOM      4  C   UNL     1      -7.982   5.706   3.003  0.00  0.00    +0.151 A 
ATOM      5  N   UNL     1      -8.581   4.817   2.214  0.00  0.00    -0.220 NA
ATOM      6  C   UNL     1      -7.975   3.699   1.872  0.00  0.00    +0.200 A 
ATOM      7  N   UNL     1      -6.757   3.409   2.284  0.00  0.00    -0.333 N 
ATOM      8  H   UNL     1      -4.364   4.487   4.169  0.00  0.00    +0.154 HD
ATOM      9  H   UNL     1      -6.343   2.577   2.006  0.00  0.00    +0.168 HD
ENDROOT
BRANCH   4  10
ATOM     10  N   UNL     1      -8.630   6.884   3.359  0.00  0.00    -0.283 N 
ATOM     11  C   UNL     1      -8.486   8.165   2.663  0.00  0.00    +0.117 C 
ATOM     12  C   UNL     1      -9.392   9.144   3.428  0.00  0.00    +0.056 C 
ATOM     13  C   UNL     1     -10.000   8.312   4.535  0.00  0.00    -0.025 A 
ATOM     14  C   UNL     1      -9.519   7.017   4.429  0.00  0.00    +0.038 A 
ATOM     15  C   UNL     1      -9.948   6.057   5.348  0.00  0.00    +0.024 A 
ATOM     16  C   UNL     1     -10.841   6.396   6.342  0.00  0.00    +0.002 A 
ATOM     17  C   UNL     1     -11.319   7.690   6.436  0.00  0.00    +0.000 A 
ATOM     18  C   UNL     1     -10.891   8.649   5.536  0.00  0.00    +0.005 A 
ENDBRANCH   4  10
BRANCH   1  22
ATOM     19  C   UNL     1      -2.871   0.557   2.013  0.00  0.00    +0.106 A 
ATOM     20  C   UNL     1      -3.621   1.355   1.170  0.00  0.00    +0.030 A 
ATOM     21  C   UNL     1      -4.265   2.472   1.665  0.00  0.00    +0.025 A 
ATOM     22  C   UNL     1      -4.157   2.794   3.012  0.00  0.00    +0.032 A 
ATOM     23  C   UNL     1      -3.402   1.990   3.856  0.00  0.00    +0.025 A 
ATOM     24  C   UNL     1      -2.766   0.871   3.356  0.00  0.00    +0.030 A 
BRANCH  19  25
ATOM     25  S   UNL     1      -2.051  -0.868   1.378  0.00  0.00    +0.061 S 
ATOM     26  O   UNL     1      -0.974  -1.145   2.261  0.00  0.00    -0.153 OA
ATOM     27  O   UNL     1      -1.858  -0.639  -0.011  0.00  0.00    -0.153 OA
BRANCH  25  28
ATOM     28  N   UNL     1      -3.107  -2.138   1.506  0.00  0.00    -0.177 NA
BRANCH  28  30
ATOM     29  C   UNL     1      -5.374  -1.768   0.664  0.00  0.00    +0.022 C 
ATOM     30  C   UNL     1      -4.024  -2.442   0.405  0.00  0.00    +0.106 C 
ENDBRANCH  28  30
BRANCH  28  31
ATOM     31  C   UNL     1      -3.124  -2.957   2.720  0.00  0.00    +0.106 C 
ATOM     32  C   UNL     1      -2.238  -4.188   2.517  0.00  0.00    +0.022 C 
ENDBRANCH  28  31
ENDBRANCH  25  28
ENDBRANCH  19  25
ENDBRANCH   1  22
BRANCH   3  33
ATOM     33  N   UNL     1      -6.024   6.346   4.303  0.00  0.00    -0.353 N 
ATOM     34  H   UNL     1      -5.103   6.183   4.558  0.00  0.00    +0.143 HD
ATOM     35  H   UNL     1      -6.484   7.138   4.626  0.00  0.00    +0.143 HD
ENDBRANCH   3  33
TORSDOF 7
