REMARK  Name = ZINC09286378
REMARK  7 active torsions:
REMARK  status: ('A' for Active; 'I' for Inactive)
REMARK    1  A    between atoms: C_1  and  C_2
REMARK    2  A    between atoms: C_12  and  C_14
REMARK    3  A    between atoms: C_14  and  O_15
REMARK    4  A    between atoms: O_15  and  C_16
REMARK    5  A    between atoms: C_19  and  C_23
REMARK    6  A    between atoms: C_23  and  N_61
REMARK    7  A    between atoms: N_26  and  C_29
REMARK                            x       y       z     vdW  Elec       q    Type
REMARK                         _______ _______ _______ _____ _____    ______ ____
ROOT
ATOM      1  C   UNL     1       8.987   5.603  -0.054  0.00  0.00    +0.202 A 
ATOM      2  C   UNL     1      10.116   4.860  -0.064  0.00  0.00    +0.244 A 
ATOM      3  O   UNL     1      11.322   5.443  -0.079  0.00  0.00    -0.466 OA
ATOM      4  C   UNL     1      11.469   6.772  -0.073  0.00  0.00    +0.092 A 
ATOM      5  C   UNL     1      10.396   7.590  -0.058  0.00  0.00    +0.094 A 
ATOM      6  C   UNL     1       9.098   7.021  -0.048  0.00  0.00    +0.226 A 
ATOM      7  O   UNL     1       8.103   7.729  -0.034  0.00  0.00    -0.284 OA
ENDROOT
BRANCH   1   8
ATOM      8  O   UNL     1       7.765   5.005  -0.046  0.00  0.00    -0.476 OA
BRANCH   8   9
ATOM      9  C   UNL     1       7.742   3.576  -0.053  0.00  0.00    +0.325 C 
BRANCH   9  21
ATOM     10  C   UNL     1      -1.288  -0.783   0.011  0.00  0.00    +0.044 C 
ATOM     11  C   UNL     1       0.002  -0.004   0.002  0.00  0.00    -0.049 A 
ATOM     12  C   UNL     1      -0.017   1.383   0.010  0.00  0.00    +0.005 A 
ATOM     13  C   UNL     1       1.142   2.115   0.003  0.00  0.00    +0.029 A 
ATOM     14  C   UNL     1       2.402   1.474  -0.013  0.00  0.00    +0.080 A 
ATOM     15  C   UNL     1       2.382   0.060  -0.020  0.00  0.00    +0.041 A 
ATOM     16  C   UNL     1       1.217  -0.665  -0.013  0.00  0.00    +0.020 A 
ATOM     17  S   UNL     1       4.113  -0.342  -0.039  0.00  0.00    -0.052 S 
ATOM     18  C   UNL     1       4.733   1.335  -0.036  0.00  0.00    +0.166 A 
ATOM     19  N   UNL     1       3.627   2.042  -0.021  0.00  0.00    -0.225 NA
ATOM     20  N   UNL     1       6.046   1.775  -0.046  0.00  0.00    -0.262 N 
ATOM     21  C   UNL     1       6.314   3.096  -0.042  0.00  0.00    +0.256 C 
ATOM     22  O   UNL     1       5.405   3.899  -0.029  0.00  0.00    -0.272 OA
ATOM     23  H   UNL     1       6.773   1.133  -0.057  0.00  0.00    +0.157 HD
ENDBRANCH   9  21
ENDBRANCH   8   9
ENDBRANCH   1   8
BRANCH   4  24
ATOM     24  C   UNL     1      12.854   7.366  -0.083  0.00  0.00    -0.003 C 
BRANCH  24  30
ATOM     25  C   UNL     1      12.511   8.565   1.994  0.00  0.00    -0.059 C 
ATOM     26  C   UNL     1      12.973   8.670   3.449  0.00  0.00    +0.086 C 
ATOM     27  N   UNL     1      14.399   9.022   3.484  0.00  0.00    -0.333 N 
ATOM     28  C   UNL     1      15.205   8.009   2.789  0.00  0.00    +0.086 C 
ATOM     29  C   UNL     1      14.744   7.903   1.333  0.00  0.00    -0.059 C 
ATOM     30  N   UNL     1      13.315   7.527   1.313  0.00  0.00    +0.386 N 
ATOM     31  H   UNL     1      13.197   6.636   1.808  0.00  0.00    -0.081 HD
BRANCH  27  32
ATOM     32  C   UNL     1      14.840   9.198   4.799  0.00  0.00    +0.030 A 
ATOM     33  C   UNL     1      15.908   8.452   5.280  0.00  0.00    +0.026 A 
ATOM     34  C   UNL     1      16.345   8.631   6.578  0.00  0.00    +0.040 A 
ATOM     35  C   UNL     1      15.713   9.546   7.402  0.00  0.00    +0.124 A 
ATOM     36  C   UNL     1      14.645  10.287   6.926  0.00  0.00    +0.040 A 
ATOM     37  C   UNL     1      14.207  10.115   5.628  0.00  0.00    +0.026 A 
ATOM     38  F   UNL     1      16.139   9.716   8.673  0.00  0.00    -0.205 F 
ENDBRANCH  27  32
ENDBRANCH  24  30
ENDBRANCH   4  24
TORSDOF 6
