REMARK  Name = ZINC63328765
REMARK  6 active torsions:
REMARK  status: ('A' for Active; 'I' for Inactive)
REMARK    1  A    between atoms: C_1  and  O_2
REMARK    2  A    between atoms: O_2  and  C_3
REMARK    3  A    between atoms: C_9  and  C_13
REMARK    4  A    between atoms: N_15  and  C_16
REMARK    5  A    between atoms: C_16  and  C_17
REMARK    6  A    between atoms: C_17  and  N_19
REMARK                            x       y       z     vdW  Elec       q    Type
REMARK                         _______ _______ _______ _____ _____    ______ ____
ROOT
ATOM      1  C   UNL     1      -0.729  -5.212   1.226  0.00  0.00    +0.240 C 
ATOM      2  O   UNL     1      -1.459  -5.190   2.194  0.00  0.00    -0.273 OA
ATOM      3  N   UNL     1       0.409  -5.934   1.257  0.00  0.00    -0.305 N 
ATOM      4  H   UNL     1       0.994  -5.952   0.483  0.00  0.00    +0.149 HD
ENDROOT
BRANCH   1  11
ATOM      5  C   UNL     1      -1.249  -0.682  -0.036  0.00  0.00    +0.129 A 
ATOM      6  C   UNL     1      -2.411   0.026  -0.028  0.00  0.00    +0.046 A 
ATOM      7  C   UNL     1      -3.655  -0.608  -0.009  0.00  0.00    +0.006 A 
ATOM      8  C   UNL     1      -3.791  -1.954   0.002  0.00  0.00    +0.026 A 
ATOM      9  C   UNL     1      -2.647  -2.794  -0.005  0.00  0.00    +0.047 A 
ATOM     10  N   UNL     1      -2.522  -4.101   0.003  0.00  0.00    -0.370 N 
ATOM     11  C   UNL     1      -1.093  -4.432  -0.011  0.00  0.00    +0.190 C 
ATOM     12  C   UNL     1      -0.360  -3.109  -0.029  0.00  0.00    +0.020 C 
ATOM     13  C   UNL     1      -1.313  -2.153  -0.031  0.00  0.00    +0.038 A 
ATOM     14  H   UNL     1      -3.252  -4.740   0.017  0.00  0.00    +0.161 HD
BRANCH   5  16
ATOM     15  C   UNL     1      -0.080   1.385  -0.058  0.00  0.00    +0.277 C 
ATOM     16  O   UNL     1      -0.053  -0.044  -0.054  0.00  0.00    -0.494 OA
ENDBRANCH   5  16
ENDBRANCH   1  11
BRANCH   3  17
ATOM     17  C   UNL     1       0.763  -6.692   2.460  0.00  0.00    +0.202 C 
BRANCH  17  18
ATOM     18  C   UNL     1       2.071  -7.406   2.237  0.00  0.00    +0.256 C 
ATOM     19  O   UNL     1       2.652  -7.293   1.174  0.00  0.00    -0.272 OA
BRANCH  18  20
ATOM     20  N   UNL     1       2.590  -8.160   3.200  0.00  0.00    -0.155 NA
ATOM     21  C   UNL     1       3.689  -8.874   2.968  0.00  0.00    +0.164 A 
ATOM     22  N   UNL     1       4.468  -8.865   1.857  0.00  0.00    -0.335 N 
ATOM     23  H   UNL     1       4.243  -8.289   1.110  0.00  0.00    +0.168 HD
ATOM     24  C   UNL     1       5.582  -9.680   1.792  0.00  0.00    +0.055 A 
ATOM     25  C   UNL     1       6.512  -9.827   0.753  0.00  0.00    +0.027 A 
ATOM     26  C   UNL     1       7.568 -10.700   0.877  0.00  0.00    +0.002 A 
ATOM     27  C   UNL     1       7.743 -11.455   2.025  0.00  0.00    +0.001 A 
ATOM     28  C   UNL     1       6.839 -11.328   3.064  0.00  0.00    +0.017 A 
ATOM     29  C   UNL     1       5.784 -10.456   2.942  0.00  0.00    +0.039 A 
ATOM     30  S   UNL     1       4.432  -9.983   3.989  0.00  0.00    -0.052 S 
ENDBRANCH  18  20
ENDBRANCH  17  18
ENDBRANCH   3  17
TORSDOF 5
