REMARK  Name = ZINC22785857
REMARK  8 active torsions:
REMARK  status: ('A' for Active; 'I' for Inactive)
REMARK    1  A    between atoms: C_1  and  C_2
REMARK    2  A    between atoms: C_5  and  N_9
REMARK    3  A    between atoms: C_6  and  C_8
REMARK    4  A    between atoms: C_13  and  C_15
REMARK    5  A    between atoms: C_15  and  N_16
REMARK    6  A    between atoms: N_19  and  C_22
REMARK    7  A    between atoms: C_22  and  C_23
REMARK    8  A    between atoms: N_25  and  C_26
REMARK                            x       y       z     vdW  Elec       q    Type
REMARK                         _______ _______ _______ _____ _____    ______ ____
ROOT
ATOM      1  N   UNL     1      -1.191   1.869   0.018  0.00  0.00    -0.269 N 
ATOM      2  C   UNL     1      -0.014   1.212   0.005  0.00  0.00    +0.310 C 
ATOM      3  O   UNL     1       0.003  -0.004   0.006  0.00  0.00    -0.252 OA
ATOM      4  N   UNL     1       1.143   1.901  -0.015  0.00  0.00    -0.239 N 
ATOM      5  C   UNL     1       2.320   1.244  -0.034  0.00  0.00    +0.234 C 
ATOM      6  O   UNL     1       2.336   0.032  -0.032  0.00  0.00    -0.274 OA
ATOM      7  H   UNL     1      -1.207   2.965   0.110  0.00  0.00    +0.156 HD
ATOM      8  H   UNL     1       1.128   3.001  -0.016  0.00  0.00    +0.159 HD
ENDROOT
BRANCH   1  13
ATOM      9  C   UNL     1      -6.057  -1.016  -0.401  0.00  0.00    +0.044 C 
ATOM     10  C   UNL     1      -4.765  -0.250  -0.290  0.00  0.00    -0.050 A 
ATOM     11  C   UNL     1      -3.597  -0.788  -0.799  0.00  0.00    +0.005 A 
ATOM     12  C   UNL     1      -2.411  -0.089  -0.699  0.00  0.00    +0.024 A 
ATOM     13  C   UNL     1      -2.391   1.158  -0.086  0.00  0.00    +0.038 A 
ATOM     14  C   UNL     1      -3.564   1.694   0.428  0.00  0.00    -0.029 A 
ATOM     15  C   UNL     1      -4.748   0.991   0.321  0.00  0.00    +0.008 A 
ATOM     16  C   UNL     1      -3.546   3.043   1.099  0.00  0.00    +0.045 C 
ENDBRANCH   1  13
BRANCH   5  17
ATOM     17  C   UNL     1       3.614   2.015  -0.056  0.00  0.00    +0.180 C 
BRANCH  17  18
ATOM     18  N   UNL     1       4.744   1.076  -0.073  0.00  0.00    -0.298 NA
ATOM     19  C   UNL     1       4.815   0.316   1.182  0.00  0.00    +0.066 C 
ATOM     20  C   UNL     1       5.953  -0.704   1.093  0.00  0.00    -0.063 C 
ATOM     21  N   UNL     1       7.218  -0.002   0.833  0.00  0.00    +0.387 N 
ATOM     22  C   UNL     1       7.146   0.758  -0.422  0.00  0.00    -0.063 C 
ATOM     23  C   UNL     1       6.008   1.778  -0.333  0.00  0.00    +0.066 C 
ATOM     24  H   UNL     1       7.385   0.711   1.653  0.00  0.00    -0.081 HD
BRANCH  21  25
ATOM     25  C   UNL     1       8.347  -0.941   0.815  0.00  0.00    +0.019 C 
BRANCH  25  26
ATOM     26  C   UNL     1       8.539  -1.521   2.193  0.00  0.00    +0.197 C 
ATOM     27  O   UNL     1       7.808  -1.185   3.100  0.00  0.00    -0.278 OA
ATOM     28  N   UNL     1       9.525  -2.413   2.417  0.00  0.00    -0.314 N 
ATOM     29  H   UNL     1      10.188  -2.718   1.595  0.00  0.00    +0.149 HD
BRANCH  28  30
ATOM     30  C   UNL     1       9.712  -2.977   3.756  0.00  0.00    +0.073 C 
ATOM     31  C   UNL     1      11.143  -3.079   4.286  0.00  0.00    +0.024 C 
ATOM     32  C   UNL     1      10.393  -4.343   3.859  0.00  0.00    +0.024 C 
ENDBRANCH  28  30
ENDBRANCH  25  26
ENDBRANCH  21  25
ENDBRANCH  17  18
ENDBRANCH   5  17
TORSDOF 6
