REMARK  Name = ZINC48264400
REMARK  8 active torsions:
REMARK  status: ('A' for Active; 'I' for Inactive)
REMARK    1  A    between atoms: C_3  and  N_14
REMARK    2  A    between atoms: C_4  and  N_11
REMARK    3  A    between atoms: C_6  and  S_7
REMARK    4  A    between atoms: S_7  and  N_10
REMARK    5  A    between atoms: N_14  and  C_15
REMARK    6  A    between atoms: C_15  and  C_16
REMARK    7  A    between atoms: C_16  and  C_18
REMARK    8  A    between atoms: C_16  and  N_24
REMARK                            x       y       z     vdW  Elec       q    Type
REMARK                         _______ _______ _______ _____ _____    ______ ____
ROOT
ATOM      1  C   UNL     1       0.587  -1.206  -1.033  0.00  0.00    +0.030 A 
ATOM      2  C   UNL     1       1.073  -0.016  -0.528  0.00  0.00    +0.027 A 
ATOM      3  C   UNL     1       2.432   0.263  -0.601  0.00  0.00    +0.058 A 
ATOM      4  C   UNL     1       3.297  -0.656  -1.181  0.00  0.00    +0.149 A 
ATOM      5  C   UNL     1       2.804  -1.844  -1.683  0.00  0.00    +0.063 A 
ATOM      6  C   UNL     1       1.450  -2.119  -1.609  0.00  0.00    +0.107 A 
ENDROOT
BRANCH   6   7
ATOM      7  S   UNL     1       0.825  -3.636  -2.251  0.00  0.00    +0.056 S 
ATOM      8  O   UNL     1       1.908  -4.556  -2.246  0.00  0.00    -0.153 OA
ATOM      9  O   UNL     1      -0.396  -3.893  -1.570  0.00  0.00    -0.153 OA
BRANCH   7  10
ATOM     10  N   UNL     1       0.435  -3.373  -3.839  0.00  0.00    -0.204 NA
ATOM     11  H   UNL     1       0.493  -4.099  -4.479  0.00  0.00    +0.144 HD
ATOM     12  H   UNL     1       0.150  -2.492  -4.128  0.00  0.00    +0.144 HD
ENDBRANCH   7  10
ENDBRANCH   6   7
BRANCH   4  13
ATOM     13  N   UNL     1       4.745  -0.363  -1.260  0.00  0.00    +0.058 N 
ATOM     14  O   UNL     1       5.123   0.768  -1.463  0.00  0.00    -0.126 OA
ATOM     15  O   UNL     1       5.551  -1.253  -1.122  0.00  0.00    -0.126 OA
ENDBRANCH   4  13
BRANCH   3  16
ATOM     16  N   UNL     1       2.927   1.466  -0.092  0.00  0.00    -0.344 N 
ATOM     17  H   UNL     1       3.884   1.618  -0.052  0.00  0.00    +0.146 HD
BRANCH  16  18
ATOM     18  C   UNL     1       2.001   2.499   0.380  0.00  0.00    +0.087 C 
BRANCH  18  19
ATOM     19  C   UNL     1       2.788   3.607   1.082  0.00  0.00    -0.046 C 
BRANCH  19  20
ATOM     20  N   UNL     1       3.332   3.096   2.347  0.00  0.00    +0.383 N 
ATOM     21  C   UNL     1       4.097   1.846   2.108  0.00  0.00    -0.078 C 
ATOM     22  C   UNL     1       5.032   1.761   3.341  0.00  0.00    -0.020 C 
ATOM     23  C   UNL     1       5.414   3.239   3.587  0.00  0.00    -0.020 C 
ATOM     24  C   UNL     1       4.300   4.060   2.913  0.00  0.00    -0.078 C 
ATOM     25  H   UNL     1       2.584   2.927   3.004  0.00  0.00    -0.081 HD
ENDBRANCH  19  20
BRANCH  19  26
ATOM     26  C   UNL     1       1.860   4.790   1.366  0.00  0.00    +0.005 C 
ATOM     27  C   UNL     1       1.159   5.253   0.066  0.00  0.00    +0.032 C 
ATOM     28  C   UNL     1       1.199   6.796   0.207  0.00  0.00    +0.160 C 
ATOM     29  O   UNL     1       2.480   7.044   0.826  0.00  0.00    -0.380 OA
ATOM     30  C   UNL     1       2.674   6.018   1.818  0.00  0.00    +0.162 C 
ENDBRANCH  19  26
ENDBRANCH  18  19
ENDBRANCH  16  18
ENDBRANCH   3  16
TORSDOF 8
