REMARK  Name = ZINC43515777
REMARK  4 active torsions:
REMARK  status: ('A' for Active; 'I' for Inactive)
REMARK    1  A    between atoms: C_1  and  C_2
REMARK    2  A    between atoms: C_2  and  C_4
REMARK    3  A    between atoms: C_2  and  N_8
REMARK    4  A    between atoms: N_5  and  O_6
REMARK                            x       y       z     vdW  Elec       q    Type
REMARK                         _______ _______ _______ _____ _____    ______ ____
ROOT
ATOM      1  C   UNL     1      -0.031   1.518  -0.151  0.00  0.00    -0.005 C 
ATOM      2  C   UNL     1       0.002  -0.004   0.002  0.00  0.00    -0.004 C 
ENDROOT
BRANCH   2   3
ATOM      3  N   UNL     1      -1.370  -0.513   0.133  0.00  0.00    +0.386 N 
ATOM      4  C   UNL     1      -2.008   0.140   1.292  0.00  0.00    -0.078 C 
ATOM      5  C   UNL     1      -3.502   0.114   1.087  0.00  0.00    -0.019 C 
ATOM      6  C   UNL     1      -4.149  -1.083   1.810  0.00  0.00    -0.002 C 
ATOM      7  C   UNL     1      -3.299  -2.362   1.672  0.00  0.00    -0.002 C 
ATOM      8  C   UNL     1      -2.733  -2.529   0.285  0.00  0.00    -0.019 C 
ATOM      9  C   UNL     1      -1.323  -1.904   0.238  0.00  0.00    -0.078 C 
ATOM     10  H   UNL     1      -1.886  -0.269  -0.699  0.00  0.00    -0.081 HD
ENDBRANCH   2   3
BRANCH   2  11
ATOM     11  C   UNL     1       0.651  -0.617  -1.212  0.00  0.00    +0.118 C 
ATOM     12  N   UNL     1       1.938  -0.719  -1.274  0.00  0.00    -0.079 NA
ATOM     13  N   UNL     1      -0.127  -1.068  -2.255  0.00  0.00    -0.345 N 
ATOM     14  H   UNL     1      -1.092  -0.991  -2.208  0.00  0.00    +0.143 HD
ATOM     15  H   UNL     1       0.291  -1.462  -3.037  0.00  0.00    +0.143 HD
BRANCH  12  16
ATOM     16  O   UNL     1       2.548  -1.295  -2.415  0.00  0.00    -0.408 OA
ATOM     17  H   UNL     1       3.513  -1.328  -2.370  0.00  0.00    +0.328 HD
ENDBRANCH  12  16
ENDBRANCH   2  11
TORSDOF 3
