REMARK  Name = ZINC22077824
REMARK  3 active torsions:
REMARK  status: ('A' for Active; 'I' for Inactive)
REMARK    1  A    between atoms: C_9  and  N_12
REMARK    2  A    between atoms: N_12  and  C_13
REMARK    3  A    between atoms: C_25  and  N_28
REMARK                            x       y       z     vdW  Elec       q    Type
REMARK                         _______ _______ _______ _____ _____    ______ ____
ROOT
ATOM      1  C   UNL     1      -4.086   0.661   2.579  0.00  0.00    -0.023 C 
ATOM      2  C   UNL     1      -3.726  -0.730   3.114  0.00  0.00    -0.009 C 
ATOM      3  C   UNL     1      -5.008  -1.479   3.488  0.00  0.00    +0.003 C 
ATOM      4  C   UNL     1      -5.635  -0.833   4.729  0.00  0.00    +0.037 C 
ATOM      5  C   UNL     1      -5.721   0.655   4.503  0.00  0.00    -0.021 A 
ATOM      6  C   UNL     1      -5.036   1.323   3.549  0.00  0.00    +0.006 A 
ATOM      7  N   UNL     1      -5.339   2.658   3.610  0.00  0.00    -0.359 N 
ATOM      8  H   UNL     1      -4.871   3.361   2.904  0.00  0.00    +0.166 HD
ATOM      9  C   UNL     1      -6.235   2.884   4.614  0.00  0.00    +0.047 A 
ATOM     10  C   UNL     1      -6.514   1.632   5.220  0.00  0.00    +0.005 A 
ATOM     11  C   UNL     1      -7.405   1.526   6.292  0.00  0.00    +0.043 A 
ATOM     12  C   UNL     1      -7.994   2.689   6.726  0.00  0.00    +0.127 A 
ATOM     13  C   UNL     1      -7.726   3.913   6.138  0.00  0.00    +0.035 A 
ATOM     14  C   UNL     1      -6.848   4.047   5.076  0.00  0.00    +0.028 A 
ENDROOT
BRANCH   1  15
ATOM     15  N   UNL     1      -2.867   1.471   2.451  0.00  0.00    +0.387 N 
ATOM     16  H   UNL     1      -2.182   1.209   3.271  0.00  0.00    -0.085 HD
ATOM     17  H   UNL     1      -3.141   2.534   2.527  0.00  0.00    -0.085 HD
BRANCH  15  26
ATOM     18  C   UNL     1      -0.646   1.986  -3.589  0.00  0.00    +0.000 A 
ATOM     19  C   UNL     1      -1.947   2.452  -3.554  0.00  0.00    +0.000 A 
ATOM     20  C   UNL     1      -2.632   2.483  -2.356  0.00  0.00    +0.004 A 
ATOM     21  C   UNL     1      -2.025   2.048  -1.185  0.00  0.00    -0.046 A 
ATOM     22  C   UNL     1      -0.731   1.580  -1.221  0.00  0.00    -0.044 A 
ATOM     23  C   UNL     1      -0.042   1.552  -2.427  0.00  0.00    +0.004 A 
ATOM     24  C   UNL     1      -0.013   1.086   0.008  0.00  0.00    +0.034 C 
ATOM     25  C   UNL     1      -0.717   1.573   1.273  0.00  0.00    -0.011 C 
ATOM     26  C   UNL     1      -2.205   1.226   1.163  0.00  0.00    -0.066 C 
ATOM     27  C   UNL     1      -2.828   2.115   0.088  0.00  0.00    +0.020 C 
ENDBRANCH  15  26
ENDBRANCH   1  15
BRANCH  12  28
ATOM     28  N   UNL     1      -8.946   2.630   7.858  0.00  0.00    +0.056 N 
ATOM     29  O   UNL     1      -9.479   3.650   8.259  0.00  0.00    -0.126 OA
ATOM     30  O   UNL     1      -9.195   1.563   8.390  0.00  0.00    -0.126 OA
ENDBRANCH  12  28
TORSDOF 3
