REMARK  Name = ZINC42529223
REMARK  11 active torsions:
REMARK  status: ('A' for Active; 'I' for Inactive)
REMARK    1  A    between atoms: C_1  and  C_2
REMARK    2  A    between atoms: C_2  and  C_3
REMARK    3  A    between atoms: C_2  and  N_4
REMARK    4  A    between atoms: N_4  and  C_5
REMARK    5  A    between atoms: N_4  and  C_11
REMARK    6  A    between atoms: C_5  and  C_6
REMARK    7  A    between atoms: C_6  and  C_7
REMARK    8  A    between atoms: N_8  and  O_9
REMARK    9  A    between atoms: C_11  and  C_12
REMARK   10  A    between atoms: C_15  and  O_19
REMARK   11  A    between atoms: O_19  and  C_20
REMARK                            x       y       z     vdW  Elec       q    Type
REMARK                         _______ _______ _______ _____ _____    ______ ____
ROOT
ATOM      1  N   UNL     1      -2.490  -0.709   0.103  0.00  0.00    +0.384 N 
ATOM      2  H   UNL     1      -3.288  -0.781   0.716  0.00  0.00    -0.081 HD
ENDROOT
BRANCH   1   4
ATOM      3  C   UNL     1      -1.160  -0.316   2.121  0.00  0.00    -0.014 C 
ATOM      4  C   UNL     1      -1.485   0.174   0.708  0.00  0.00    -0.074 C 
ATOM      5  C   UNL     1      -0.213   0.159  -0.142  0.00  0.00    -0.014 C 
ENDBRANCH   1   4
BRANCH   1   6
ATOM      6  C   UNL     1      -2.915  -0.154  -1.189  0.00  0.00    -0.070 C 
BRANCH   6   7
ATOM      7  C   UNL     1      -3.533   1.228  -0.973  0.00  0.00    +0.056 C 
BRANCH   7   8
ATOM      8  C   UNL     1      -4.025   1.770  -2.290  0.00  0.00    +0.130 C 
ATOM      9  N   UNL     1      -3.887   1.073  -3.368  0.00  0.00    -0.077 NA
ATOM     10  N   UNL     1      -4.623   3.010  -2.344  0.00  0.00    -0.344 N 
ATOM     11  H   UNL     1      -4.728   3.534  -1.534  0.00  0.00    +0.143 HD
ATOM     12  H   UNL     1      -4.941   3.359  -3.191  0.00  0.00    +0.143 HD
BRANCH   9  13
ATOM     13  O   UNL     1      -4.350   1.582  -4.605  0.00  0.00    -0.408 OA
ATOM     14  H   UNL     1      -4.202   0.989  -5.355  0.00  0.00    +0.328 HD
ENDBRANCH   9  13
ENDBRANCH   7   8
ENDBRANCH   6   7
ENDBRANCH   1   6
BRANCH   1  15
ATOM     15  C   UNL     1      -1.909  -2.042  -0.104  0.00  0.00    -0.043 C 
BRANCH  15  16
ATOM     16  C   UNL     1      -1.633  -2.682   1.232  0.00  0.00    -0.063 A 
ATOM     17  C   UNL     1      -0.353  -3.102   1.545  0.00  0.00    +0.005 A 
ATOM     18  C   UNL     1      -0.097  -3.689   2.769  0.00  0.00    +0.047 A 
ATOM     19  C   UNL     1      -1.124  -3.858   3.685  0.00  0.00    +0.134 A 
ATOM     20  C   UNL     1      -2.408  -3.436   3.370  0.00  0.00    +0.060 A 
ATOM     21  C   UNL     1      -2.658  -2.844   2.146  0.00  0.00    +0.020 A 
ATOM     22 BR   UNL     1      -3.812  -3.664   4.615  0.00  0.00    -0.047 Br
BRANCH  19  23
ATOM     23  O   UNL     1      -0.874  -4.436   4.890  0.00  0.00    -0.494 OA
ATOM     24  C   UNL     1       0.470  -4.846   5.146  0.00  0.00    +0.277 C 
ENDBRANCH  19  23
ENDBRANCH  15  16
ENDBRANCH   1  15
TORSDOF 8
