REMARK  Name = ZINC34945351
REMARK  10 active torsions:
REMARK  status: ('A' for Active; 'I' for Inactive)
REMARK    1  A    between atoms: C_4  and  C_7
REMARK    2  A    between atoms: C_7  and  O_8
REMARK    3  A    between atoms: O_8  and  C_9
REMARK    4  A    between atoms: C_12  and  C_15
REMARK    5  A    between atoms: C_15  and  N_16
REMARK    6  A    between atoms: N_16  and  C_17
REMARK    7  A    between atoms: C_17  and  C_18
REMARK    8  A    between atoms: C_18  and  C_19
REMARK    9  A    between atoms: C_19  and  N_20
REMARK   10  A    between atoms: N_27  and  C_28
REMARK                            x       y       z     vdW  Elec       q    Type
REMARK                         _______ _______ _______ _____ _____    ______ ____
ROOT
ATOM      1  N   UNL     1      10.114  -2.701   2.041  0.00  0.00    -0.281 N 
ATOM      2  C   UNL     1      10.748  -2.326   0.912  0.00  0.00    +0.307 C 
ATOM      3  O   UNL     1      10.411  -2.792  -0.159  0.00  0.00    -0.252 OA
ATOM      4  N   UNL     1      11.756  -1.433   0.971  0.00  0.00    -0.269 N 
ATOM      5  H   UNL     1      11.982  -1.010   1.814  0.00  0.00    +0.156 HD
ENDROOT
BRANCH   4   6
ATOM      6  C   UNL     1      12.478  -1.115  -0.186  0.00  0.00    +0.035 A 
ATOM      7  C   UNL     1      13.838  -0.850  -0.106  0.00  0.00    +0.024 A 
ATOM      8  C   UNL     1      14.548  -0.536  -1.249  0.00  0.00    +0.017 A 
ATOM      9  C   UNL     1      13.904  -0.486  -2.473  0.00  0.00    +0.018 A 
ATOM     10  C   UNL     1      12.548  -0.750  -2.555  0.00  0.00    +0.017 A 
ATOM     11  C   UNL     1      11.835  -1.070  -1.416  0.00  0.00    +0.024 A 
ATOM     12 BR   UNL     1      14.878  -0.056  -4.035  0.00  0.00    -0.050 Br
ENDBRANCH   4   6
BRANCH   1  13
ATOM     13  C   UNL     1       9.019  -3.672   1.977  0.00  0.00    +0.144 C 
BRANCH  13  17
ATOM     14  C   UNL     1       5.316  -1.608   1.435  0.00  0.00    +0.121 A 
ATOM     15  C   UNL     1       6.052  -2.017   0.332  0.00  0.00    +0.046 A 
ATOM     16  C   UNL     1       7.249  -2.684   0.510  0.00  0.00    +0.009 A 
ATOM     17  C   UNL     1       7.713  -2.944   1.786  0.00  0.00    -0.030 A 
ATOM     18  C   UNL     1       6.982  -2.538   2.887  0.00  0.00    +0.009 A 
ATOM     19  C   UNL     1       5.787  -1.866   2.714  0.00  0.00    +0.046 A 
BRANCH  14  20
ATOM     20  O   UNL     1       4.139  -0.952   1.263  0.00  0.00    -0.487 OA
BRANCH  20  21
ATOM     21  C   UNL     1       3.716  -0.721  -0.083  0.00  0.00    +0.264 C 
BRANCH  21  25
ATOM     22  C   UNL     1      -0.014   1.360  -0.067  0.00  0.00    +0.000 A 
ATOM     23  C   UNL     1       1.173   2.069  -0.073  0.00  0.00    +0.000 A 
ATOM     24  C   UNL     1       2.380   1.395  -0.078  0.00  0.00    +0.007 A 
ATOM     25  C   UNL     1       2.400   0.013  -0.076  0.00  0.00    -0.010 A 
ATOM     26  C   UNL     1       1.213  -0.696  -0.070  0.00  0.00    +0.007 A 
ATOM     27  C   UNL     1       0.006  -0.022  -0.066  0.00  0.00    +0.000 A 
ENDBRANCH  21  25
ENDBRANCH  20  21
ENDBRANCH  14  20
ENDBRANCH  13  17
ENDBRANCH   1  13
BRANCH   1  28
ATOM     28  C   UNL     1      10.521  -2.139   3.331  0.00  0.00    +0.111 C 
BRANCH  28  29
ATOM     29  C   UNL     1      11.607  -3.020   3.952  0.00  0.00    +0.041 C 
BRANCH  29  30
ATOM     30  C   UNL     1      12.031  -2.433   5.300  0.00  0.00    +0.124 C 
BRANCH  30  31
ATOM     31  N   UNL     1      13.071  -3.276   5.894  0.00  0.00    -0.338 N 
ATOM     32  C   UNL     1      12.872  -4.346   6.724  0.00  0.00    +0.104 A 
ATOM     33  C   UNL     1      14.090  -4.831   7.034  0.00  0.00    +0.101 A 
ATOM     34  N   UNL     1      15.007  -4.077   6.410  0.00  0.00    -0.352 N 
ATOM     35  C   UNL     1      14.404  -3.147   5.721  0.00  0.00    +0.173 A 
ATOM     36  H   UNL     1      15.967  -4.205   6.460  0.00  0.00    +0.166 HD
ENDBRANCH  30  31
ENDBRANCH  29  30
ENDBRANCH  28  29
ENDBRANCH   1  28
TORSDOF 10
