REMARK  Name = ZINC06187984
REMARK  10 active torsions:
REMARK  status: ('A' for Active; 'I' for Inactive)
REMARK    1  A    between atoms: C_1  and  C_2
REMARK    2  A    between atoms: C_8  and  C_12
REMARK    3  A    between atoms: C_15  and  C_16
REMARK    4  A    between atoms: C_15  and  O_22
REMARK    5  A    between atoms: N_27  and  C_28
REMARK    6  A    between atoms: C_28  and  C_29
REMARK    7  A    between atoms: C_29  and  N_55
REMARK    8  A    between atoms: C_30  and  C_31
REMARK    9  A    between atoms: C_30  and  N_55
REMARK   10  A    between atoms: C_31  and  O_32
REMARK                            x       y       z     vdW  Elec       q    Type
REMARK                         _______ _______ _______ _____ _____    ______ ____
ROOT
ATOM      1  C   UNL     1       1.505   2.380   5.409  0.00  0.00    +0.146 C 
ATOM      2  C   UNL     1       2.215   3.671   5.073  0.00  0.00    +0.071 C 
ATOM      3  C   UNL     1       2.173   4.353   3.874  0.00  0.00    +0.133 C 
ATOM      4  C   UNL     1       2.926   4.038   6.227  0.00  0.00    +0.249 C 
ATOM      5  O   UNL     1       3.625   5.027   6.352  0.00  0.00    -0.282 OA
ATOM      6  C   UNL     1       2.676   3.008   7.272  0.00  0.00    +0.288 C 
ATOM      7  O   UNL     1       3.144   3.025   8.392  0.00  0.00    -0.266 OA
ATOM      8  N   UNL     1       1.857   2.056   6.794  0.00  0.00    -0.285 N 
ENDROOT
BRANCH   1  16
ATOM      9  C   UNL     1      -1.152   1.679   0.383  0.00  0.00    +0.044 C 
ATOM     10  C   UNL     1      -1.480   2.031   1.811  0.00  0.00    -0.050 A 
ATOM     11  C   UNL     1      -2.793   2.299   2.170  0.00  0.00    +0.005 A 
ATOM     12  C   UNL     1      -3.115   2.618   3.471  0.00  0.00    +0.026 A 
ATOM     13  C   UNL     1      -2.113   2.682   4.434  0.00  0.00    +0.047 A 
ATOM     14  C   UNL     1      -0.783   2.415   4.064  0.00  0.00    +0.005 A 
ATOM     15  C   UNL     1      -0.480   2.089   2.741  0.00  0.00    +0.013 A 
ATOM     16  C   UNL     1       0.014   2.563   5.284  0.00  0.00    +0.003 A 
ATOM     17  C   UNL     1      -0.835   2.894   6.270  0.00  0.00    +0.089 A 
ATOM     18  N   UNL     1      -2.110   2.970   5.781  0.00  0.00    -0.360 N 
ATOM     19  H   UNL     1      -2.896   3.193   6.305  0.00  0.00    +0.165 HD
ENDBRANCH   1  16
BRANCH   3  20
ATOM     20  C   UNL     1       2.800   5.681   3.759  0.00  0.00    +0.017 A 
ATOM     21  C   UNL     1       2.503   6.681   4.690  0.00  0.00    +0.011 A 
ATOM     22  C   UNL     1       3.098   7.920   4.578  0.00  0.00    +0.001 A 
ATOM     23  C   UNL     1       3.978   8.179   3.542  0.00  0.00    +0.000 A 
ATOM     24  C   UNL     1       4.274   7.195   2.614  0.00  0.00    +0.001 A 
ATOM     25  C   UNL     1       3.691   5.950   2.715  0.00  0.00    +0.011 A 
ENDBRANCH   3  20
BRANCH   3  26
ATOM     26  O   UNL     1       1.558   3.802   2.806  0.00  0.00    -0.506 OA
ATOM     27  H   UNL     1       1.621   4.426   2.027  0.00  0.00    +0.292 HD
ENDBRANCH   3  26
BRANCH   8  28
ATOM     28  C   UNL     1       1.391   0.883   7.538  0.00  0.00    +0.090 C 
BRANCH  28  29
ATOM     29  C   UNL     1       2.370  -0.274   7.332  0.00  0.00    -0.063 C 
BRANCH  29  30
ATOM     30  N   UNL     1       1.894  -1.451   8.083  0.00  0.00    +0.382 N 
ATOM     31  H   UNL     1       0.963  -1.717   7.741  0.00  0.00    -0.086 HD
ATOM     32  H   UNL     1       1.837  -1.215   9.081  0.00  0.00    -0.086 HD
BRANCH  30  33
ATOM     33  C   UNL     1       2.821  -2.584   7.902  0.00  0.00    -0.054 C 
BRANCH  33  34
ATOM     34  C   UNL     1       2.301  -3.787   8.692  0.00  0.00    +0.137 C 
BRANCH  34  35
ATOM     35  O   UNL     1       1.057  -4.219   8.138  0.00  0.00    -0.397 OA
ATOM     36  H   UNL     1       0.669  -4.981   8.590  0.00  0.00    +0.209 HD
ENDBRANCH  34  35
ENDBRANCH  33  34
ENDBRANCH  30  33
ENDBRANCH  29  30
ENDBRANCH  28  29
ENDBRANCH   8  28
TORSDOF 9
