REMARK  Name = ZINC03847315
REMARK  4 active torsions:
REMARK  status: ('A' for Active; 'I' for Inactive)
REMARK    1  A    between atoms: C_1  and  O_2
REMARK    2  A    between atoms: O_2  and  C_3
REMARK    3  A    between atoms: C_7  and  O_9
REMARK    4  A    between atoms: C_10  and  O_14
REMARK                            x       y       z     vdW  Elec       q    Type
REMARK                         _______ _______ _______ _____ _____    ______ ____
ROOT
ATOM      1  C   UNL     1      -4.925   0.700   1.058  0.00  0.00    +0.124 A 
ATOM      2  C   UNL     1      -4.156   0.656  -0.095  0.00  0.00    +0.048 A 
ATOM      3  C   UNL     1      -2.800   0.936  -0.046  0.00  0.00    -0.052 A 
ATOM      4  C   UNL     1      -2.211   1.264   1.157  0.00  0.00    +0.022 A 
ATOM      5  C   UNL     1      -2.979   1.307   2.317  0.00  0.00    +0.126 A 
ATOM      6  C   UNL     1      -4.334   1.026   2.268  0.00  0.00    +0.091 A 
ATOM      7  C   UNL     1      -0.736   1.583   1.260  0.00  0.00    +0.131 C 
ATOM      8  C   UNL     1      -0.013   1.086   0.008  0.00  0.00    -0.045 C 
ATOM      9  C   UNL     1      -2.009   0.871  -1.326  0.00  0.00    -0.046 C 
ATOM     10  N   UNL     1      -0.730   1.581  -1.181  0.00  0.00    +0.384 N 
ATOM     11  H   UNL     1      -0.156   1.421  -2.017  0.00  0.00    -0.085 HD
ATOM     12  H   UNL     1      -0.909   2.587  -1.077  0.00  0.00    -0.085 HD
ENDROOT
BRANCH   1  14
ATOM     13  C   UNL     1      -6.983   0.488   2.229  0.00  0.00    +0.277 C 
ATOM     14  O   UNL     1      -6.254   0.424   1.001  0.00  0.00    -0.495 OA
ENDBRANCH   1  14
BRANCH   5  15
ATOM     15  O   UNL     1      -2.396   1.627   3.502  0.00  0.00    -0.506 OA
ATOM     16  H   UNL     1      -2.400   2.573   3.699  0.00  0.00    +0.292 HD
ENDBRANCH   5  15
BRANCH   7  17
ATOM     17  O   UNL     1      -0.186   0.942   2.412  0.00  0.00    -0.389 OA
ATOM     18  H   UNL     1       0.758   1.110   2.542  0.00  0.00    +0.210 HD
ENDBRANCH   7  17
TORSDOF 3
