REMARK  Name = ZINC50224613
REMARK  4 active torsions:
REMARK  status: ('A' for Active; 'I' for Inactive)
REMARK    1  A    between atoms: C_2  and  C_14
REMARK    2  A    between atoms: N_5  and  C_6
REMARK    3  A    between atoms: C_6  and  C_7
REMARK    4  A    between atoms: C_14  and  N_15
REMARK                            x       y       z     vdW  Elec       q    Type
REMARK                         _______ _______ _______ _____ _____    ______ ____
ROOT
ATOM      1  C   UNL     1      -0.016   1.349   0.009  0.00  0.00    +0.131 A 
ATOM      2  C   UNL     1       1.278   1.744  -0.001  0.00  0.00    +0.066 A 
ATOM      3  N   UNL     1       2.016   0.627  -0.014  0.00  0.00    -0.136 NA
ATOM      4  N   UNL     1       1.230  -0.391  -0.012  0.00  0.00    -0.065 NA
ATOM      5  N   UNL     1       0.002  -0.004   0.002  0.00  0.00    -0.248 N 
ENDROOT
BRANCH   5   6
ATOM      6  C   UNL     1      -1.173  -0.878   0.009  0.00  0.00    +0.191 C 
BRANCH   6   7
ATOM      7  C   UNL     1      -1.100  -1.840  -1.179  0.00  0.00    +0.216 C 
ATOM      8  C   UNL     1      -2.353  -2.747  -1.233  0.00  0.00    +0.154 C 
ATOM      9  N   UNL     1      -1.785  -4.037  -1.671  0.00  0.00    -0.278 N 
ATOM     10  C   UNL     1      -0.449  -3.971  -1.519  0.00  0.00    +0.401 C 
ATOM     11  O   UNL     1       0.307  -4.872  -1.821  0.00  0.00    -0.226 OA
ATOM     12  O   UNL     1      -0.041  -2.801  -0.999  0.00  0.00    -0.444 OA
ATOM     13  H   UNL     1      -2.285  -4.797  -2.009  0.00  0.00    +0.152 HD
ENDBRANCH   6   7
ENDBRANCH   5   6
BRANCH   2  14
ATOM     14  C   UNL     1       1.789   3.162   0.002  0.00  0.00    -0.027 C 
BRANCH  14  15
ATOM     15  N   UNL     1       2.081   3.575   1.381  0.00  0.00    +0.382 N 
ATOM     16  H   UNL     1       2.423   4.524   1.382  0.00  0.00    -0.090 HD
ATOM     17  H   UNL     1       1.239   3.519   1.934  0.00  0.00    -0.090 HD
ATOM     18  H   UNL     1       2.782   2.964   1.773  0.00  0.00    -0.090 HD
ENDBRANCH  14  15
ENDBRANCH   2  14
TORSDOF 4
