REMARK  Name = ZINC56206727
REMARK  10 active torsions:
REMARK  status: ('A' for Active; 'I' for Inactive)
REMARK    1  A    between atoms: C_1  and  C_2
REMARK    2  A    between atoms: C_4  and  O_25
REMARK    3  A    between atoms: C_7  and  N_8
REMARK    4  A    between atoms: N_8  and  C_9
REMARK    5  A    between atoms: C_9  and  C_11
REMARK    6  A    between atoms: C_9  and  C_12
REMARK    7  A    between atoms: N_17  and  C_18
REMARK    8  A    between atoms: C_18  and  C_19
REMARK    9  A    between atoms: O_25  and  C_26
REMARK   10  A    between atoms: C_26  and  C_27
REMARK                            x       y       z     vdW  Elec       q    Type
REMARK                         _______ _______ _______ _____ _____    ______ ____
ROOT
ATOM      1  C   UNL     1       0.047  -0.752   3.681  0.00  0.00    +0.154 C 
ATOM      2  C   UNL     1      -1.381  -1.138   4.071  0.00  0.00    +0.038 C 
ENDROOT
BRANCH   1   3
ATOM      3  C   UNL     1       0.646   0.114   4.759  0.00  0.00    +0.240 C 
ATOM      4  O   UNL     1       1.018   1.237   4.497  0.00  0.00    -0.273 OA
ATOM      5  N   UNL     1       0.769  -0.362   6.014  0.00  0.00    -0.239 N 
ATOM      6  C   UNL     1       1.304   0.413   6.979  0.00  0.00    +0.306 C 
ATOM      7  O   UNL     1       1.677   1.539   6.716  0.00  0.00    -0.252 OA
ATOM      8  N   UNL     1       1.427  -0.063   8.234  0.00  0.00    -0.295 N 
ATOM      9  H   UNL     1       0.471  -1.261   6.224  0.00  0.00    +0.159 HD
ATOM     10  H   UNL     1       1.129  -0.962   8.443  0.00  0.00    +0.151 HD
BRANCH   8  11
ATOM     11  C   UNL     1       2.009   0.779   9.282  0.00  0.00    +0.141 C 
BRANCH  11  12
ATOM     12  C   UNL     1       2.032   0.018  10.583  0.00  0.00    -0.030 A 
ATOM     13  C   UNL     1       0.951   0.086  11.442  0.00  0.00    +0.005 A 
ATOM     14  C   UNL     1       0.972  -0.612  12.635  0.00  0.00    +0.000 A 
ATOM     15  C   UNL     1       2.073  -1.379  12.968  0.00  0.00    +0.000 A 
ATOM     16  C   UNL     1       3.153  -1.448  12.108  0.00  0.00    +0.000 A 
ATOM     17  C   UNL     1       3.131  -0.753  10.913  0.00  0.00    +0.005 A 
ENDBRANCH  11  12
ENDBRANCH   8  11
ENDBRANCH   1   3
BRANCH   1  18
ATOM     18  N   UNL     1       0.025  -0.012   2.416  0.00  0.00    -0.333 N 
ATOM     19  H   UNL     1       0.012   0.958   2.422  0.00  0.00    +0.147 HD
BRANCH  18  26
ATOM     20  C   UNL     1      -0.018   1.503   0.010  0.00  0.00    +0.046 C 
ATOM     21  C   UNL     1       0.002  -0.004   0.002  0.00  0.00    -0.026 A 
ATOM     22  C   UNL     1       0.006  -0.688  -1.198  0.00  0.00    +0.050 A 
ATOM     23  C   UNL     1       0.025  -2.075  -1.206  0.00  0.00    +0.122 A 
ATOM     24  C   UNL     1       0.040  -2.776  -0.009  0.00  0.00    +0.047 A 
ATOM     25  C   UNL     1       0.036  -2.094   1.192  0.00  0.00    +0.027 A 
ATOM     26  C   UNL     1       0.023  -0.705   1.200  0.00  0.00    +0.031 A 
BRANCH  23  27
ATOM     27  O   UNL     1       0.028  -2.748  -2.388  0.00  0.00    -0.483 OA
BRANCH  27  28
ATOM     28  C   UNL     1       0.047  -4.175  -2.321  0.00  0.00    +0.324 C 
BRANCH  28  29
ATOM     29  C   UNL     1       0.048  -4.743  -3.717  0.00  0.00    +0.248 C 
ATOM     30  O   UNL     1       0.033  -3.998  -4.675  0.00  0.00    -0.272 OA
ATOM     31  N   UNL     1       0.065  -6.078  -3.902  0.00  0.00    -0.327 N 
ATOM     32  H   UNL     1       0.077  -6.673  -3.136  0.00  0.00    +0.145 HD
ATOM     33  H   UNL     1       0.066  -6.443  -4.801  0.00  0.00    +0.145 HD
ENDBRANCH  28  29
ENDBRANCH  27  28
ENDBRANCH  23  27
ENDBRANCH  18  26
ENDBRANCH   1  18
TORSDOF 8
