REMARK  Name = ZINC53293768
REMARK  7 active torsions:
REMARK  status: ('A' for Active; 'I' for Inactive)
REMARK    1  A    between atoms: C_1  and  C_2
REMARK    2  A    between atoms: C_7  and  C_8
REMARK    3  A    between atoms: N_9  and  N_10
REMARK    4  A    between atoms: N_11  and  C_12
REMARK    5  A    between atoms: C_12  and  C_13
REMARK    6  A    between atoms: C_13  and  O_14
REMARK    7  A    between atoms: O_14  and  C_15
REMARK                            x       y       z     vdW  Elec       q    Type
REMARK                         _______ _______ _______ _____ _____    ______ ____
ROOT
ATOM      1  C   UNL     1      -0.177  -0.156   2.588  0.00  0.00    +0.116 C 
ATOM      2  N   UNL     1      -0.283   1.138   2.670  0.00  0.00    -0.300 N 
ATOM      3  N   UNL     1       0.202  -0.897   3.708  0.00  0.00    -0.327 N 
ATOM      4  H   UNL     1       0.281  -1.862   3.647  0.00  0.00    +0.148 HD
ATOM      5  H   UNL     1      -0.185   1.580   3.528  0.00  0.00    +0.185 HD
ENDROOT
BRANCH   1  12
ATOM      6  C   UNL     1       1.856  -1.825   1.383  0.00  0.00    +0.044 C 
ATOM      7  C   UNL     1       0.515  -1.649   0.718  0.00  0.00    -0.039 A 
ATOM      8  C   UNL     1       0.244  -2.291  -0.473  0.00  0.00    +0.019 A 
ATOM      9  C   UNL     1      -0.987  -2.130  -1.086  0.00  0.00    +0.018 A 
ATOM     10  C   UNL     1      -1.954  -1.325  -0.507  0.00  0.00    +0.016 A 
ATOM     11  C   UNL     1      -1.696  -0.678   0.683  0.00  0.00    +0.012 A 
ATOM     12  C   UNL     1      -0.458  -0.842   1.309  0.00  0.00    +0.017 A 
ATOM     13 BR   UNL     1      -1.349  -3.012  -2.718  0.00  0.00    -0.050 Br
ENDBRANCH   1  12
BRANCH   2  14
ATOM     14  N   UNL     1      -0.539   1.894   1.518  0.00  0.00    -0.304 N 
ATOM     15  H   UNL     1      -0.502   1.475   0.645  0.00  0.00    +0.162 HD
ATOM     16  H   UNL     1      -0.754   2.837   1.595  0.00  0.00    +0.162 HD
ENDBRANCH   2  14
BRANCH   3  17
ATOM     17  C   UNL     1       0.480  -0.218   4.976  0.00  0.00    +0.131 C 
BRANCH  17  18
ATOM     18  C   UNL     1       0.871  -1.253   6.033  0.00  0.00    +0.178 C 
BRANCH  18  19
ATOM     19  O   UNL     1       2.102  -1.874   5.659  0.00  0.00    -0.381 OA
ATOM     20  C   UNL     1       2.559  -2.862   6.585  0.00  0.00    +0.194 C 
ENDBRANCH  18  19
ENDBRANCH  17  18
ENDBRANCH   3  17
TORSDOF 5
