REMARK  Name = ZINC39683874
REMARK  6 active torsions:
REMARK  status: ('A' for Active; 'I' for Inactive)
REMARK    1  A    between atoms: C_1  and  C_2
REMARK    2  A    between atoms: C_2  and  C_4
REMARK    3  A    between atoms: C_2  and  N_8
REMARK    4  A    between atoms: N_6  and  C_7
REMARK    5  A    between atoms: C_9  and  C_11
REMARK    6  A    between atoms: C_22  and  C_24
REMARK                            x       y       z     vdW  Elec       q    Type
REMARK                         _______ _______ _______ _____ _____    ______ ____
ROOT
ATOM      1  C   UNL     1      -3.465  -1.164  -1.134  0.00  0.00    +0.100 C 
ATOM      2  C   UNL     1      -4.361  -0.271  -0.248  0.00  0.00    +0.121 C 
ATOM      3  N   UNL     1      -4.986   0.686  -1.192  0.00  0.00    -0.300 N 
ATOM      4  C   UNL     1      -5.291  -0.128  -2.393  0.00  0.00    +0.115 C 
ATOM      5  C   UNL     1      -4.080  -1.071  -2.540  0.00  0.00    -0.004 C 
ATOM      6  C   UNL     1      -4.538  -2.449  -3.009  0.00  0.00    -0.010 C 
ATOM      7  C   UNL     1      -5.093  -2.341  -4.432  0.00  0.00    -0.082 C 
ATOM      8  N   UNL     1      -4.053  -1.817  -5.326  0.00  0.00    +0.379 N 
ATOM      9  C   UNL     1      -3.685  -0.455  -4.923  0.00  0.00    -0.082 C 
ATOM     10  C   UNL     1      -3.071  -0.483  -3.521  0.00  0.00    -0.010 C 
ATOM     11  C   UNL     1      -5.223   1.999  -1.002  0.00  0.00    +0.219 C 
ATOM     12  O   UNL     1      -5.747   2.654  -1.878  0.00  0.00    -0.275 OA
ATOM     13  H   UNL     1      -3.240  -2.412  -5.278  0.00  0.00    -0.086 HD
ATOM     14  H   UNL     1      -4.401  -1.804  -6.273  0.00  0.00    -0.086 HD
ENDROOT
BRANCH   1  16
ATOM     15  N   UNL     1      -1.021  -1.491  -1.337  0.00  0.00    -0.304 N 
ATOM     16  C   UNL     1      -2.051  -0.643  -1.145  0.00  0.00    +0.219 C 
ATOM     17  O   UNL     1      -1.840   0.540  -0.980  0.00  0.00    -0.275 OA
ATOM     18  H   UNL     1      -1.190  -2.437  -1.470  0.00  0.00    +0.149 HD
BRANCH  15  20
ATOM     19  C   UNL     1       0.878  -0.904   0.087  0.00  0.00    +0.038 C 
ATOM     20  C   UNL     1       0.353  -0.984  -1.348  0.00  0.00    +0.156 C 
BRANCH  20  21
ATOM     21  C   UNL     1       1.226  -1.913  -2.152  0.00  0.00    +0.233 C 
ATOM     22  O   UNL     1       0.746  -2.902  -2.665  0.00  0.00    -0.274 OA
ATOM     23  N   UNL     1       2.538  -1.646  -2.300  0.00  0.00    -0.317 N 
ATOM     24  C   UNL     1       3.386  -2.550  -3.081  0.00  0.00    +0.128 C 
ATOM     25  H   UNL     1       2.921  -0.855  -1.889  0.00  0.00    +0.148 HD
ENDBRANCH  20  21
ENDBRANCH  15  20
ENDBRANCH   1  16
BRANCH  11  26
ATOM     26  C   UNL     1      -4.838   2.653   0.300  0.00  0.00    +0.075 C 
ATOM     27  C   UNL     1      -5.874   2.456   1.419  0.00  0.00    +0.013 C 
ATOM     28  C   UNL     1      -5.606   3.917   1.817  0.00  0.00    +0.001 C 
ATOM     29  C   UNL     1      -5.175   4.152   0.359  0.00  0.00    +0.013 C 
ENDBRANCH  11  26
TORSDOF 4
