REMARK  Name = ZINC33303015
REMARK  8 active torsions:
REMARK  status: ('A' for Active; 'I' for Inactive)
REMARK    1  A    between atoms: C_1  and  C_2
REMARK    2  A    between atoms: C_2  and  C_3
REMARK    3  A    between atoms: C_2  and  C_4
REMARK    4  A    between atoms: C_4  and  C_5
REMARK    5  A    between atoms: C_5  and  N_6
REMARK    6  A    between atoms: N_9  and  C_10
REMARK    7  A    between atoms: C_20  and  C_23
REMARK    8  A    between atoms: N_25  and  C_26
REMARK                            x       y       z     vdW  Elec       q    Type
REMARK                         _______ _______ _______ _____ _____    ______ ____
ROOT
ATOM      1  C   UNL     1      -1.191  11.154  -6.424  0.00  0.00    +0.051 A 
ATOM      2  C   UNL     1      -1.939  10.461  -7.376  0.00  0.00    +0.028 A 
ATOM      3  C   UNL     1      -2.264   9.141  -7.124  0.00  0.00    +0.043 A 
ATOM      4  C   UNL     1      -1.838   8.552  -5.938  0.00  0.00    +0.099 A 
ATOM      5  N   UNL     1      -1.134   9.242  -5.055  0.00  0.00    -0.348 N 
ATOM      6  C   UNL     1      -0.802  10.502  -5.265  0.00  0.00    +0.107 A 
ATOM      7  N   UNL     1      -2.161   7.224  -5.675  0.00  0.00    -0.316 N 
ATOM      8  C   UNL     1      -1.700   6.345  -6.757  0.00  0.00    +0.106 C 
ATOM      9  C   UNL     1      -2.197   4.920  -6.507  0.00  0.00    +0.020 C 
ATOM     10  C   UNL     1      -1.660   4.426  -5.160  0.00  0.00    +0.016 C 
ATOM     11  C   UNL     1      -2.114   5.386  -4.056  0.00  0.00    +0.092 C 
ATOM     12  C   UNL     1      -1.619   6.798  -4.378  0.00  0.00    +0.119 C 
ATOM     13  H   UNL     1      -0.811   8.767  -4.117  0.00  0.00    +0.167 HD
ENDROOT
BRANCH   1  17
ATOM     14  N   UNL     1      -1.279  14.565  -7.621  0.00  0.00    -0.299 N 
ATOM     15  C   UNL     1      -1.665  13.308  -7.323  0.00  0.00    +0.304 C 
ATOM     16  O   UNL     1      -2.759  12.909  -7.673  0.00  0.00    -0.253 OA
ATOM     17  N   UNL     1      -0.838  12.494  -6.638  0.00  0.00    -0.268 N 
ATOM     18  H   UNL     1      -0.290  14.926  -7.304  0.00  0.00    +0.150 HD
ATOM     19  H   UNL     1       0.114  12.881  -6.246  0.00  0.00    +0.156 HD
BRANCH  14  20
ATOM     20  C   UNL     1      -2.178  15.450  -8.366  0.00  0.00    +0.106 C 
BRANCH  20  21
ATOM     21  C   UNL     1      -1.504  16.808  -8.570  0.00  0.00    +0.022 C 
BRANCH  21  23
ATOM     22  C   UNL     1      -3.687  18.021  -8.506  0.00  0.00    +0.007 C 
ATOM     23  C   UNL     1      -2.442  17.732  -9.348  0.00  0.00    -0.016 C 
ATOM     24  C   UNL     1      -1.722  19.045  -9.660  0.00  0.00    +0.007 C 
ENDBRANCH  21  23
ENDBRANCH  20  21
ENDBRANCH  14  20
ENDBRANCH   1  17
BRANCH  11  25
ATOM     25  C   UNL     1      -1.540   4.941  -2.736  0.00  0.00    +0.218 C 
ATOM     26  O   UNL     1      -0.809   5.680  -2.112  0.00  0.00    -0.275 OA
ATOM     27  N   UNL     1      -1.840   3.720  -2.248  0.00  0.00    -0.312 N 
ATOM     28  H   UNL     1      -2.504   3.050  -2.813  0.00  0.00    +0.149 HD
BRANCH  27  29
ATOM     29  C   UNL     1      -1.283   3.288  -0.964  0.00  0.00    +0.073 C 
ATOM     30  C   UNL     1      -1.229   1.759  -0.920  0.00  0.00    +0.022 C 
ATOM     31  C   UNL     1      -0.646   1.307   0.420  0.00  0.00    +0.002 C 
ATOM     32  C   UNL     1      -1.531   1.819   1.559  0.00  0.00    +0.000 C 
ATOM     33  C   UNL     1      -1.585   3.347   1.516  0.00  0.00    +0.002 C 
ATOM     34  C   UNL     1      -2.168   3.799   0.175  0.00  0.00    +0.022 C 
ENDBRANCH  27  29
ENDBRANCH  11  25
TORSDOF 6
