REMARK  Name = ZINC39853517
REMARK  11 active torsions:
REMARK  status: ('A' for Active; 'I' for Inactive)
REMARK    1  A    between atoms: C_1  and  C_2
REMARK    2  A    between atoms: N_4  and  C_5
REMARK    3  A    between atoms: C_6  and  C_14
REMARK    4  A    between atoms: C_14  and  C_16
REMARK    5  A    between atoms: C_14  and  N_26
REMARK    6  A    between atoms: C_19  and  O_24
REMARK    7  A    between atoms: C_20  and  O_22
REMARK    8  A    between atoms: O_22  and  C_23
REMARK    9  A    between atoms: O_24  and  C_25
REMARK   10  A    between atoms: C_29  and  C_32
REMARK   11  A    between atoms: C_32  and  C_33
REMARK                            x       y       z     vdW  Elec       q    Type
REMARK                         _______ _______ _______ _____ _____    ______ ____
ROOT
ATOM      1  C   UNL     1      -3.585  -2.446   0.226  0.00  0.00    -0.004 C 
ENDROOT
BRANCH   1   3
ATOM      2  C   UNL     1      -1.103  -2.537   0.173  0.00  0.00    +0.074 A 
ATOM      3  C   UNL     1      -2.285  -3.208   0.210  0.00  0.00    -0.025 A 
ATOM      4  C   UNL     1      -2.292  -4.603   0.235  0.00  0.00    -0.033 A 
ATOM      5  C   UNL     1      -1.080  -5.218   0.220  0.00  0.00    -0.005 A 
ATOM      6  S   UNL     1       0.078  -3.877   0.163  0.00  0.00    -0.078 S 
ATOM      7  C   UNL     1      -0.803  -6.687   0.241  0.00  0.00    +0.043 C 
ATOM      8  C   UNL     1      -2.092  -7.415   0.653  0.00  0.00    +0.005 C 
ATOM      9  C   UNL     1      -3.256  -6.856  -0.170  0.00  0.00    +0.005 C 
ATOM     10  C   UNL     1      -3.575  -5.429   0.276  0.00  0.00    +0.036 C 
BRANCH   2  14
ATOM     11  C   UNL     1       0.626   0.797  -0.064  0.00  0.00    +0.109 C 
ATOM     12  C   UNL     1       0.378  -0.689  -0.032  0.00  0.00    +0.214 C 
ATOM     13  O   UNL     1       1.304  -1.462  -0.165  0.00  0.00    -0.276 OA
ATOM     14  N   UNL     1      -0.873  -1.159   0.144  0.00  0.00    -0.280 N 
ATOM     15  H   UNL     1      -1.613  -0.541   0.249  0.00  0.00    +0.155 HD
ENDBRANCH   2  14
ENDBRANCH   1   3
BRANCH   1  16
ATOM     16  N   UNL     1      -3.572  -1.432  -0.837  0.00  0.00    +0.387 N 
ATOM     17  C   UNL     1      -4.881  -0.771  -0.898  0.00  0.00    -0.077 C 
ATOM     18  C   UNL     1      -4.847   0.341  -1.949  0.00  0.00    -0.015 C 
ATOM     19  C   UNL     1      -4.515  -0.265  -3.315  0.00  0.00    -0.010 C 
ATOM     20  C   UNL     1      -3.183  -1.015  -3.220  0.00  0.00    -0.015 C 
ATOM     21  C   UNL     1      -3.278  -2.077  -2.122  0.00  0.00    -0.077 C 
ATOM     22  H   UNL     1      -2.860  -0.745  -0.636  0.00  0.00    -0.080 HD
BRANCH  19  23
ATOM     23  C   UNL     1      -4.401   0.850  -4.356  0.00  0.00    +0.038 C 
BRANCH  23  24
ATOM     24  C   UNL     1      -4.196   0.245  -5.721  0.00  0.00    -0.047 A 
ATOM     25  C   UNL     1      -2.917  -0.005  -6.181  0.00  0.00    +0.003 A 
ATOM     26  C   UNL     1      -2.729  -0.560  -7.433  0.00  0.00    +0.000 A 
ATOM     27  C   UNL     1      -3.820  -0.865  -8.225  0.00  0.00    +0.000 A 
ATOM     28  C   UNL     1      -5.099  -0.615  -7.764  0.00  0.00    +0.000 A 
ATOM     29  C   UNL     1      -5.287  -0.064  -6.511  0.00  0.00    +0.003 A 
ENDBRANCH  23  24
ENDBRANCH  19  23
ENDBRANCH   1  16
BRANCH   1  30
ATOM     30  C   UNL     1      -3.756  -1.770   1.562  0.00  0.00    -0.053 A 
ATOM     31  C   UNL     1      -3.394  -0.445   1.716  0.00  0.00    +0.006 A 
ATOM     32  C   UNL     1      -3.548   0.179   2.940  0.00  0.00    +0.049 A 
ATOM     33  C   UNL     1      -4.067  -0.523   4.016  0.00  0.00    +0.161 A 
ATOM     34  C   UNL     1      -4.431  -1.857   3.861  0.00  0.00    +0.162 A 
ATOM     35  C   UNL     1      -4.279  -2.475   2.630  0.00  0.00    +0.051 A 
BRANCH  34  36
ATOM     36  O   UNL     1      -4.941  -2.551   4.913  0.00  0.00    -0.491 OA
ATOM     37  C   UNL     1      -5.293  -3.917   4.681  0.00  0.00    +0.277 C 
ENDBRANCH  34  36
BRANCH  33  38
ATOM     38  O   UNL     1      -4.219   0.089   5.221  0.00  0.00    -0.491 OA
ATOM     39  C   UNL     1      -3.823   1.460   5.306  0.00  0.00    +0.277 C 
ENDBRANCH  33  38
ENDBRANCH   1  30
TORSDOF 8
