REMARK  Name = ZINC34997822
REMARK  12 active torsions:
REMARK  status: ('A' for Active; 'I' for Inactive)
REMARK    1  A    between atoms: C_1  and  C_2
REMARK    2  A    between atoms: C_5  and  N_8
REMARK    3  A    between atoms: N_14  and  C_17
REMARK    4  A    between atoms: C_17  and  C_18
REMARK    5  A    between atoms: C_18  and  N_19
REMARK    6  A    between atoms: N_19  and  C_20
REMARK    7  A    between atoms: C_20  and  C_21
REMARK    8  A    between atoms: C_29  and  C_30
REMARK    9  A    between atoms: C_29  and  C_31
REMARK   10  A    between atoms: C_32  and  C_34
REMARK   11  A    between atoms: C_37  and  O_40
REMARK   12  A    between atoms: O_40  and  C_41
REMARK                            x       y       z     vdW  Elec       q    Type
REMARK                         _______ _______ _______ _____ _____    ______ ____
ROOT
ATOM      1  N   UNL     1      -1.851 -12.527   2.472  0.00  0.00    -0.295 N 
ATOM      2  C   UNL     1      -3.194 -12.426   2.408  0.00  0.00    +0.247 C 
ATOM      3  O   UNL     1      -3.841 -13.279   1.831  0.00  0.00    -0.270 OA
ENDROOT
BRANCH   2   4
ATOM      4  C   UNL     1      -3.878 -11.280   3.037  0.00  0.00    +0.037 A 
ATOM      5  C   UNL     1      -3.254 -10.031   3.084  0.00  0.00    +0.016 A 
ATOM      6  C   UNL     1      -3.897  -8.964   3.671  0.00  0.00    +0.046 A 
ATOM      7  C   UNL     1      -5.164  -9.128   4.218  0.00  0.00    +0.120 A 
ATOM      8  C   UNL     1      -5.788 -10.370   4.174  0.00  0.00    +0.046 A 
ATOM      9  C   UNL     1      -5.155 -11.440   3.583  0.00  0.00    +0.016 A 
BRANCH   7  10
ATOM     10  O   UNL     1      -5.793  -8.075   4.797  0.00  0.00    -0.495 OA
ATOM     11  C   UNL     1      -7.094  -8.314   5.339  0.00  0.00    +0.277 C 
ENDBRANCH   7  10
ENDBRANCH   2   4
BRANCH   1  12
ATOM     12  C   UNL     1      -1.071 -11.497   3.162  0.00  0.00    +0.090 C 
BRANCH  12  13
ATOM     13  C   UNL     1      -0.296 -10.671   2.133  0.00  0.00    -0.059 C 
BRANCH  13  20
ATOM     14  N   UNL     1       2.715  -5.349   2.521  0.00  0.00    -0.269 N 
ATOM     15  C   UNL     1       1.852  -5.872   3.414  0.00  0.00    +0.306 C 
ATOM     16  O   UNL     1       1.266  -5.143   4.191  0.00  0.00    -0.252 OA
ATOM     17  N   UNL     1       1.640  -7.202   3.448  0.00  0.00    -0.289 N 
ATOM     18  C   UNL     1       2.412  -8.113   2.589  0.00  0.00    +0.091 C 
ATOM     19  C   UNL     1       1.433  -9.033   1.853  0.00  0.00    -0.059 C 
ATOM     20  N   UNL     1       0.568  -9.708   2.829  0.00  0.00    +0.383 N 
ATOM     21  C   UNL     1      -0.266  -8.720   3.526  0.00  0.00    -0.059 C 
ATOM     22  C   UNL     1       0.634  -7.785   4.349  0.00  0.00    +0.091 C 
ATOM     23  H   UNL     1       3.184  -5.931   1.902  0.00  0.00    +0.156 HD
ATOM     24  H   UNL     1       1.140 -10.197   3.501  0.00  0.00    -0.082 HD
BRANCH  14  29
ATOM     25  C   UNL     1       3.606   0.252   2.375  0.00  0.00    +0.044 C 
ATOM     26  C   UNL     1       3.369  -1.236   2.414  0.00  0.00    -0.050 A 
ATOM     27  C   UNL     1       4.366  -2.104   2.007  0.00  0.00    +0.005 A 
ATOM     28  C   UNL     1       4.152  -3.468   2.041  0.00  0.00    +0.023 A 
ATOM     29  C   UNL     1       2.935  -3.968   2.485  0.00  0.00    +0.035 A 
ATOM     30  C   UNL     1       1.936  -3.094   2.893  0.00  0.00    +0.023 A 
ATOM     31  C   UNL     1       2.158  -1.731   2.861  0.00  0.00    +0.005 A 
ENDBRANCH  14  29
ENDBRANCH  13  20
ENDBRANCH  12  13
ENDBRANCH   1  12
BRANCH   1  32
ATOM     32  C   UNL     1      -1.172 -13.668   1.853  0.00  0.00    +0.138 C 
BRANCH  32  33
ATOM     33  C   UNL     1      -1.143 -14.822   2.821  0.00  0.00    -0.053 C 
ATOM     34  C   UNL     1      -2.069 -15.754   2.800  0.00  0.00    -0.025 C 
ATOM     35  C   UNL     1      -1.999 -16.898   3.783  0.00  0.00    +0.031 C 
ATOM     36  C   UNL     1      -0.810 -16.692   4.732  0.00  0.00    -0.000 C 
ATOM     37  C   UNL     1      -0.708 -15.250   5.257  0.00  0.00    +0.012 C 
ATOM     38  C   UNL     1      -0.039 -14.957   3.856  0.00  0.00    +0.022 C 
ATOM     39  C   UNL     1       0.480 -16.400   3.939  0.00  0.00    -0.025 C 
ATOM     40  C   UNL     1       0.549 -17.108   2.585  0.00  0.00    +0.012 C 
ATOM     41  C   UNL     1       1.761 -16.551   4.763  0.00  0.00    +0.012 C 
ENDBRANCH  32  33
ENDBRANCH   1  32
TORSDOF 8
