REMARK  Name = ZINC36888036
REMARK  3 active torsions:
REMARK  status: ('A' for Active; 'I' for Inactive)
REMARK    1  A    between atoms: C_10  and  O_12
REMARK    2  A    between atoms: O_12  and  C_13
REMARK    3  A    between atoms: C_16  and  C_20
REMARK                            x       y       z     vdW  Elec       q    Type
REMARK                         _______ _______ _______ _____ _____    ______ ____
ROOT
ATOM      1  C   UNL     1       5.435   0.949   0.299  0.00  0.00    +0.156 A 
ATOM      2  C   UNL     1       5.301   1.296  -1.039  0.00  0.00    +0.049 A 
ATOM      3  C   UNL     1       6.120   2.257  -1.590  0.00  0.00    +0.015 A 
ATOM      4  C   UNL     1       7.086   2.885  -0.801  0.00  0.00    +0.015 A 
ATOM      5  C   UNL     1       7.220   2.535   0.544  0.00  0.00    +0.053 A 
ATOM      6  C   UNL     1       6.393   1.575   1.091  0.00  0.00    +0.165 A 
ATOM      7  F   UNL     1       6.517   1.240   2.393  0.00  0.00    -0.202 F 
ENDROOT
BRANCH   4   8
ATOM      8  C   UNL     1       7.966   3.916  -1.389  0.00  0.00    +0.094 C 
ATOM      9  N   UNL     1       8.888   4.514  -0.635  0.00  0.00    -0.387 N 
ATOM     10  N   UNL     1       7.838   4.248  -2.673  0.00  0.00    -0.345 N 
ATOM     11  H   UNL     1       8.981   4.272   0.300  0.00  0.00    +0.157 HD
ATOM     12  H   UNL     1       7.167   3.812  -3.222  0.00  0.00    +0.144 HD
ATOM     13  H   UNL     1       8.416   4.925  -3.059  0.00  0.00    +0.144 HD
ATOM     14  H   UNL     1       9.466   5.191  -1.021  0.00  0.00    +0.157 HD
ENDBRANCH   4   8
BRANCH   1  15
ATOM     15  O   UNL     1       4.626   0.001   0.838  0.00  0.00    -0.481 OA
BRANCH  15  25
ATOM     16  C   UNL     1      -0.024   1.329  -0.025  0.00  0.00    +0.000 A 
ATOM     17  C   UNL     1       1.160   2.042  -0.028  0.00  0.00    +0.000 A 
ATOM     18  C   UNL     1       2.365   1.371  -0.036  0.00  0.00    +0.007 A 
ATOM     19  C   UNL     1       2.399  -0.018  -0.039  0.00  0.00    -0.004 A 
ATOM     20  C   UNL     1       1.220  -0.729  -0.031  0.00  0.00    -0.041 A 
ATOM     21  C   UNL     1       0.008  -0.050  -0.027  0.00  0.00    +0.004 A 
ATOM     22  C   UNL     1       1.181  -2.235  -0.018  0.00  0.00    +0.035 C 
ATOM     23  C   UNL     1       2.527  -2.810  -0.454  0.00  0.00    +0.009 C 
ATOM     24  C   UNL     1       3.630  -2.146   0.379  0.00  0.00    +0.050 C 
ATOM     25  C   UNL     1       3.748  -0.687  -0.056  0.00  0.00    +0.204 C 
ENDBRANCH  15  25
ENDBRANCH   1  15
TORSDOF 3
