REMARK  Name = ZINC23581265
REMARK  8 active torsions:
REMARK  status: ('A' for Active; 'I' for Inactive)
REMARK    1  A    between atoms: C_1  and  C_2
REMARK    2  A    between atoms: C_2  and  O_3
REMARK    3  A    between atoms: O_3  and  C_4
REMARK    4  A    between atoms: C_4  and  C_6
REMARK    5  A    between atoms: C_7  and  C_14
REMARK    6  A    between atoms: C_14  and  N_15
REMARK    7  A    between atoms: C_19  and  C_21
REMARK    8  A    between atoms: C_24  and  C_26
REMARK                            x       y       z     vdW  Elec       q    Type
REMARK                         _______ _______ _______ _____ _____    ______ ____
ROOT
ATOM      1  N   UNL     1       0.053  -5.503  -2.664  0.00  0.00    +0.388 N 
ATOM      2  C   UNL     1       0.575  -6.218  -3.849  0.00  0.00    -0.077 C 
ATOM      3  C   UNL     1       0.809  -7.670  -3.363  0.00  0.00    -0.020 C 
ATOM      4  C   UNL     1      -0.392  -7.878  -2.404  0.00  0.00    -0.012 C 
ATOM      5  C   UNL     1      -0.564  -6.487  -1.756  0.00  0.00    -0.030 C 
ATOM      6  H   UNL     1      -0.638  -4.829  -2.955  0.00  0.00    -0.080 HD
ENDROOT
BRANCH   5   7
ATOM      7  C   UNL     1      -2.029  -6.179  -1.586  0.00  0.00    -0.023 A 
ATOM      8  C   UNL     1      -2.767  -6.242  -0.450  0.00  0.00    +0.010 A 
ATOM      9  C   UNL     1      -4.101  -5.918  -0.501  0.00  0.00    +0.021 A 
ATOM     10  C   UNL     1      -4.583  -5.545  -1.747  0.00  0.00    +0.074 A 
ATOM     11  S   UNL     1      -3.120  -5.671  -2.758  0.00  0.00    -0.090 S 
BRANCH  10  12
ATOM     12  C   UNL     1      -5.940  -5.146  -2.131  0.00  0.00    +0.248 C 
ATOM     13  O   UNL     1      -6.183  -4.848  -3.286  0.00  0.00    -0.270 OA
ATOM     14  N   UNL     1      -6.919  -5.108  -1.205  0.00  0.00    -0.325 N 
ATOM     15  H   UNL     1      -6.726  -5.345  -0.285  0.00  0.00    +0.145 HD
ATOM     16  H   UNL     1      -7.817  -4.844  -1.459  0.00  0.00    +0.145 HD
ENDBRANCH  10  12
ENDBRANCH   5   7
BRANCH   1  17
ATOM     17  C   UNL     1       1.155  -4.819  -1.976  0.00  0.00    -0.021 C 
BRANCH  17  19
ATOM     18  C   UNL     1       2.928  -3.657  -3.393  0.00  0.00    +0.146 A 
ATOM     19  C   UNL     1       1.689  -3.716  -2.854  0.00  0.00    +0.034 A 
ATOM     20  N   UNL     1       1.005  -2.598  -3.249  0.00  0.00    -0.311 N 
ATOM     21  H   UNL     1       0.091  -2.380  -3.009  0.00  0.00    +0.170 HD
ATOM     22  C   UNL     1       1.811  -1.850  -4.026  0.00  0.00    +0.325 A 
ATOM     23  O   UNL     1       1.515  -0.789  -4.543  0.00  0.00    -0.247 OA
ATOM     24  N   UNL     1       3.003  -2.470  -4.129  0.00  0.00    -0.301 N 
ATOM     25  H   UNL     1       3.773  -2.152  -4.626  0.00  0.00    +0.171 HD
BRANCH  18  26
ATOM     26  C   UNL     1       3.995  -4.647  -3.230  0.00  0.00    +0.357 C 
ATOM     27  O   UNL     1       3.803  -5.644  -2.560  0.00  0.00    -0.243 OA
BRANCH  26  28
ATOM     28  O   UNL     1       5.191  -4.454  -3.824  0.00  0.00    -0.460 OA
BRANCH  28  30
ATOM     29  C   UNL     1       7.463  -5.071  -4.367  0.00  0.00    +0.048 C 
ATOM     30  C   UNL     1       6.185  -5.461  -3.623  0.00  0.00    +0.229 C 
ENDBRANCH  28  30
ENDBRANCH  26  28
ENDBRANCH  18  26
ENDBRANCH  17  19
ENDBRANCH   1  17
TORSDOF 7
