REMARK  Name = ZINC66242127
REMARK  5 active torsions:
REMARK  status: ('A' for Active; 'I' for Inactive)
REMARK    1  A    between atoms: C_6  and  C_7
REMARK    2  A    between atoms: C_7  and  C_12
REMARK    3  A    between atoms: C_12  and  N_13
REMARK    4  A    between atoms: N_15  and  C_16
REMARK    5  A    between atoms: C_16  and  C_17
REMARK                            x       y       z     vdW  Elec       q    Type
REMARK                         _______ _______ _______ _____ _____    ______ ____
ROOT
ATOM      1  C   UNL     1      -1.287  -0.765   0.016  0.00  0.00    +0.013 C 
ATOM      2  C   UNL     1      -1.215  -1.497  -1.340  0.00  0.00    +0.013 C 
ATOM      3  C   UNL     1      -2.691  -1.591  -1.800  0.00  0.00    +0.001 C 
ATOM      4  C   UNL     1      -3.277  -0.231  -1.346  0.00  0.00    +0.001 C 
ATOM      5  C   UNL     1      -2.598   0.040   0.013  0.00  0.00    +0.013 C 
ENDROOT
BRANCH   1  11
ATOM      6  C   UNL     1       0.695   0.086   1.284  0.00  0.00    +0.008 A 
ATOM      7  C   UNL     1       1.774   0.938   1.424  0.00  0.00    +0.050 A 
ATOM      8  C   UNL     1       2.051   1.876   0.441  0.00  0.00    +0.162 A 
ATOM      9  C   UNL     1       1.242   1.954  -0.687  0.00  0.00    +0.162 A 
ATOM     10  C   UNL     1       0.161   1.096  -0.821  0.00  0.00    +0.053 A 
ATOM     11  C   UNL     1      -0.111   0.165   0.164  0.00  0.00    -0.036 A 
ATOM     12  O   UNL     1       1.501   2.861  -1.668  0.00  0.00    -0.485 OA
ATOM     13  C   UNL     1       2.367   3.949  -1.327  0.00  0.00    +0.270 C 
ATOM     14  C   UNL     1       3.582   3.380  -0.582  0.00  0.00    +0.270 C 
ATOM     15  O   UNL     1       3.115   2.711   0.594  0.00  0.00    -0.485 OA
ENDBRANCH   1  11
BRANCH   1  16
ATOM     16  C   UNL     1      -1.298  -1.781   1.161  0.00  0.00    +0.127 C 
BRANCH  16  17
ATOM     17  N   UNL     1      -0.108  -2.630   1.072  0.00  0.00    -0.357 N 
ATOM     18  C   UNL     1       0.054  -3.681   1.944  0.00  0.00    +0.169 C 
ATOM     19  N   UNL     1       1.113  -4.436   1.865  0.00  0.00    -0.355 N 
ATOM     20  N   UNL     1      -0.902  -3.934   2.899  0.00  0.00    -0.371 N 
ATOM     21  H   UNL     1       0.567  -2.451   0.398  0.00  0.00    +0.162 HD
ATOM     22  H   UNL     1      -1.690  -3.372   2.958  0.00  0.00    +0.159 HD
ATOM     23  H   UNL     1      -0.788  -4.676   3.514  0.00  0.00    +0.159 HD
ATOM     24  H   UNL     1       1.788  -4.257   1.191  0.00  0.00    +0.162 HD
BRANCH  19  25
ATOM     25  C   UNL     1       1.285  -5.556   2.794  0.00  0.00    +0.147 C 
BRANCH  25  26
ATOM     26  C   UNL     1       2.601  -6.274   2.489  0.00  0.00    +0.137 C 
ATOM     27  C   UNL     1       2.733  -7.526   3.382  0.00  0.00    +0.035 C 
ATOM     28  C   UNL     1       4.243  -7.513   3.747  0.00  0.00    +0.031 C 
ATOM     29  C   UNL     1       4.513  -5.989   3.824  0.00  0.00    +0.160 C 
ATOM     30  O   UNL     1       3.705  -5.411   2.784  0.00  0.00    -0.375 OA
ENDBRANCH  25  26
ENDBRANCH  19  25
ENDBRANCH  16  17
ENDBRANCH   1  16
TORSDOF 5
