REMARK  Name = ZINC59879554
REMARK  9 active torsions:
REMARK  status: ('A' for Active; 'I' for Inactive)
REMARK    1  A    between atoms: C_1  and  C_2
REMARK    2  A    between atoms: C_2  and  C_4
REMARK    3  A    between atoms: C_2  and  S_11
REMARK    4  A    between atoms: N_6  and  N_7
REMARK    5  A    between atoms: C_8  and  C_10
REMARK    6  A    between atoms: S_11  and  C_12
REMARK    7  A    between atoms: N_17  and  N_18
REMARK    8  A    between atoms: C_19  and  C_20
REMARK    9  A    between atoms: C_25  and  O_26
REMARK                            x       y       z     vdW  Elec       q    Type
REMARK                         _______ _______ _______ _____ _____    ______ ____
ROOT
ATOM      1  C   UNL     1       2.533  -0.042   1.241  0.00  0.00    +0.211 A 
ATOM      2  N   UNL     1       3.551  -0.257   2.081  0.00  0.00    -0.186 NA
ATOM      3  C   UNL     1       4.644   0.300   1.603  0.00  0.00    +0.232 A 
ATOM      4  N   UNL     1       4.333   0.890   0.429  0.00  0.00    -0.245 N 
ATOM      5  N   UNL     1       2.966   0.650   0.214  0.00  0.00    -0.144 NA
ATOM      6  N   UNL     1       5.892   0.285   2.199  0.00  0.00    -0.205 N 
ATOM      7  H   UNL     1       6.641   0.726   1.769  0.00  0.00    +0.177 HD
ATOM      8  H   UNL     1       4.935   1.379  -0.153  0.00  0.00    +0.192 HD
ENDROOT
BRANCH   6   9
ATOM      9  N   UNL     1       6.074  -0.368   3.425  0.00  0.00    -0.187 NA
ATOM     10  C   UNL     1       7.245  -0.382   3.985  0.00  0.00    +0.142 C 
BRANCH  10  11
ATOM     11  C   UNL     1       7.437  -1.069   5.275  0.00  0.00    +0.037 A 
ATOM     12  C   UNL     1       8.694  -1.081   5.883  0.00  0.00    +0.028 A 
ATOM     13  C   UNL     1       8.867  -1.726   7.091  0.00  0.00    +0.019 A 
ATOM     14  C   UNL     1       7.798  -2.360   7.703  0.00  0.00    +0.019 A 
ATOM     15  C   UNL     1       6.550  -2.354   7.110  0.00  0.00    +0.047 A 
ATOM     16  C   UNL     1       6.358  -1.707   5.901  0.00  0.00    +0.126 A 
ATOM     17 BR   UNL     1      10.569  -1.744   7.915  0.00  0.00    -0.050 Br
BRANCH  16  18
ATOM     18  O   UNL     1       5.130  -1.697   5.320  0.00  0.00    -0.506 OA
ATOM     19  H   UNL     1       4.970  -2.442   4.725  0.00  0.00    +0.292 HD
ENDBRANCH  16  18
ENDBRANCH  10  11
ENDBRANCH   6   9
BRANCH   1  20
ATOM     20  S   UNL     1       0.879  -0.605   1.472  0.00  0.00    -0.072 S 
BRANCH  20  22
ATOM     21  C   UNL     1      -0.019   1.526   0.010  0.00  0.00    +0.029 C 
ATOM     22  C   UNL     1       0.002  -0.004   0.002  0.00  0.00    +0.138 C 
BRANCH  22  23
ATOM     23  C   UNL     1      -1.412  -0.526   0.013  0.00  0.00    +0.242 C 
ATOM     24  O   UNL     1      -1.939  -0.827   1.062  0.00  0.00    -0.273 OA
ATOM     25  N   UNL     1      -2.090  -0.657  -1.144  0.00  0.00    -0.233 N 
ATOM     26  H   UNL     1      -1.669  -0.416  -1.984  0.00  0.00    +0.173 HD
BRANCH  25  27
ATOM     27  N   UNL     1      -3.405  -1.142  -1.134  0.00  0.00    -0.235 N 
ATOM     28  C   UNL     1      -4.083  -1.274  -2.291  0.00  0.00    +0.226 C 
ATOM     29  O   UNL     1      -3.556  -0.972  -3.341  0.00  0.00    -0.275 OA
ATOM     30  C   UNL     1      -5.497  -1.795  -2.281  0.00  0.00    +0.110 C 
ATOM     31  H   UNL     1      -3.826  -1.383  -0.295  0.00  0.00    +0.173 HD
ENDBRANCH  25  27
ENDBRANCH  22  23
ENDBRANCH  20  22
ENDBRANCH   1  20
TORSDOF 7
