REMARK  Name = ZINC38847419
REMARK  11 active torsions:
REMARK  status: ('A' for Active; 'I' for Inactive)
REMARK    1  A    between atoms: C_1  and  C_2
REMARK    2  A    between atoms: C_5  and  S_8
REMARK    3  A    between atoms: S_8  and  N_11
REMARK    4  A    between atoms: C_14  and  C_17
REMARK    5  A    between atoms: N_19  and  C_20
REMARK    6  A    between atoms: C_20  and  C_21
REMARK    7  A    between atoms: C_21  and  N_22
REMARK    8  A    between atoms: N_22  and  C_23
REMARK    9  A    between atoms: N_22  and  C_24
REMARK   10  A    between atoms: C_28  and  C_35
REMARK   11  A    between atoms: C_30  and  C_34
REMARK                            x       y       z     vdW  Elec       q    Type
REMARK                         _______ _______ _______ _____ _____    ______ ____
ROOT
ATOM      1  C   UNL     1       4.471  -8.374   0.153  0.00  0.00    +0.224 C 
ATOM      2  O   UNL     1       4.037  -7.242   0.171  0.00  0.00    -0.275 OA
ATOM      3  N   UNL     1       5.273  -8.805   1.146  0.00  0.00    -0.252 N 
ATOM      4  C   UNL     1       5.855 -10.060   1.073  0.00  0.00    +0.168 A 
ATOM      5  N   UNL     1       5.668 -11.002   0.178  0.00  0.00    -0.224 NA
ATOM      6  C   UNL     1       6.309 -12.190   0.231  0.00  0.00    +0.083 A 
ATOM      7  C   UNL     1       6.200 -13.281  -0.662  0.00  0.00    -0.024 A 
ATOM      8  C   UNL     1       6.928 -14.425  -0.462  0.00  0.00    +0.009 A 
ATOM      9  C   UNL     1       7.793 -14.555   0.615  0.00  0.00    -0.049 A 
ATOM     10  C   UNL     1       7.926 -13.507   1.507  0.00  0.00    +0.020 A 
ATOM     11  C   UNL     1       7.200 -12.357   1.315  0.00  0.00    +0.041 A 
ATOM     12  S   UNL     1       7.056 -10.805   2.167  0.00  0.00    -0.052 S 
ATOM     13  C   UNL     1       8.581 -15.825   0.810  0.00  0.00    +0.044 C 
ATOM     14  C   UNL     1       5.272 -13.186  -1.845  0.00  0.00    +0.046 C 
ENDROOT
BRANCH   1  18
ATOM     15  N   UNL     1       3.523  -9.896  -3.682  0.00  0.00    -0.177 NA
ATOM     16  C   UNL     1       2.406  -9.820  -2.730  0.00  0.00    +0.110 C 
ATOM     17  C   UNL     1       2.785  -8.856  -1.601  0.00  0.00    +0.030 C 
ATOM     18  C   UNL     1       4.112  -9.301  -0.980  0.00  0.00    +0.078 C 
ATOM     19  C   UNL     1       5.213  -9.259  -2.042  0.00  0.00    +0.030 C 
ATOM     20  C   UNL     1       4.860 -10.233  -3.176  0.00  0.00    +0.110 C 
BRANCH  15  21
ATOM     21  S   UNL     1       3.277  -9.615  -5.295  0.00  0.00    +0.061 S 
ATOM     22  O   UNL     1       4.530  -9.217  -5.834  0.00  0.00    -0.153 OA
ATOM     23  O   UNL     1       2.114  -8.805  -5.394  0.00  0.00    -0.153 OA
BRANCH  21  28
ATOM     24  C   UNL     1       1.908 -14.910  -7.844  0.00  0.00    +0.044 C 
ATOM     25  C   UNL     1       2.250 -13.588  -7.207  0.00  0.00    -0.050 A 
ATOM     26  C   UNL     1       1.245 -12.784  -6.703  0.00  0.00    +0.005 A 
ATOM     27  C   UNL     1       1.559 -11.570  -6.119  0.00  0.00    +0.029 A 
ATOM     28  C   UNL     1       2.877 -11.162  -6.039  0.00  0.00    +0.105 A 
ATOM     29  C   UNL     1       3.882 -11.967  -6.542  0.00  0.00    +0.029 A 
ATOM     30  C   UNL     1       3.569 -13.182  -7.123  0.00  0.00    +0.005 A 
ENDBRANCH  21  28
ENDBRANCH  15  21
ENDBRANCH   1  18
BRANCH   3  31
ATOM     31  C   UNL     1       5.531  -7.945   2.304  0.00  0.00    +0.097 C 
BRANCH  31  32
ATOM     32  C   UNL     1       4.552  -8.295   3.427  0.00  0.00    -0.060 C 
BRANCH  32  33
ATOM     33  N   UNL     1       4.729  -7.355   4.542  0.00  0.00    +0.377 N 
ATOM     34  C   UNL     1       3.711  -7.615   5.568  0.00  0.00    -0.097 C 
ATOM     35  C   UNL     1       6.067  -7.532   5.123  0.00  0.00    -0.097 C 
ATOM     36  H   UNL     1       4.632  -6.409   4.204  0.00  0.00    -0.083 HD
ENDBRANCH  32  33
ENDBRANCH  31  32
ENDBRANCH   3  31
TORSDOF 6
