REMARK  Name = ZINC04511195
REMARK  9 active torsions:
REMARK  status: ('A' for Active; 'I' for Inactive)
REMARK    1  A    between atoms: C_1  and  O_2
REMARK    2  A    between atoms: O_2  and  C_3
REMARK    3  A    between atoms: C_5  and  N_13
REMARK    4  A    between atoms: C_7  and  O_11
REMARK    5  A    between atoms: C_8  and  O_9
REMARK    6  A    between atoms: O_9  and  C_10
REMARK    7  A    between atoms: O_11  and  C_12
REMARK    8  A    between atoms: C_14  and  C_16
REMARK    9  A    between atoms: C_16  and  C_17
REMARK                            x       y       z     vdW  Elec       q    Type
REMARK                         _______ _______ _______ _____ _____    ______ ____
ROOT
ATOM      1  N   UNL     1      -2.763   1.962  -4.813  0.00  0.00    -0.285 N 
ATOM      2  C   UNL     1      -2.187   1.426  -3.719  0.00  0.00    +0.216 C 
ATOM      3  O   UNL     1      -1.119   0.858  -3.813  0.00  0.00    -0.276 OA
ATOM      4  H   UNL     1      -3.647   2.357  -4.750  0.00  0.00    +0.155 HD
ENDROOT
BRANCH   1   7
ATOM      5  C   UNL     1      -0.605   0.861  -7.586  0.00  0.00    +0.167 A 
ATOM      6  C   UNL     1      -1.275   0.874  -6.372  0.00  0.00    +0.073 A 
ATOM      7  C   UNL     1      -2.086   1.950  -6.039  0.00  0.00    +0.041 A 
ATOM      8  C   UNL     1      -2.232   3.011  -6.923  0.00  0.00    +0.073 A 
ATOM      9  C   UNL     1      -1.559   3.002  -8.134  0.00  0.00    +0.167 A 
ATOM     10  C   UNL     1      -0.746   1.925  -8.469  0.00  0.00    +0.204 A 
BRANCH   5  12
ATOM     11  C   UNL     1       0.287  -1.252  -6.958  0.00  0.00    +0.277 C 
ATOM     12  O   UNL     1       0.189  -0.194  -7.913  0.00  0.00    -0.491 OA
ENDBRANCH   5  12
BRANCH  10  13
ATOM     13  O   UNL     1      -0.089   1.912  -9.661  0.00  0.00    -0.488 OA
ATOM     14  C   UNL     1      -0.770   1.325 -10.772  0.00  0.00    +0.277 C 
ENDBRANCH  10  13
BRANCH   9  15
ATOM     15  O   UNL     1      -1.698   4.043  -8.997  0.00  0.00    -0.491 OA
ATOM     16  C   UNL     1      -2.548   5.116  -8.588  0.00  0.00    +0.277 C 
ENDBRANCH   9  15
ENDBRANCH   1   7
BRANCH   2  17
ATOM     17  C   UNL     1      -2.868   1.531  -2.379  0.00  0.00    +0.089 C 
BRANCH  17  18
ATOM     18  C   UNL     1      -2.010   0.845  -1.315  0.00  0.00    +0.025 C 
ATOM     19  C   UNL     1      -2.747   0.844  -0.006  0.00  0.00    +0.200 C 
ATOM     20  O   UNL     1      -3.924   0.553  -0.009  0.00  0.00    -0.278 OA
ATOM     21  N   UNL     1      -2.170   1.146   1.161  0.00  0.00    -0.315 N 
ATOM     22  C   UNL     1      -0.769   1.564   1.260  0.00  0.00    +0.059 C 
ATOM     23  C   UNL     1      -0.733   3.077   1.366  0.00  0.00    +0.020 C 
ATOM     24  C   UNL     1       0.715   3.568   1.393  0.00  0.00    +0.002 C 
ATOM     25  C   UNL     1       1.414   3.144   0.099  0.00  0.00    -0.001 C 
ATOM     26  C   UNL     1       1.411   1.617   0.007  0.00  0.00    -0.014 C 
ATOM     27  C   UNL     1      -0.019   1.095   0.014  0.00  0.00    -0.050 C 
ATOM     28  H   UNL     1      -2.698   1.087   1.973  0.00  0.00    +0.149 HD
ATOM     29  N   UNL     1      -0.747   1.569  -1.176  0.00  0.00    +0.390 N 
ATOM     30  H   UNL     1      -0.941   2.573  -1.078  0.00  0.00    -0.084 HD
ATOM     31  H   UNL     1      -0.172   1.412  -2.011  0.00  0.00    -0.084 HD
ENDBRANCH  17  18
ENDBRANCH   2  17
TORSDOF 6
