REMARK  Name = ZINC40154189
REMARK  9 active torsions:
REMARK  status: ('A' for Active; 'I' for Inactive)
REMARK    1  A    between atoms: C_1  and  C_2
REMARK    2  A    between atoms: C_2  and  C_4
REMARK    3  A    between atoms: C_2  and  N_15
REMARK    4  A    between atoms: N_6  and  C_7
REMARK    5  A    between atoms: N_11  and  C_12
REMARK    6  A    between atoms: C_12  and  C_13
REMARK    7  A    between atoms: C_12  and  C_14
REMARK    8  A    between atoms: C_18  and  N_21
REMARK    9  A    between atoms: N_24  and  C_25
REMARK                            x       y       z     vdW  Elec       q    Type
REMARK                         _______ _______ _______ _____ _____    ______ ____
ROOT
ATOM      1  N   UNL     1       0.905  -1.355   0.862  0.00  0.00    +0.387 N 
ATOM      2  C   UNL     1       2.077  -0.550   0.497  0.00  0.00    -0.076 C 
ATOM      3  C   UNL     1       3.348  -1.235   1.004  0.00  0.00    +0.004 C 
ATOM      4  C   UNL     1       3.462  -2.623   0.367  0.00  0.00    +0.071 C 
ATOM      5  C   UNL     1       2.201  -3.428   0.692  0.00  0.00    +0.004 C 
ATOM      6  C   UNL     1       0.972  -2.662   0.197  0.00  0.00    -0.076 C 
ATOM      7  H   UNL     1       0.889  -1.488   1.862  0.00  0.00    -0.081 HD
ENDROOT
BRANCH   4   8
ATOM      8  N   UNL     1       4.637  -3.314   0.905  0.00  0.00    -0.296 N 
ATOM      9  C   UNL     1       5.237  -4.283   0.186  0.00  0.00    +0.304 C 
ATOM     10  O   UNL     1       4.803  -4.584  -0.909  0.00  0.00    -0.253 OA
ATOM     11  N   UNL     1       6.317  -4.919   0.681  0.00  0.00    -0.269 N 
ATOM     12  H   UNL     1       4.983  -3.074   1.779  0.00  0.00    +0.151 HD
ATOM     13  H   UNL     1       6.618  -4.732   1.584  0.00  0.00    +0.156 HD
BRANCH  11  14
ATOM     14  C   UNL     1       7.005  -5.849  -0.108  0.00  0.00    +0.035 A 
ATOM     15  C   UNL     1       7.602  -6.955   0.482  0.00  0.00    +0.026 A 
ATOM     16  C   UNL     1       8.280  -7.871  -0.298  0.00  0.00    +0.040 A 
ATOM     17  C   UNL     1       8.364  -7.688  -1.668  0.00  0.00    +0.124 A 
ATOM     18  C   UNL     1       7.769  -6.586  -2.259  0.00  0.00    +0.040 A 
ATOM     19  C   UNL     1       7.086  -5.670  -1.483  0.00  0.00    +0.026 A 
ATOM     20  F   UNL     1       9.027  -8.585  -2.429  0.00  0.00    -0.205 F 
ENDBRANCH  11  14
ENDBRANCH   4   8
BRANCH   1  22
ATOM     21  C   UNL     1      -0.350   0.736   1.075  0.00  0.00    -0.004 C 
ATOM     22  C   UNL     1      -0.317  -0.657   0.443  0.00  0.00    +0.016 C 
BRANCH  22  23
ATOM     23  C   UNL     1      -1.523  -1.441   0.891  0.00  0.00    +0.204 C 
ATOM     24  O   UNL     1      -1.459  -2.139   1.881  0.00  0.00    -0.277 OA
ATOM     25  N   UNL     1      -2.674  -1.366   0.193  0.00  0.00    -0.272 N 
ATOM     26  H   UNL     1      -2.725  -0.808  -0.599  0.00  0.00    +0.156 HD
BRANCH  25  27
ATOM     27  C   UNL     1      -3.790  -2.092   0.608  0.00  0.00    +0.123 A 
ATOM     28  C   UNL     1      -3.861  -2.906   1.697  0.00  0.00    +0.065 A 
ATOM     29  C   UNL     1      -5.152  -3.437   1.751  0.00  0.00    +0.136 A 
ATOM     30  N   UNL     1      -5.834  -2.965   0.739  0.00  0.00    -0.178 NA
ATOM     31  N   UNL     1      -5.000  -2.111   0.005  0.00  0.00    -0.248 N 
BRANCH  31  32
ATOM     32  C   UNL     1      -5.373  -1.371  -1.203  0.00  0.00    +0.103 C 
ATOM     33  C   UNL     1      -5.803  -2.356  -2.292  0.00  0.00    +0.032 C 
ATOM     34  C   UNL     1      -6.533  -0.425  -0.885  0.00  0.00    +0.032 C 
ENDBRANCH  31  32
ENDBRANCH  25  27
ENDBRANCH  22  23
ENDBRANCH   1  22
TORSDOF 6
