REMARK  Name = ZINC17242628
REMARK  10 active torsions:
REMARK  status: ('A' for Active; 'I' for Inactive)
REMARK    1  A    between atoms: C_1  and  C_2
REMARK    2  A    between atoms: C_2  and  C_36
REMARK    3  A    between atoms: C_6  and  C_23
REMARK    4  A    between atoms: C_12  and  S_14
REMARK    5  A    between atoms: S_14  and  C_15
REMARK    6  A    between atoms: C_15  and  C_16
REMARK    7  A    between atoms: C_26  and  O_31
REMARK    8  A    between atoms: C_27  and  O_29
REMARK    9  A    between atoms: O_29  and  C_30
REMARK   10  A    between atoms: O_31  and  C_32
REMARK                            x       y       z     vdW  Elec       q    Type
REMARK                         _______ _______ _______ _____ _____    ______ ____
ROOT
ATOM      1  C   UNL     1      -0.019   1.526   0.010  0.00  0.00    +0.011 C 
ATOM      2  C   UNL     1       0.002  -0.004   0.002  0.00  0.00    -0.023 C 
ATOM      3  C   UNL     1      -1.433  -0.536   0.025  0.00  0.00    +0.060 C 
ATOM      4  C   UNL     1      -1.410  -2.045   0.065  0.00  0.00    +0.028 C 
ATOM      5  C   UNL     1      -0.358  -2.702   0.674  0.00  0.00    +0.041 C 
ATOM      6  C   UNL     1      -0.385  -4.218   0.689  0.00  0.00    +0.162 C 
ATOM      7  N   UNL     1      -1.544  -4.847   0.044  0.00  0.00    -0.208 N 
ATOM      8  C   UNL     1      -2.508  -4.044  -0.518  0.00  0.00    +0.215 C 
ATOM      9  N   UNL     1      -2.406  -2.721  -0.487  0.00  0.00    -0.330 N 
ATOM     10  N   UNL     1      -3.447  -4.847  -1.034  0.00  0.00    -0.192 NA
ATOM     11  C   UNL     1      -3.131  -6.114  -0.830  0.00  0.00    +0.174 C 
ATOM     12  N   UNL     1      -1.943  -6.171  -0.155  0.00  0.00    -0.239 N 
ATOM     13  C   UNL     1       0.699  -2.020   1.255  0.00  0.00    +0.164 C 
ATOM     14  O   UNL     1       1.601  -2.644   1.782  0.00  0.00    -0.292 OA
ATOM     15  C   UNL     1       0.743  -0.513   1.242  0.00  0.00    +0.086 C 
ATOM     16  C   UNL     1       0.714  -0.500  -1.259  0.00  0.00    +0.011 C 
ATOM     17  H   UNL     1      -3.119  -2.209  -0.901  0.00  0.00    +0.168 HD
ATOM     18  H   UNL     1      -1.472  -6.970   0.128  0.00  0.00    +0.172 HD
ENDROOT
BRANCH   6  19
ATOM     19  C   UNL     1      -0.345  -4.675   2.124  0.00  0.00    -0.017 A 
ATOM     20  C   UNL     1      -1.502  -4.670   2.882  0.00  0.00    +0.009 A 
ATOM     21  C   UNL     1      -1.471  -5.088   4.199  0.00  0.00    +0.050 A 
ATOM     22  C   UNL     1      -0.279  -5.514   4.763  0.00  0.00    +0.162 A 
ATOM     23  C   UNL     1       0.885  -5.520   4.000  0.00  0.00    +0.162 A 
ATOM     24  C   UNL     1       0.846  -5.104   2.679  0.00  0.00    +0.055 A 
BRANCH  23  25
ATOM     25  O   UNL     1       2.057  -5.938   4.549  0.00  0.00    -0.491 OA
ATOM     26  C   UNL     1       3.212  -5.917   3.706  0.00  0.00    +0.277 C 
ENDBRANCH  23  25
BRANCH  22  27
ATOM     27  O   UNL     1      -0.246  -5.925   6.059  0.00  0.00    -0.491 OA
ATOM     28  C   UNL     1      -1.479  -5.892   6.781  0.00  0.00    +0.277 C 
ENDBRANCH  22  27
ENDBRANCH   6  19
BRANCH  11  29
ATOM     29  S   UNL     1      -4.086  -7.504  -1.343  0.00  0.00    -0.084 S 
BRANCH  29  30
ATOM     30  C   UNL     1      -5.522  -6.768  -2.172  0.00  0.00    +0.115 C 
BRANCH  30  31
ATOM     31  C   UNL     1      -6.433  -7.863  -2.665  0.00  0.00    -0.002 A 
ATOM     32  C   UNL     1      -6.256  -8.390  -3.931  0.00  0.00    +0.007 A 
ATOM     33  C   UNL     1      -7.091  -9.394  -4.384  0.00  0.00    +0.000 A 
ATOM     34  C   UNL     1      -8.104  -9.872  -3.572  0.00  0.00    +0.003 A 
ATOM     35  C   UNL     1      -8.281  -9.347  -2.307  0.00  0.00    +0.038 A 
ATOM     36  C   UNL     1      -7.442  -8.344  -1.850  0.00  0.00    +0.127 A 
ATOM     37  F   UNL     1      -7.612  -7.833  -0.611  0.00  0.00    -0.205 F 
ENDBRANCH  30  31
ENDBRANCH  29  30
ENDBRANCH  11  29
TORSDOF 6
