REMARK  Name = ZINC08742687
REMARK  3 active torsions:
REMARK  status: ('A' for Active; 'I' for Inactive)
REMARK    1  A    between atoms: C_4  and  C_7
REMARK    2  A    between atoms: C_7  and  C_8
REMARK    3  A    between atoms: C_7  and  N_14
REMARK                            x       y       z     vdW  Elec       q    Type
REMARK                         _______ _______ _______ _____ _____    ______ ____
ROOT
ATOM      1  N   UNL     1      -0.500  -3.112  -0.952  0.00  0.00    -0.287 N 
ATOM      2  C   UNL     1       0.451  -4.064  -1.133  0.00  0.00    +0.203 A 
ATOM      3  N   UNL     1       1.534  -3.860  -1.814  0.00  0.00    -0.236 NA
ATOM      4  C   UNL     1       1.802  -2.660  -2.405  0.00  0.00    +0.094 A 
ATOM      5  C   UNL     1       2.986  -2.296  -3.202  0.00  0.00    +0.035 A 
ATOM      6  C   UNL     1       4.098  -3.123  -3.519  0.00  0.00    -0.029 A 
ATOM      7  C   UNL     1       5.107  -2.619  -4.271  0.00  0.00    -0.005 A 
ATOM      8  C   UNL     1       5.046  -1.291  -4.721  0.00  0.00    +0.103 A 
ATOM      9  C   UNL     1       3.013  -0.982  -3.699  0.00  0.00    +0.089 A 
ATOM     10  S   UNL     1       1.497  -0.263  -3.115  0.00  0.00    -0.064 S 
ATOM     11  C   UNL     1       0.846  -1.659  -2.238  0.00  0.00    +0.105 A 
ATOM     12  C   UNL     1      -0.322  -1.887  -1.501  0.00  0.00    +0.269 A 
ATOM     13  O   UNL     1      -1.155  -1.008  -1.358  0.00  0.00    -0.266 OA
ATOM     14  N   UNL     1       6.084  -0.778  -5.487  0.00  0.00    -0.312 N 
ATOM     15  C   UNL     1       6.844   0.231  -4.735  0.00  0.00    +0.134 C 
ATOM     16  C   UNL     1       8.012   0.726  -5.593  0.00  0.00    +0.178 C 
ATOM     17  O   UNL     1       7.505   1.239  -6.828  0.00  0.00    -0.377 OA
ATOM     18  C   UNL     1       6.760   0.282  -7.586  0.00  0.00    +0.178 C 
ATOM     19  C   UNL     1       5.579  -0.217  -6.748  0.00  0.00    +0.134 C 
ATOM     20  C   UNL     1       6.315  -3.434  -4.659  0.00  0.00    +0.039 C 
ATOM     21  C   UNL     1       6.445  -4.660  -3.758  0.00  0.00    +0.005 C 
ATOM     22  C   UNL     1       5.099  -5.395  -3.743  0.00  0.00    +0.005 C 
ATOM     23  C   UNL     1       4.090  -4.530  -2.988  0.00  0.00    +0.036 C 
ATOM     24  N   UNL     1       4.010  -0.453  -4.448  0.00  0.00    -0.337 N 
ATOM     25  H   UNL     1       3.986   0.516  -4.787  0.00  0.00    +0.168 HD
ENDROOT
BRANCH   1  26
ATOM     26  C   UNL     1      -1.704  -3.405  -0.171  0.00  0.00    +0.152 C 
BRANCH  26  30
ATOM     27  C   UNL     1      -4.199  -6.094  -2.360  0.00  0.00    +0.000 A 
ATOM     28  C   UNL     1      -4.735  -4.942  -1.816  0.00  0.00    +0.000 A 
ATOM     29  C   UNL     1      -3.927  -4.072  -1.108  0.00  0.00    +0.006 A 
ATOM     30  C   UNL     1      -2.584  -4.354  -0.943  0.00  0.00    -0.020 A 
ATOM     31  C   UNL     1      -2.047  -5.504  -1.491  0.00  0.00    +0.006 A 
ATOM     32  C   UNL     1      -2.856  -6.377  -2.195  0.00  0.00    +0.000 A 
ENDBRANCH  26  30
BRANCH  26  33
ATOM     33  C   UNL     1      -1.311  -4.038   1.139  0.00  0.00    -0.020 A 
ATOM     34  C   UNL     1      -0.001  -3.969   1.575  0.00  0.00    +0.006 A 
ATOM     35  C   UNL     1       0.358  -4.545   2.780  0.00  0.00    +0.000 A 
ATOM     36  C   UNL     1      -0.591  -5.200   3.543  0.00  0.00    +0.000 A 
ATOM     37  C   UNL     1      -1.899  -5.274   3.104  0.00  0.00    +0.000 A 
ATOM     38  C   UNL     1      -2.260  -4.693   1.903  0.00  0.00    +0.006 A 
ENDBRANCH  26  33
ENDBRANCH   1  26
TORSDOF 3
