REMARK  Name = ZINC21257428
REMARK  13 active torsions:
REMARK  status: ('A' for Active; 'I' for Inactive)
REMARK    1  A    between atoms: C_1  and  C_2
REMARK    2  A    between atoms: C_2  and  C_3
REMARK    3  A    between atoms: C_3  and  C_4
REMARK    4  A    between atoms: C_4  and  O_5
REMARK    5  A    between atoms: O_5  and  C_6
REMARK    6  A    between atoms: C_11  and  C_12
REMARK    7  A    between atoms: C_17  and  C_22
REMARK    8  A    between atoms: C_24  and  O_32
REMARK    9  A    between atoms: C_25  and  O_30
REMARK   10  A    between atoms: C_26  and  O_28
REMARK   11  A    between atoms: O_28  and  C_29
REMARK   12  A    between atoms: O_30  and  C_31
REMARK   13  A    between atoms: O_32  and  C_33
REMARK                            x       y       z     vdW  Elec       q    Type
REMARK                         _______ _______ _______ _____ _____    ______ ____
ROOT
ATOM      1  C   UNL     1       1.642   9.291  -2.905  0.00  0.00    +0.139 C 
ATOM      2  C   UNL     1       1.066   8.396  -1.834  0.00  0.00    +0.037 C 
ATOM      3  C   UNL     1      -0.164   7.854  -1.838  0.00  0.00    +0.017 C 
ATOM      4  C   UNL     1      -0.621   6.971  -0.689  0.00  0.00    +0.059 C 
ATOM      5  C   UNL     1       0.570   6.204  -0.117  0.00  0.00    +0.032 C 
ATOM      6  C   UNL     1       1.595   7.233   0.377  0.00  0.00    +0.088 C 
ATOM      7  C   UNL     1       1.956   8.134  -0.766  0.00  0.00    +0.163 C 
ATOM      8  O   UNL     1       3.053   8.657  -0.776  0.00  0.00    -0.292 OA
ATOM      9  N   UNL     1      -1.089   8.040  -2.814  0.00  0.00    -0.316 N 
ATOM     10  C   UNL     1      -0.834   7.949  -4.177  0.00  0.00    +0.052 A 
ATOM     11  C   UNL     1      -1.407   6.972  -4.973  0.00  0.00    +0.025 A 
ATOM     12  C   UNL     1      -1.147   6.967  -6.333  0.00  0.00    +0.002 A 
ATOM     13  C   UNL     1      -0.326   7.930  -6.891  0.00  0.00    +0.002 A 
ATOM     14  C   UNL     1       0.261   8.897  -6.093  0.00  0.00    +0.025 A 
ATOM     15  C   UNL     1       0.021   8.891  -4.728  0.00  0.00    +0.049 A 
ATOM     16  N   UNL     1       0.678   9.772  -3.870  0.00  0.00    -0.331 N 
ATOM     17  H   UNL     1      -2.128   8.284  -2.548  0.00  0.00    +0.152 HD
ATOM     18  H   UNL     1       0.454  10.847  -3.935  0.00  0.00    +0.147 HD
ENDROOT
BRANCH   1  24
ATOM     19  C   UNL     1       3.643   9.206  -4.413  0.00  0.00    +0.126 A 
ATOM     20  C   UNL     1       4.629   8.500  -5.088  0.00  0.00    +0.046 A 
ATOM     21  C   UNL     1       4.683   7.124  -4.987  0.00  0.00    +0.004 A 
ATOM     22  C   UNL     1       3.755   6.449  -4.214  0.00  0.00    +0.001 A 
ATOM     23  C   UNL     1       2.775   7.151  -3.537  0.00  0.00    +0.009 A 
ATOM     24  C   UNL     1       2.714   8.527  -3.639  0.00  0.00    +0.019 A 
BRANCH  19  25
ATOM     25  O   UNL     1       3.588  10.561  -4.511  0.00  0.00    -0.492 OA
BRANCH  25  26
ATOM     26  C   UNL     1       4.577  11.193  -5.326  0.00  0.00    +0.229 C 
BRANCH  26  27
ATOM     27  C   UNL     1       4.356  12.707  -5.314  0.00  0.00    +0.041 C 
BRANCH  27  29
ATOM     28  C   UNL     1       5.194  14.898  -6.175  0.00  0.00    +0.004 C 
ATOM     29  C   UNL     1       5.415  13.384  -6.187  0.00  0.00    -0.000 C 
ENDBRANCH  27  29
ENDBRANCH  26  27
ENDBRANCH  25  26
ENDBRANCH  19  25
ENDBRANCH   1  24
BRANCH   5  30
ATOM     30  C   UNL     1       0.118   5.342   1.033  0.00  0.00    -0.036 A 
ATOM     31  C   UNL     1      -0.480   5.921   2.137  0.00  0.00    +0.053 A 
ATOM     32  C   UNL     1      -0.897   5.131   3.197  0.00  0.00    +0.165 A 
ATOM     33  C   UNL     1      -0.718   3.754   3.147  0.00  0.00    +0.204 A 
ATOM     34  C   UNL     1      -0.112   3.175   2.039  0.00  0.00    +0.165 A 
ATOM     35  C   UNL     1       0.303   3.973   0.982  0.00  0.00    +0.053 A 
BRANCH  34  36
ATOM     36  O   UNL     1       0.070   1.829   1.987  0.00  0.00    -0.491 OA
ATOM     37  C   UNL     1       0.694   1.302   0.814  0.00  0.00    +0.277 C 
ENDBRANCH  34  36
BRANCH  33  38
ATOM     38  O   UNL     1      -1.131   2.974   4.184  0.00  0.00    -0.488 OA
ATOM     39  C   UNL     1      -0.188   2.736   5.231  0.00  0.00    +0.277 C 
ENDBRANCH  33  38
BRANCH  32  40
ATOM     40  O   UNL     1      -1.484   5.703   4.282  0.00  0.00    -0.491 OA
ATOM     41  C   UNL     1      -1.640   7.123   4.263  0.00  0.00    +0.277 C 
ENDBRANCH  32  40
ENDBRANCH   5  30
TORSDOF 9
