REMARK  Name = ZINC01072531
REMARK  7 active torsions:
REMARK  status: ('A' for Active; 'I' for Inactive)
REMARK    1  A    between atoms: C_1  and  O_2
REMARK    2  A    between atoms: O_2  and  C_3
REMARK    3  A    between atoms: C_6  and  C_9
REMARK    4  A    between atoms: C_9  and  C_22
REMARK    5  A    between atoms: C_11  and  C_17
REMARK    6  A    between atoms: C_25  and  O_29
REMARK    7  A    between atoms: C_27  and  O_28
REMARK                            x       y       z     vdW  Elec       q    Type
REMARK                         _______ _______ _______ _____ _____    ______ ____
ROOT
ATOM      1  C   UNL     1      -0.761   1.597  -1.228  0.00  0.00    +0.089 C 
ATOM      2  C   UNL     1      -0.013   1.086   0.008  0.00  0.00    +0.065 C 
ATOM      3  C   UNL     1      -0.738   1.584   1.263  0.00  0.00    +0.141 C 
ATOM      4  N   UNL     1      -0.857   3.042   1.202  0.00  0.00    -0.317 N 
ATOM      5  C   UNL     1      -0.922   3.690   0.029  0.00  0.00    +0.132 C 
ATOM      6  S   UNL     1      -1.071   5.395   0.040  0.00  0.00    -0.019 S 
ATOM      7  N   UNL     1      -0.875   3.054  -1.151  0.00  0.00    -0.313 N 
ATOM      8  H   UNL     1      -0.887   3.550   2.028  0.00  0.00    +0.148 HD
ATOM      9  H   UNL     1      -0.917   3.571  -1.971  0.00  0.00    +0.149 HD
ENDROOT
BRANCH   1  13
ATOM     10  C   UNL     1       1.397   0.515  -4.754  0.00  0.00    +0.120 A 
ATOM     11  C   UNL     1       0.626   1.669  -4.737  0.00  0.00    +0.046 A 
ATOM     12  C   UNL     1      -0.070   2.017  -3.596  0.00  0.00    +0.009 A 
ATOM     13  C   UNL     1      -0.000   1.216  -2.471  0.00  0.00    -0.019 A 
ATOM     14  C   UNL     1       0.772   0.069  -2.483  0.00  0.00    +0.009 A 
ATOM     15  C   UNL     1       1.466  -0.286  -3.624  0.00  0.00    +0.046 A 
BRANCH  10  17
ATOM     16  C   UNL     1       2.856  -1.029  -5.820  0.00  0.00    +0.277 C 
ATOM     17  O   UNL     1       2.083   0.171  -5.875  0.00  0.00    -0.495 OA
ENDBRANCH  10  17
ENDBRANCH   1  13
BRANCH   1  18
ATOM     18  C   UNL     1      -2.138   0.986  -1.271  0.00  0.00    +0.022 A 
ATOM     19  C   UNL     1      -3.255   1.799  -1.238  0.00  0.00    +0.013 A 
ATOM     20  C   UNL     1      -4.519   1.242  -1.282  0.00  0.00    +0.046 A 
ATOM     21  C   UNL     1      -4.669  -0.136  -1.350  0.00  0.00    +0.120 A 
ATOM     22  C   UNL     1      -3.550  -0.954  -1.378  0.00  0.00    +0.091 A 
ATOM     23  C   UNL     1      -2.283  -0.392  -1.338  0.00  0.00    +0.126 A 
BRANCH  23  24
ATOM     24  O   UNL     1      -1.184  -1.191  -1.366  0.00  0.00    -0.506 OA
ATOM     25  H   UNL     1      -0.874  -1.464  -0.492  0.00  0.00    +0.292 HD
ENDBRANCH  23  24
BRANCH  21  26
ATOM     26  O   UNL     1      -5.912  -0.684  -1.389  0.00  0.00    -0.507 OA
ATOM     27  H   UNL     1      -6.281  -0.885  -0.517  0.00  0.00    +0.292 HD
ENDBRANCH  21  26
ENDBRANCH   1  18
BRANCH   3  28
ATOM     28  C   UNL     1       0.047   1.189   2.488  0.00  0.00    +0.125 A 
ATOM     29  C   UNL     1      -0.222   0.145   3.292  0.00  0.00    +0.046 A 
ATOM     30  C   UNL     1       0.761   0.146   4.308  0.00  0.00    +0.041 A 
ATOM     31  C   UNL     1       1.568   1.196   4.068  0.00  0.00    +0.195 A 
ATOM     32  O   UNL     1       1.130   1.824   2.965  0.00  0.00    -0.466 OA
ENDBRANCH   3  28
TORSDOF 6
