REMARK  Name = ZINC13298316
REMARK  14 active torsions:
REMARK  status: ('A' for Active; 'I' for Inactive)
REMARK    1  A    between atoms: C_1  and  C_2
REMARK    2  A    between atoms: C_2  and  C_3
REMARK    3  A    between atoms: C_3  and  C_4
REMARK    4  A    between atoms: C_7  and  C_11
REMARK    5  A    between atoms: C_10  and  N_60
REMARK    6  A    between atoms: N_13  and  C_14
REMARK    7  A    between atoms: C_14  and  C_16
REMARK    8  A    between atoms: C_14  and  C_32
REMARK    9  A    between atoms: C_18  and  O_31
REMARK   10  A    between atoms: C_20  and  O_30
REMARK   11  A    between atoms: C_22  and  O_29
REMARK   12  A    between atoms: C_24  and  S_27
REMARK   13  A    between atoms: S_27  and  C_28
REMARK   14  A    between atoms: C_32  and  C_34
REMARK                            x       y       z     vdW  Elec       q    Type
REMARK                         _______ _______ _______ _____ _____    ______ ____
ROOT
ATOM      1  C   UNL     1      -1.433  -0.534   0.042  0.00  0.00    +0.122 C 
ENDROOT
BRANCH   1   2
ATOM      2  C   UNL     1       0.002  -0.004   0.002  0.00  0.00    +0.172 C 
ATOM      3  C   UNL     1       0.693  -0.497  -1.272  0.00  0.00    +0.176 C 
ATOM      4  C   UNL     1       2.108   0.087  -1.334  0.00  0.00    +0.177 C 
ATOM      5  C   UNL     1       2.022   1.615  -1.273  0.00  0.00    +0.184 C 
ATOM      6  C   UNL     1       1.279   2.026   0.001  0.00  0.00    +0.207 C 
ATOM      7  O   UNL     1      -0.017   1.425   0.010  0.00  0.00    -0.356 OA
BRANCH   6   8
ATOM      8  S   UNL     1       1.109   3.831   0.046  0.00  0.00    -0.131 S 
ATOM      9  C   UNL     1       0.498   4.173   1.720  0.00  0.00    +0.087 C 
ENDBRANCH   6   8
BRANCH   5  10
ATOM     10  O   UNL     1       1.313   2.099  -2.416  0.00  0.00    -0.386 OA
ATOM     11  H   UNL     1       1.220   3.061  -2.443  0.00  0.00    +0.210 HD
ENDBRANCH   5  10
BRANCH   4  12
ATOM     12  O   UNL     1       2.873  -0.395  -0.227  0.00  0.00    -0.386 OA
ATOM     13  H   UNL     1       3.781  -0.065  -0.203  0.00  0.00    +0.210 HD
ENDBRANCH   4  12
BRANCH   3  14
ATOM     14  O   UNL     1       0.766  -1.924  -1.255  0.00  0.00    -0.387 OA
ATOM     15  H   UNL     1       1.193  -2.305  -2.034  0.00  0.00    +0.210 HD
ENDBRANCH   3  14
ENDBRANCH   1   2
BRANCH   1  18
ATOM     16  C   UNL     1      -2.475  -2.685  -0.432  0.00  0.00    +0.200 C 
ATOM     17  O   UNL     1      -3.448  -2.090  -0.845  0.00  0.00    -0.278 OA
ATOM     18  N   UNL     1      -1.413  -1.999   0.034  0.00  0.00    -0.310 N 
ATOM     19  H   UNL     1      -0.634  -2.475   0.363  0.00  0.00    +0.149 HD
BRANCH  16  22
ATOM     20  C   UNL     1      -2.459  -5.970  -2.125  0.00  0.00    -0.029 C 
ATOM     21  C   UNL     1      -1.688  -4.713  -1.675  0.00  0.00    -0.005 C 
ATOM     22  C   UNL     1      -2.454  -4.192  -0.441  0.00  0.00    +0.019 C 
ATOM     23  C   UNL     1      -3.628  -6.103  -1.124  0.00  0.00    -0.075 C 
ATOM     24  C   UNL     1      -4.536  -4.753   0.691  0.00  0.00    -0.095 C 
ATOM     25  N   UNL     1      -3.802  -4.744  -0.615  0.00  0.00    +0.386 N 
ATOM     26  H   UNL     1      -4.328  -4.181  -1.293  0.00  0.00    -0.081 HD
BRANCH  20  27
ATOM     27  C   UNL     1      -1.556  -7.203  -2.053  0.00  0.00    +0.001 C 
BRANCH  27  29
ATOM     28  C   UNL     1      -1.395  -9.646  -2.547  0.00  0.00    +0.004 C 
ATOM     29  C   UNL     1      -2.299  -8.414  -2.619  0.00  0.00    -0.003 C 
ENDBRANCH  27  29
ENDBRANCH  20  27
ENDBRANCH  16  22
ENDBRANCH   1  18
BRANCH   1  30
ATOM     30  C   UNL     1      -2.124  -0.041   1.314  0.00  0.00    +0.100 C 
ATOM     31  C   UNL     1      -3.514  -0.670   1.417  0.00  0.00    +0.026 C 
ATOM     32 CL   UNL     1      -2.280   1.755   1.256  0.00  0.00    -0.120 Cl
ENDBRANCH   1  30
TORSDOF 10
