REMARK  Name = ZINC34757477
REMARK  7 active torsions:
REMARK  status: ('A' for Active; 'I' for Inactive)
REMARK    1  A    between atoms: C_1  and  C_2
REMARK    2  A    between atoms: C_2  and  C_3
REMARK    3  A    between atoms: C_2  and  C_4
REMARK    4  A    between atoms: C_7  and  N_10
REMARK    5  A    between atoms: C_18  and  O_29
REMARK    6  A    between atoms: N_25  and  C_28
REMARK    7  A    between atoms: O_29  and  C_30
REMARK                            x       y       z     vdW  Elec       q    Type
REMARK                         _______ _______ _______ _____ _____    ______ ____
ROOT
ATOM      1  N   UNL     1      -5.244  -3.916   0.331  0.00  0.00    -0.269 N 
ATOM      2  C   UNL     1      -5.777  -3.837  -0.905  0.00  0.00    +0.307 C 
ATOM      3  O   UNL     1      -5.125  -4.184  -1.871  0.00  0.00    -0.252 OA
ATOM      4  N   UNL     1      -7.032  -3.373  -1.070  0.00  0.00    -0.280 N 
ATOM      5  C   UNL     1      -7.686  -3.386  -2.389  0.00  0.00    +0.116 C 
ATOM      6  C   UNL     1      -8.890  -4.324  -2.310  0.00  0.00    +0.075 C 
ATOM      7  C   UNL     1      -9.707  -4.040  -1.079  0.00  0.00    +0.056 A 
ATOM      8  C   UNL     1      -9.206  -3.371   0.012  0.00  0.00    +0.053 A 
ATOM      9  C   UNL     1     -10.038  -3.169   1.117  0.00  0.00    +0.230 A 
ATOM     10  N   UNL     1     -11.285  -3.619   1.079  0.00  0.00    -0.179 NA
ATOM     11  C   UNL     1     -11.737  -4.252   0.007  0.00  0.00    +0.221 A 
ATOM     12  N   UNL     1     -10.969  -4.461  -1.049  0.00  0.00    -0.219 NA
ATOM     13  N   UNL     1     -13.044  -4.706  -0.008  0.00  0.00    -0.303 N 
ATOM     14  C   UNL     1     -13.551  -5.517  -1.125  0.00  0.00    +0.089 C 
ATOM     15  C   UNL     1     -14.228  -6.766  -0.552  0.00  0.00    -0.060 C 
ATOM     16  N   UNL     1     -15.254  -6.363   0.418  0.00  0.00    +0.380 N 
ATOM     17  C   UNL     1     -14.625  -5.694   1.563  0.00  0.00    -0.060 C 
ATOM     18  C   UNL     1     -13.965  -4.396   1.097  0.00  0.00    +0.089 C 
ATOM     19  C   UNL     1     -15.978  -7.553   0.886  0.00  0.00    -0.096 C 
ATOM     20  C   UNL     1      -7.802  -2.840   0.060  0.00  0.00    +0.151 C 
ATOM     21  H   UNL     1      -5.785  -3.701   1.107  0.00  0.00    +0.156 HD
ATOM     22  H   UNL     1     -15.904  -5.730  -0.025  0.00  0.00    -0.082 HD
ENDROOT
BRANCH   1  26
ATOM     23  C   UNL     1      -1.274  -5.079   0.818  0.00  0.00    -0.045 A 
ATOM     24  C   UNL     1      -1.839  -4.171   1.694  0.00  0.00    +0.006 A 
ATOM     25  C   UNL     1      -3.155  -3.783   1.535  0.00  0.00    +0.023 A 
ATOM     26  C   UNL     1      -3.910  -4.306   0.494  0.00  0.00    +0.035 A 
ATOM     27  C   UNL     1      -3.340  -5.218  -0.384  0.00  0.00    +0.023 A 
ATOM     28  C   UNL     1      -2.022  -5.598  -0.224  0.00  0.00    +0.006 A 
BRANCH  23  30
ATOM     29  C   UNL     1       1.070  -4.272   0.899  0.00  0.00    +0.012 C 
ATOM     30  C   UNL     1       0.163  -5.500   0.994  0.00  0.00    +0.013 C 
ATOM     31  C   UNL     1       0.337  -6.158   2.364  0.00  0.00    +0.012 C 
ENDBRANCH  23  30
ENDBRANCH   1  26
BRANCH   9  32
ATOM     32  O   UNL     1      -9.576  -2.521   2.213  0.00  0.00    -0.435 OA
BRANCH  32  33
ATOM     33  C   UNL     1     -10.412  -2.389   3.277  0.00  0.00    +0.165 A 
ATOM     34  C   UNL     1     -11.200  -3.458   3.677  0.00  0.00    +0.049 A 
ATOM     35  C   UNL     1     -12.050  -3.322   4.758  0.00  0.00    +0.004 A 
ATOM     36  C   UNL     1     -12.116  -2.122   5.442  0.00  0.00    +0.003 A 
ATOM     37  C   UNL     1     -11.332  -1.054   5.047  0.00  0.00    +0.042 A 
ATOM     38  C   UNL     1     -10.475  -1.186   3.969  0.00  0.00    +0.165 A 
ATOM     39  F   UNL     1      -9.704  -0.144   3.586  0.00  0.00    -0.202 F 
ENDBRANCH  32  33
ENDBRANCH   9  32
TORSDOF 4
