REMARK  Name = ZINC34785067
REMARK  11 active torsions:
REMARK  status: ('A' for Active; 'I' for Inactive)
REMARK    1  A    between atoms: C_1  and  C_2
REMARK    2  A    between atoms: C_2  and  O_3
REMARK    3  A    between atoms: O_3  and  C_4
REMARK    4  A    between atoms: C_4  and  C_6
REMARK    5  A    between atoms: C_10  and  N_11
REMARK    6  A    between atoms: N_17  and  C_20
REMARK    7  A    between atoms: C_20  and  C_21
REMARK    8  A    between atoms: N_23  and  C_24
REMARK    9  A    between atoms: C_27  and  C_30
REMARK   10  A    between atoms: C_33  and  C_35
REMARK   11  A    between atoms: C_33  and  C_36
REMARK                            x       y       z     vdW  Elec       q    Type
REMARK                         _______ _______ _______ _____ _____    ______ ____
ROOT
ATOM      1  N   UNL     1      -0.314  -3.280  -6.077  0.00  0.00    -0.263 N 
ATOM      2  C   UNL     1      -1.120  -2.785  -5.117  0.00  0.00    +0.307 C 
ATOM      3  O   UNL     1      -0.679  -2.573  -4.004  0.00  0.00    -0.252 OA
ATOM      4  N   UNL     1      -2.413  -2.525  -5.391  0.00  0.00    -0.289 N 
ATOM      5  C   UNL     1      -3.281  -1.873  -4.397  0.00  0.00    +0.091 C 
ATOM      6  C   UNL     1      -4.564  -2.698  -4.257  0.00  0.00    -0.059 C 
ATOM      7  N   UNL     1      -5.180  -2.871  -5.578  0.00  0.00    +0.387 N 
ATOM      8  C   UNL     1      -4.295  -3.662  -6.443  0.00  0.00    -0.059 C 
ATOM      9  C   UNL     1      -2.997  -2.879  -6.694  0.00  0.00    +0.091 C 
ATOM     10  H   UNL     1      -0.681  -3.518  -6.943  0.00  0.00    +0.157 HD
ATOM     11  H   UNL     1      -5.337  -1.966  -5.996  0.00  0.00    -0.081 HD
ENDROOT
BRANCH   1  16
ATOM     12  C   UNL     1       2.010  -3.941  -6.689  0.00  0.00    +0.091 A 
ATOM     13  C   UNL     1       3.367  -4.013  -6.182  0.00  0.00    -0.016 A 
ATOM     14  C   UNL     1       3.505  -3.587  -4.905  0.00  0.00    +0.021 A 
ATOM     15  S   UNL     1       1.878  -3.110  -4.413  0.00  0.00    -0.075 S 
ATOM     16  C   UNL     1       1.039  -3.450  -5.828  0.00  0.00    +0.088 A 
ATOM     17  C   UNL     1       4.783  -3.551  -4.126  0.00  0.00    +0.203 C 
ATOM     18  O   UNL     1       5.754  -4.335  -4.838  0.00  0.00    -0.368 OA
ATOM     19  C   UNL     1       5.837  -4.022  -6.231  0.00  0.00    +0.068 C 
ATOM     20  C   UNL     1       4.578  -4.511  -6.957  0.00  0.00    +0.071 C 
ATOM     21  C   UNL     1       7.066  -4.706  -6.832  0.00  0.00    +0.041 C 
ATOM     22  C   UNL     1       5.966  -2.508  -6.404  0.00  0.00    +0.041 C 
BRANCH  12  23
ATOM     23  C   UNL     1       1.681  -4.363  -8.052  0.00  0.00    +0.342 C 
ATOM     24  O   UNL     1       1.730  -3.561  -8.965  0.00  0.00    -0.245 OA
BRANCH  23  25
ATOM     25  O   UNL     1       1.323  -5.640  -8.295  0.00  0.00    -0.461 OA
BRANCH  25  27
ATOM     26  C   UNL     1       0.633  -7.461  -9.727  0.00  0.00    +0.048 C 
ATOM     27  C   UNL     1       1.015  -5.982  -9.648  0.00  0.00    +0.229 C 
ENDBRANCH  25  27
ENDBRANCH  23  25
ENDBRANCH  12  23
ENDBRANCH   1  16
BRANCH   7  28
ATOM     28  C   UNL     1      -6.466  -3.567  -5.429  0.00  0.00    +0.019 C 
BRANCH  28  29
ATOM     29  C   UNL     1      -7.157  -3.637  -6.767  0.00  0.00    +0.201 C 
ATOM     30  O   UNL     1      -6.630  -3.155  -7.747  0.00  0.00    -0.278 OA
ATOM     31  N   UNL     1      -8.360  -4.235  -6.873  0.00  0.00    -0.287 N 
ATOM     32  H   UNL     1      -8.811  -4.561  -6.079  0.00  0.00    +0.155 HD
BRANCH  31  33
ATOM     33  C   UNL     1      -8.957  -4.387  -8.130  0.00  0.00    +0.033 A 
ATOM     34  C   UNL     1      -9.719  -5.514  -8.407  0.00  0.00    +0.023 A 
ATOM     35  C   UNL     1     -10.307  -5.661  -9.648  0.00  0.00    +0.005 A 
ATOM     36  C   UNL     1     -10.138  -4.686 -10.614  0.00  0.00    -0.050 A 
ATOM     37  C   UNL     1      -9.379  -3.562 -10.342  0.00  0.00    +0.005 A 
ATOM     38  C   UNL     1      -8.794  -3.407  -9.101  0.00  0.00    +0.023 A 
ATOM     39  C   UNL     1     -10.781  -4.849 -11.967  0.00  0.00    +0.044 C 
ENDBRANCH  31  33
ENDBRANCH  28  29
ENDBRANCH   7  28
TORSDOF 7
