REMARK  Name = ZINC56508448
REMARK  9 active torsions:
REMARK  status: ('A' for Active; 'I' for Inactive)
REMARK    1  A    between atoms: C_1  and  C_2
REMARK    2  A    between atoms: C_2  and  C_3
REMARK    3  A    between atoms: C_3  and  N_4
REMARK    4  A    between atoms: N_4  and  C_5
REMARK    5  A    between atoms: N_4  and  C_10
REMARK    6  A    between atoms: C_5  and  C_6
REMARK    7  A    between atoms: N_8  and  C_9
REMARK    8  A    between atoms: C_10  and  C_11
REMARK    9  A    between atoms: N_13  and  C_14
REMARK                            x       y       z     vdW  Elec       q    Type
REMARK                         _______ _______ _______ _____ _____    ______ ____
ROOT
ATOM      1  C   UNL     1       2.974  -2.089  -2.697  0.00  0.00    +0.197 C 
ATOM      2  O   UNL     1       3.392  -1.359  -1.824  0.00  0.00    -0.278 OA
ATOM      3  N   UNL     1       3.788  -2.474  -3.701  0.00  0.00    -0.306 N 
ATOM      4  H   UNL     1       3.454  -3.058  -4.399  0.00  0.00    +0.149 HD
ENDROOT
BRANCH   3   5
ATOM      5  C   UNL     1       5.177  -2.009  -3.736  0.00  0.00    +0.159 C 
ATOM      6  C   UNL     1       6.029  -2.997  -4.537  0.00  0.00    +0.032 C 
ATOM      7  C   UNL     1       7.485  -2.916  -4.116  0.00  0.00    +0.004 C 
ATOM      8  C   UNL     1       8.152  -1.599  -4.468  0.00  0.00    +0.019 C 
ATOM      9  C   UNL     1       7.550  -0.449  -3.657  0.00  0.00    +0.104 C 
ATOM     10  N   UNL     1       6.367   0.061  -4.369  0.00  0.00    -0.314 N 
ATOM     11  C   UNL     1       5.244  -0.655  -4.409  0.00  0.00    +0.233 C 
ATOM     12  O   UNL     1       4.272  -0.221  -4.992  0.00  0.00    -0.274 OA
ATOM     13  H   UNL     1       6.405   0.925  -4.809  0.00  0.00    +0.149 HD
ENDBRANCH   3   5
BRANCH   1  14
ATOM     14  C   UNL     1       1.545  -2.567  -2.661  0.00  0.00    +0.019 C 
BRANCH  14  15
ATOM     15  N   UNL     1       0.874  -2.012  -1.478  0.00  0.00    +0.391 N 
ATOM     16  H   UNL     1       1.399  -2.251  -0.650  0.00  0.00    -0.080 HD
BRANCH  15  17
ATOM     17  C   UNL     1       0.792  -0.551  -1.601  0.00  0.00    -0.078 C 
BRANCH  17  19
ATOM     18  C   UNL     1       0.279   1.566  -0.377  0.00  0.00    +0.002 C 
ATOM     19  C   UNL     1       0.222   0.039  -0.309  0.00  0.00    -0.022 C 
ENDBRANCH  17  19
ENDBRANCH  15  17
BRANCH  15  20
ATOM     20  C   UNL     1      -0.481  -2.572  -1.377  0.00  0.00    +0.019 C 
BRANCH  20  21
ATOM     21  C   UNL     1      -0.394  -4.047  -1.083  0.00  0.00    +0.196 C 
ATOM     22  O   UNL     1       0.681  -4.558  -0.853  0.00  0.00    -0.278 OA
ATOM     23  N   UNL     1      -1.513  -4.800  -1.076  0.00  0.00    -0.320 N 
ATOM     24  C   UNL     1      -1.429  -6.234  -0.791  0.00  0.00    +0.128 C 
ATOM     25  H   UNL     1      -2.373  -4.391  -1.260  0.00  0.00    +0.148 HD
ENDBRANCH  20  21
ENDBRANCH  15  20
ENDBRANCH  14  15
ENDBRANCH   1  14
TORSDOF 7
