REMARK  Name = ZINC63491150
REMARK  7 active torsions:
REMARK  status: ('A' for Active; 'I' for Inactive)
REMARK    1  A    between atoms: C_1  and  O_2
REMARK    2  A    between atoms: O_2  and  C_3
REMARK    3  A    between atoms: C_9  and  C_12
REMARK    4  A    between atoms: C_12  and  C_13
REMARK    5  A    between atoms: C_13  and  N_14
REMARK    6  A    between atoms: C_15  and  C_17
REMARK    7  A    between atoms: C_17  and  N_18
REMARK                            x       y       z     vdW  Elec       q    Type
REMARK                         _______ _______ _______ _____ _____    ______ ____
ROOT
ATOM      1  N   UNL     1       1.793  -6.755  -0.031  0.00  0.00    -0.314 N 
ATOM      2  C   UNL     1       2.636  -7.328  -0.912  0.00  0.00    +0.232 C 
ATOM      3  O   UNL     1       3.756  -6.886  -1.055  0.00  0.00    -0.274 OA
ATOM      4  H   UNL     1       0.897  -7.108   0.083  0.00  0.00    +0.149 HD
ENDROOT
BRANCH   1   5
ATOM      5  C   UNL     1       2.230  -5.598   0.754  0.00  0.00    +0.108 C 
BRANCH   5   6
ATOM      6  C   UNL     1       1.092  -5.144   1.671  0.00  0.00    +0.052 C 
BRANCH   6  13
ATOM      7  C   UNL     1       0.626  -0.619   1.042  0.00  0.00    +0.121 A 
ATOM      8  C   UNL     1       1.202   0.173   2.051  0.00  0.00    +0.047 A 
ATOM      9  C   UNL     1       1.839  -0.358   3.116  0.00  0.00    +0.029 A 
ATOM     10  C   UNL     1       1.947  -1.815   3.248  0.00  0.00    +0.043 A 
ATOM     11  N   UNL     1       2.500  -2.573   4.161  0.00  0.00    -0.380 N 
ATOM     12  C   UNL     1       2.308  -3.978   3.782  0.00  0.00    +0.144 C 
ATOM     13  C   UNL     1       1.541  -3.954   2.479  0.00  0.00    -0.040 C 
ATOM     14  C   UNL     1       1.340  -2.650   2.185  0.00  0.00    +0.002 A 
ATOM     15  C   UNL     1       0.667  -1.972   1.072  0.00  0.00    +0.055 A 
ATOM     16  H   UNL     1       2.961  -2.259   4.955  0.00  0.00    +0.160 HD
BRANCH   7  18
ATOM     17  C   UNL     1      -0.017   1.425   0.010  0.00  0.00    +0.277 C 
ATOM     18  O   UNL     1       0.002  -0.004   0.002  0.00  0.00    -0.495 OA
ENDBRANCH   7  18
ENDBRANCH   6  13
ENDBRANCH   5   6
ENDBRANCH   1   5
BRANCH   2  19
ATOM     19  C   UNL     1       2.187  -8.518  -1.720  0.00  0.00    +0.224 C 
BRANCH  19  20
ATOM     20  N   UNL     1       3.276  -8.953  -2.598  0.00  0.00    -0.208 N 
ATOM     21  C   UNL     1       4.157  -9.876  -2.147  0.00  0.00    +0.264 C 
ATOM     22  O   UNL     1       4.005 -10.418  -1.069  0.00  0.00    -0.269 OA
ATOM     23  C   UNL     1       5.308 -10.201  -3.012  0.00  0.00    +0.060 A 
ATOM     24  C   UNL     1       6.140 -11.289  -2.785  0.00  0.00    +0.015 A 
ATOM     25  C   UNL     1       7.198 -11.521  -3.642  0.00  0.00    +0.001 A 
ATOM     26  C   UNL     1       7.430 -10.677  -4.718  0.00  0.00    +0.002 A 
ATOM     27  C   UNL     1       6.608  -9.591  -4.954  0.00  0.00    +0.025 A 
ATOM     28  C   UNL     1       5.544  -9.347  -4.107  0.00  0.00    +0.055 A 
ATOM     29  N   UNL     1       4.666  -8.283  -4.280  0.00  0.00    -0.264 N 
ATOM     30  N   UNL     1       3.374  -8.421  -3.847  0.00  0.00    -0.158 NA
ATOM     31  H   UNL     1       4.963  -7.461  -4.700  0.00  0.00    +0.168 HD
ATOM     32  H   UNL     1       2.821  -8.947  -4.507  0.00  0.00    +0.168 HD
ENDBRANCH  19  20
ENDBRANCH   2  19
TORSDOF 6
