REMARK  Name = ZINC56807113
REMARK  6 active torsions:
REMARK  status: ('A' for Active; 'I' for Inactive)
REMARK    1  A    between atoms: C_6  and  C_7
REMARK    2  A    between atoms: C_7  and  C_9
REMARK    3  A    between atoms: C_7  and  O_28
REMARK    4  A    between atoms: C_9  and  N_10
REMARK    5  A    between atoms: N_13  and  C_14
REMARK    6  A    between atoms: N_23  and  C_25
REMARK                            x       y       z     vdW  Elec       q    Type
REMARK                         _______ _______ _______ _____ _____    ______ ____
ROOT
ATOM      1  N   UNL     1      -2.913  -1.900   1.457  0.00  0.00    -0.297 N 
ATOM      2  C   UNL     1      -3.429  -2.338   2.622  0.00  0.00    +0.300 C 
ATOM      3  O   UNL     1      -2.849  -2.112   3.667  0.00  0.00    -0.253 OA
ATOM      4  N   UNL     1      -4.587  -3.027   2.630  0.00  0.00    -0.296 N 
ATOM      5  H   UNL     1      -3.375  -2.080   0.623  0.00  0.00    +0.150 HD
ATOM      6  H   UNL     1      -5.049  -3.208   1.796  0.00  0.00    +0.151 HD
ENDROOT
BRANCH   4   7
ATOM      7  C   UNL     1      -5.146  -3.502   3.893  0.00  0.00    +0.077 C 
ATOM      8  C   UNL     1      -4.554  -4.864   4.263  0.00  0.00    -0.007 C 
ATOM      9  C   UNL     1      -4.817  -5.869   3.149  0.00  0.00    +0.003 C 
ATOM     10  C   UNL     1      -6.290  -5.992   2.796  0.00  0.00    +0.001 C 
ATOM     11  C   UNL     1      -6.988  -4.650   2.647  0.00  0.00    +0.003 C 
ATOM     12  C   UNL     1      -6.662  -3.681   3.774  0.00  0.00    -0.007 C 
ATOM     13  C   UNL     1      -7.224  -4.158   5.107  0.00  0.00    -0.073 C 
ATOM     14  N   UNL     1      -6.597  -5.386   5.585  0.00  0.00    +0.382 N 
ATOM     15  C   UNL     1      -5.139  -5.331   5.589  0.00  0.00    -0.073 C 
ATOM     16  H   UNL     1      -6.916  -6.175   5.045  0.00  0.00    -0.081 HD
BRANCH  14  17
ATOM     17  C   UNL     1      -7.047  -5.620   6.964  0.00  0.00    -0.069 C 
ATOM     18  C   UNL     1      -7.619  -6.999   7.296  0.00  0.00    -0.017 C 
ATOM     19  C   UNL     1      -8.550  -5.789   7.197  0.00  0.00    -0.017 C 
ENDBRANCH  14  17
ENDBRANCH   4   7
BRANCH   1  20
ATOM     20  C   UNL     1      -1.653  -1.151   1.449  0.00  0.00    +0.141 C 
BRANCH  20  21
ATOM     21  C   UNL     1      -1.293  -0.774   0.010  0.00  0.00    +0.162 C 
BRANCH  21  27
ATOM     22  C   UNL     1      -0.017   1.378   0.010  0.00  0.00    +0.009 A 
ATOM     23  C   UNL     1       1.170   2.087   0.002  0.00  0.00    +0.041 A 
ATOM     24  C   UNL     1       2.379   1.413  -0.013  0.00  0.00    +0.158 A 
ATOM     25  C   UNL     1       2.397   0.026  -0.021  0.00  0.00    +0.159 A 
ATOM     26  C   UNL     1       1.208  -0.680  -0.013  0.00  0.00    +0.047 A 
ATOM     27  C   UNL     1       0.002  -0.004   0.002  0.00  0.00    -0.015 A 
ATOM     28  F   UNL     1       3.576  -0.634  -0.036  0.00  0.00    -0.202 F 
ATOM     29  F   UNL     1       3.539   2.105  -0.021  0.00  0.00    -0.202 F 
ENDBRANCH  21  27
BRANCH  21  30
ATOM     30  O   UNL     1      -1.146  -1.962  -0.770  0.00  0.00    -0.386 OA
ATOM     31  H   UNL     1      -0.456  -2.560  -0.451  0.00  0.00    +0.210 HD
ENDBRANCH  21  30
ENDBRANCH  20  21
ENDBRANCH   1  20
TORSDOF 6
