REMARK  Name = ZINC39795931
REMARK  5 active torsions:
REMARK  status: ('A' for Active; 'I' for Inactive)
REMARK    1  A    between atoms: C_4  and  C_7
REMARK    2  A    between atoms: C_7  and  C_9
REMARK    3  A    between atoms: C_7  and  S_20
REMARK    4  A    between atoms: C_9  and  C_11
REMARK    5  A    between atoms: S_20  and  C_21
REMARK                            x       y       z     vdW  Elec       q    Type
REMARK                         _______ _______ _______ _____ _____    ______ ____
ROOT
ATOM      1  C   UNL     1       3.711  -0.707  -0.038  0.00  0.00    +0.155 C 
ENDROOT
BRANCH   1   5
ATOM      2  C   UNL     1      -0.017   1.378   0.010  0.00  0.00    +0.000 A 
ATOM      3  C   UNL     1       1.171   2.086   0.002  0.00  0.00    +0.000 A 
ATOM      4  C   UNL     1       2.377   1.411  -0.013  0.00  0.00    +0.005 A 
ATOM      5  C   UNL     1       2.396   0.029  -0.020  0.00  0.00    -0.027 A 
ATOM      6  C   UNL     1       1.208  -0.679  -0.012  0.00  0.00    +0.005 A 
ATOM      7  C   UNL     1       0.002  -0.004   0.002  0.00  0.00    +0.000 A 
ENDBRANCH   1   5
BRANCH   1   8
ATOM      8  C   UNL     1       3.790  -1.566  -1.273  0.00  0.00    +0.179 C 
ATOM      9  O   UNL     1       3.467  -2.736  -1.221  0.00  0.00    -0.291 OA
BRANCH   8  10
ATOM     10  C   UNL     1       4.238  -1.012  -2.491  0.00  0.00    +0.025 C 
ATOM     11  C   UNL     1       4.363  -1.657  -3.708  0.00  0.00    +0.006 A 
ATOM     12  C   UNL     1       4.108  -2.984  -4.124  0.00  0.00    +0.010 A 
ATOM     13  C   UNL     1       4.325  -3.350  -5.407  0.00  0.00    +0.001 A 
ATOM     14  C   UNL     1       4.804  -2.453  -6.376  0.00  0.00    +0.002 A 
ATOM     15  C   UNL     1       5.079  -1.164  -6.082  0.00  0.00    +0.026 A 
ATOM     16  C   UNL     1       4.870  -0.683  -4.706  0.00  0.00    +0.043 A 
ATOM     17  N   UNL     1       5.050   0.484  -4.156  0.00  0.00    -0.380 N 
ATOM     18  C   UNL     1       4.677   0.415  -2.740  0.00  0.00    +0.152 C 
ATOM     19  H   UNL     1       5.375   1.275  -4.613  0.00  0.00    +0.160 HD
ENDBRANCH   8  10
ENDBRANCH   1   8
BRANCH   1  20
ATOM     20  S   UNL     1       3.837  -1.756   1.437  0.00  0.00    -0.070 S 
BRANCH  20  21
ATOM     21  C   UNL     1       3.879  -0.609   2.774  0.00  0.00    +0.195 A 
ATOM     22  N   UNL     1       3.813   0.697   2.532  0.00  0.00    -0.189 NA
ATOM     23  C   UNL     1       3.845   1.562   3.540  0.00  0.00    +0.218 A 
ATOM     24  N   UNL     1       3.942   1.122   4.791  0.00  0.00    -0.181 NA
ATOM     25  C   UNL     1       4.007  -0.183   5.033  0.00  0.00    +0.218 A 
ATOM     26  N   UNL     1       3.970  -1.049   4.026  0.00  0.00    -0.189 NA
ATOM     27  N   UNL     1       4.108  -0.640   6.332  0.00  0.00    -0.327 N 
ATOM     28  N   UNL     1       3.778   2.918   3.289  0.00  0.00    -0.327 N 
ATOM     29  H   UNL     1       4.131  -0.008   7.068  0.00  0.00    +0.145 HD
ATOM     30  H   UNL     1       4.155  -1.592   6.509  0.00  0.00    +0.145 HD
ATOM     31  H   UNL     1       3.707   3.239   2.376  0.00  0.00    +0.145 HD
ATOM     32  H   UNL     1       3.801   3.549   4.025  0.00  0.00    +0.145 HD
ENDBRANCH  20  21
ENDBRANCH   1  20
TORSDOF 5
