REMARK  Name = ZINC02561064
REMARK  13 active torsions:
REMARK  status: ('A' for Active; 'I' for Inactive)
REMARK    1  A    between atoms: C_1  and  C_2
REMARK    2  A    between atoms: C_2  and  C_3
REMARK    3  A    between atoms: C_2  and  C_4
REMARK    4  A    between atoms: C_4  and  C_5
REMARK    5  A    between atoms: C_5  and  C_7
REMARK    6  A    between atoms: C_5  and  N_57
REMARK    7  A    between atoms: N_9  and  C_10
REMARK    8  A    between atoms: C_10  and  C_11
REMARK    9  A    between atoms: N_13  and  C_14
REMARK   10  A    between atoms: C_14  and  C_15
REMARK   11  A    between atoms: N_17  and  C_18
REMARK   12  A    between atoms: C_26  and  O_28
REMARK   13  A    between atoms: O_28  and  C_29
REMARK                            x       y       z     vdW  Elec       q    Type
REMARK                         _______ _______ _______ _____ _____    ______ ____
ROOT
ATOM      1  C   UNL     1       4.904   1.672   0.267  0.00  0.00    +0.231 C 
ATOM      2  O   UNL     1       5.042   0.473   0.379  0.00  0.00    -0.274 OA
ATOM      3  N   UNL     1       3.669   2.204   0.185  0.00  0.00    -0.305 N 
ATOM      4  H   UNL     1       3.558   3.163   0.095  0.00  0.00    +0.149 HD
ENDROOT
BRANCH   1   5
ATOM      5  C   UNL     1       6.115   2.568   0.218  0.00  0.00    +0.200 C 
BRANCH   5   8
ATOM      6  C   UNL     1       8.540   2.347   0.303  0.00  0.00    +0.199 C 
ATOM      7  O   UNL     1       8.624   3.552   0.196  0.00  0.00    -0.278 OA
ATOM      8  N   UNL     1       7.329   1.756   0.324  0.00  0.00    -0.308 N 
ATOM      9  H   UNL     1       7.261   0.792   0.409  0.00  0.00    +0.149 HD
BRANCH   6  10
ATOM     10  C   UNL     1       9.789   1.511   0.412  0.00  0.00    +0.013 C 
BRANCH  10  13
ATOM     11  H   UNL     1      11.121   3.079   0.474  0.00  0.00    -0.089 HD
ATOM     12  H   UNL     1      11.753   1.687  -0.180  0.00  0.00    -0.089 HD
ATOM     13  N   UNL     1      10.926   2.279  -0.125  0.00  0.00    +0.386 N 
ATOM     14  H   UNL     1      10.691   2.615  -1.067  0.00  0.00    -0.089 HD
ENDBRANCH  10  13
BRANCH  10  15
ATOM     15  C   UNL     1      10.034   1.149   1.878  0.00  0.00    -0.004 C 
BRANCH  15  17
ATOM     16  C   UNL     1       8.978  -1.101   1.616  0.00  0.00    +0.007 C 
ATOM     17  C   UNL     1       8.914   0.229   2.370  0.00  0.00    -0.018 C 
ATOM     18  C   UNL     1       9.086  -0.026   3.869  0.00  0.00    +0.007 C 
ENDBRANCH  15  17
ENDBRANCH  10  15
ENDBRANCH   6  10
ENDBRANCH   5   8
ENDBRANCH   1   5
BRANCH   3  19
ATOM     19  C   UNL     1       2.492   1.333   0.233  0.00  0.00    +0.200 C 
BRANCH  19  20
ATOM     20  C   UNL     1       1.243   2.169   0.123  0.00  0.00    +0.234 C 
ATOM     21  O   UNL     1       1.327   3.374   0.017  0.00  0.00    -0.274 OA
ATOM     22  N   UNL     1       0.032   1.578   0.145  0.00  0.00    -0.284 N 
ATOM     23  H   UNL     1      -0.035   0.610   0.158  0.00  0.00    +0.155 HD
BRANCH  22  24
ATOM     24  C   UNL     1      -1.128   2.359   0.142  0.00  0.00    +0.037 A 
ATOM     25  C   UNL     1      -1.159   3.530  -0.585  0.00  0.00    +0.032 A 
ATOM     26  C   UNL     1      -2.324   4.314  -0.588  0.00  0.00    -0.013 A 
ATOM     27  C   UNL     1      -2.391   5.515  -1.317  0.00  0.00    +0.009 A 
ATOM     28  C   UNL     1      -3.535   6.251  -1.298  0.00  0.00    +0.001 A 
ATOM     29  C   UNL     1      -4.644   5.832  -0.565  0.00  0.00    +0.001 A 
ATOM     30  C   UNL     1      -4.615   4.676   0.152  0.00  0.00    +0.012 A 
ATOM     31  C   UNL     1      -3.452   3.889   0.157  0.00  0.00    +0.024 A 
ATOM     32  C   UNL     1      -3.388   2.686   0.889  0.00  0.00    +0.130 A 
ATOM     33  C   UNL     1      -2.245   1.940   0.871  0.00  0.00    +0.069 A 
BRANCH  32  34
ATOM     34  O   UNL     1      -4.463   2.267   1.607  0.00  0.00    -0.494 OA
ATOM     35  C   UNL     1      -4.325   1.039   2.324  0.00  0.00    +0.277 C 
ENDBRANCH  32  34
ENDBRANCH  22  24
ENDBRANCH  19  20
ENDBRANCH   3  19
TORSDOF 10
