REMARK  Name = ZINC21036191
REMARK  8 active torsions:
REMARK  status: ('A' for Active; 'I' for Inactive)
REMARK    1  A    between atoms: C_2  and  C_3
REMARK    2  A    between atoms: C_3  and  S_4
REMARK    3  A    between atoms: S_4  and  C_5
REMARK    4  A    between atoms: C_11  and  C_13
REMARK    5  A    between atoms: C_13  and  S_14
REMARK    6  A    between atoms: S_14  and  C_15
REMARK    7  A    between atoms: N_19  and  N_20
REMARK    8  A    between atoms: N_21  and  N_22
REMARK                            x       y       z     vdW  Elec       q    Type
REMARK                         _______ _______ _______ _____ _____    ______ ____
ROOT
ATOM      1  C   UNL     1       0.524  -4.400  -0.026  0.00  0.00    +0.173 C 
ENDROOT
BRANCH   1   8
ATOM      2  C   UNL     1       1.100   1.973   0.002  0.00  0.00    +0.160 A 
ATOM      3  N   UNL     1      -0.015   1.257   0.009  0.00  0.00    -0.133 NA
ATOM      4  N   UNL     1       0.002  -0.004   0.002  0.00  0.00    -0.125 NA
ATOM      5  C   UNL     1       1.133  -0.690  -0.013  0.00  0.00    +0.189 A 
ATOM      6  S   UNL     1       2.314   0.656  -0.017  0.00  0.00    -0.024 S 
ATOM      7  N   UNL     1       1.345  -2.067  -0.021  0.00  0.00    -0.263 N 
ATOM      8  C   UNL     1       0.294  -2.910  -0.016  0.00  0.00    +0.229 C 
ATOM      9  O   UNL     1      -0.836  -2.471  -0.003  0.00  0.00    -0.275 OA
ATOM     10  H   UNL     1       2.370  -2.465  -0.033  0.00  0.00    +0.157 HD
BRANCH   2  11
ATOM     11  S   UNL     1       1.324   3.720   0.009  0.00  0.00    -0.093 S 
BRANCH  11  12
ATOM     12  C   UNL     1      -0.365   4.380   0.028  0.00  0.00    +0.103 C 
BRANCH  12  14
ATOM     13  C   UNL     1      -0.785   6.561  -0.985  0.00  0.00    +0.005 C 
ATOM     14  C   UNL     1      -0.317   5.886   0.035  0.00  0.00    -0.023 C 
ENDBRANCH  12  14
ENDBRANCH  11  12
ENDBRANCH   2  11
ENDBRANCH   1   8
BRANCH   1  15
ATOM     15  S   UNL     1      -1.074  -5.258  -0.015  0.00  0.00    -0.075 S 
BRANCH  15  16
ATOM     16  C   UNL     1      -0.641  -6.966  -0.028  0.00  0.00    +0.210 A 
ATOM     17  N   UNL     1       0.576  -7.452  -0.048  0.00  0.00    -0.119 NA
ATOM     18  N   UNL     1       0.484  -8.850  -0.049  0.00  0.00    -0.110 NA
ATOM     19  C   UNL     1      -0.786  -9.172  -0.039  0.00  0.00    +0.248 A 
ATOM     20  N   UNL     1      -1.515  -8.017  -0.025  0.00  0.00    -0.211 N 
ATOM     21  N   UNL     1      -1.301 -10.462  -0.041  0.00  0.00    -0.251 N 
ATOM     22  H   UNL     1      -2.390 -10.619  -0.031  0.00  0.00    +0.169 HD
BRANCH  20  23
ATOM     23  N   UNL     1      -2.878  -7.927  -0.012  0.00  0.00    -0.294 N 
ATOM     24  H   UNL     1      -3.489  -8.841  -0.011  0.00  0.00    +0.163 HD
ATOM     25  H   UNL     1      -3.364  -6.940  -0.002  0.00  0.00    +0.163 HD
ENDBRANCH  20  23
BRANCH  21  26
ATOM     26  N   UNL     1      -0.456 -11.535  -0.054  0.00  0.00    -0.254 NA
ATOM     27  H   UNL     1      -1.044 -12.464  -0.054  0.00  0.00    +0.140 HD
ATOM     28  H   UNL     1       0.170 -11.497  -0.959  0.00  0.00    +0.140 HD
ENDBRANCH  21  26
ENDBRANCH  15  16
ENDBRANCH   1  15
TORSDOF 8
