REMARK  Name = ZINC15064410
REMARK  7 active torsions:
REMARK  status: ('A' for Active; 'I' for Inactive)
REMARK    1  A    between atoms: C_1  and  O_2
REMARK    2  A    between atoms: O_2  and  C_3
REMARK    3  A    between atoms: C_8  and  C_9
REMARK    4  A    between atoms: C_9  and  N_10
REMARK    5  A    between atoms: C_13  and  N_19
REMARK    6  A    between atoms: C_15  and  O_18
REMARK    7  A    between atoms: C_22  and  O_25
REMARK                            x       y       z     vdW  Elec       q    Type
REMARK                         _______ _______ _______ _____ _____    ______ ____
ROOT
ATOM      1  N   UNL     1       0.949  -2.895  -1.155  0.00  0.00    -0.296 NA
ATOM      2  C   UNL     1       1.112  -1.562  -1.748  0.00  0.00    +0.083 C 
ATOM      3  C   UNL     1       2.165  -1.620  -2.857  0.00  0.00    +0.003 C 
ATOM      4  C   UNL     1       1.720  -2.623  -3.925  0.00  0.00    -0.037 C 
ATOM      5  C   UNL     1       1.511  -3.992  -3.273  0.00  0.00    +0.115 C 
ATOM      6  C   UNL     1       0.476  -3.865  -2.152  0.00  0.00    +0.114 C 
ENDROOT
BRANCH   4   7
ATOM      7  N   UNL     1       2.754  -2.725  -4.964  0.00  0.00    +0.383 N 
ATOM      8  C   UNL     1       4.040  -3.057  -4.340  0.00  0.00    -0.076 C 
ATOM      9  C   UNL     1       5.104  -3.245  -5.425  0.00  0.00    +0.013 C 
ATOM     10  C   UNL     1       5.242  -1.947  -6.226  0.00  0.00    +0.111 C 
ATOM     11  C   UNL     1       3.878  -1.571  -6.810  0.00  0.00    +0.013 C 
ATOM     12  C   UNL     1       2.860  -1.445  -5.674  0.00  0.00    -0.076 C 
ATOM     13  H   UNL     1       2.502  -3.451  -5.617  0.00  0.00    -0.081 HD
BRANCH  10  14
ATOM     14  O   UNL     1       6.180  -2.138  -7.287  0.00  0.00    -0.392 OA
ATOM     15  H   UNL     1       6.317  -1.355  -7.836  0.00  0.00    +0.210 HD
ENDBRANCH  10  14
ENDBRANCH   4   7
BRANCH   5  16
ATOM     16  O   UNL     1       1.042  -4.921  -4.252  0.00  0.00    -0.392 OA
ATOM     17  H   UNL     1       0.887  -5.811  -3.908  0.00  0.00    +0.210 HD
ENDBRANCH   5  16
BRANCH   1  18
ATOM     18  C   UNL     1       0.048  -2.849   0.004  0.00  0.00    +0.123 C 
BRANCH  18  24
ATOM     19  C   UNL     1       0.639  -0.652   1.058  0.00  0.00    +0.125 A 
ATOM     20  C   UNL     1       1.221   0.089   2.074  0.00  0.00    +0.049 A 
ATOM     21  C   UNL     1       1.850  -0.549   3.129  0.00  0.00    -0.041 A 
ATOM     22  C   UNL     1       1.897  -1.931   3.168  0.00  0.00    -0.044 A 
ATOM     23  C   UNL     1       1.316  -2.672   2.153  0.00  0.00    +0.012 A 
ATOM     24  C   UNL     1       0.684  -2.038   1.103  0.00  0.00    +0.009 A 
ATOM     25  C   UNL     1       2.634  -2.381   4.412  0.00  0.00    +0.036 C 
ATOM     26  C   UNL     1       3.406  -1.136   4.897  0.00  0.00    +0.009 C 
ATOM     27  C   UNL     1       2.550   0.022   4.343  0.00  0.00    +0.036 C 
BRANCH  19  29
ATOM     28  C   UNL     1       0.015   1.405   0.044  0.00  0.00    +0.277 C 
ATOM     29  O   UNL     1       0.021  -0.023   0.023  0.00  0.00    -0.495 OA
ENDBRANCH  19  29
ENDBRANCH  18  24
ENDBRANCH   1  18
TORSDOF 6
