REMARK  Name = ZINC51053830
REMARK  11 active torsions:
REMARK  status: ('A' for Active; 'I' for Inactive)
REMARK    1  A    between atoms: C_1  and  C_2
REMARK    2  A    between atoms: C_2  and  C_3
REMARK    3  A    between atoms: C_3  and  C_4
REMARK    4  A    between atoms: C_4  and  C_6
REMARK    5  A    between atoms: C_4  and  N_7
REMARK    6  A    between atoms: C_8  and  C_10
REMARK    7  A    between atoms: N_15  and  C_17
REMARK    8  A    between atoms: C_17  and  C_19
REMARK    9  A    between atoms: C_17  and  C_20
REMARK   10  A    between atoms: N_22  and  C_23
REMARK   11  A    between atoms: C_24  and  C_28
REMARK                            x       y       z     vdW  Elec       q    Type
REMARK                         _______ _______ _______ _____ _____    ______ ____
ROOT
ATOM      1  C   UNL     1       0.223  -4.893  -1.462  0.00  0.00    +0.058 C 
ATOM      2  C   UNL     1      -0.071  -3.897  -2.587  0.00  0.00    +0.009 C 
ATOM      3  C   UNL     1       1.131  -3.844  -3.535  0.00  0.00    -0.018 C 
ATOM      4  C   UNL     1       1.417  -5.250  -4.066  0.00  0.00    -0.078 C 
ATOM      5  N   UNL     1       1.716  -6.149  -2.944  0.00  0.00    +0.388 N 
ATOM      6  C   UNL     1       0.544  -6.261  -2.068  0.00  0.00    -0.065 C 
ATOM      7  H   UNL     1       2.494  -5.780  -2.417  0.00  0.00    -0.081 HD
ENDROOT
BRANCH   1   9
ATOM      8  N   UNL     1      -1.453  -3.924   0.078  0.00  0.00    -0.313 N 
ATOM      9  C   UNL     1      -0.984  -5.011  -0.566  0.00  0.00    +0.215 C 
ATOM     10  O   UNL     1      -1.532  -6.083  -0.425  0.00  0.00    -0.276 OA
ATOM     11  H   UNL     1      -1.014  -3.066  -0.035  0.00  0.00    +0.149 HD
BRANCH   8  12
ATOM     12  C   UNL     1      -2.625  -4.038   0.949  0.00  0.00    +0.070 C 
ATOM     13  C   UNL     1      -2.184  -4.492   2.342  0.00  0.00    +0.028 C 
BRANCH  12  14
ATOM     14  C   UNL     1      -3.319  -2.678   1.052  0.00  0.00    +0.022 C 
BRANCH  14  16
ATOM     15  C   UNL     1      -4.563  -0.921  -0.217  0.00  0.00    +0.004 C 
ATOM     16  C   UNL     1      -3.870  -2.281  -0.319  0.00  0.00    -0.002 C 
ENDBRANCH  14  16
ENDBRANCH  12  14
ENDBRANCH   8  12
ENDBRANCH   1   9
BRANCH   5  17
ATOM     17  C   UNL     1       2.067  -7.478  -3.463  0.00  0.00    +0.016 C 
ATOM     18  C   UNL     1       3.259  -7.355  -4.414  0.00  0.00    -0.004 C 
BRANCH  17  19
ATOM     19  C   UNL     1       2.430  -8.385  -2.316  0.00  0.00    +0.204 C 
ATOM     20  O   UNL     1       2.878  -7.917  -1.291  0.00  0.00    -0.277 OA
ATOM     21  N   UNL     1       2.256  -9.717  -2.430  0.00  0.00    -0.281 N 
ATOM     22  H   UNL     1       1.897 -10.091  -3.250  0.00  0.00    +0.155 HD
BRANCH  21  23
ATOM     23  C   UNL     1       2.590 -10.552  -1.375  0.00  0.00    +0.084 A 
ATOM     24  C   UNL     1       2.486 -11.934  -1.315  0.00  0.00    +0.065 A 
ATOM     25  C   UNL     1       2.908 -12.561  -0.083  0.00  0.00    +0.022 A 
ATOM     26  C   UNL     1       3.358 -11.729   0.874  0.00  0.00    +0.048 A 
ATOM     27  S   UNL     1       3.220 -10.124   0.120  0.00  0.00    -0.081 S 
BRANCH  24  28
ATOM     28  C   UNL     1       1.974 -12.718  -2.443  0.00  0.00    +0.244 C 
ATOM     29  O   UNL     1       1.626 -12.157  -3.466  0.00  0.00    -0.270 OA
ATOM     30  N   UNL     1       1.887 -14.060  -2.347  0.00  0.00    -0.325 N 
ATOM     31  H   UNL     1       2.164 -14.507  -1.532  0.00  0.00    +0.145 HD
ATOM     32  H   UNL     1       1.548 -14.578  -3.094  0.00  0.00    +0.145 HD
ENDBRANCH  24  28
ENDBRANCH  21  23
ENDBRANCH  17  19
ENDBRANCH   5  17
TORSDOF 8
