REMARK  Name = ZINC07493442
REMARK  11 active torsions:
REMARK  status: ('A' for Active; 'I' for Inactive)
REMARK    1  A    between atoms: C_1  and  C_2
REMARK    2  A    between atoms: C_2  and  N_58
REMARK    3  A    between atoms: C_3  and  C_4
REMARK    4  A    between atoms: C_3  and  N_58
REMARK    5  A    between atoms: N_10  and  C_11
REMARK    6  A    between atoms: C_16  and  C_17
REMARK    7  A    between atoms: C_19  and  C_20
REMARK    8  A    between atoms: C_19  and  N_58
REMARK    9  A    between atoms: N_22  and  C_23
REMARK   10  A    between atoms: C_28  and  O_29
REMARK   11  A    between atoms: O_29  and  C_30
REMARK                            x       y       z     vdW  Elec       q    Type
REMARK                         _______ _______ _______ _____ _____    ______ ____
ROOT
ATOM      1  C   UNL     1      -1.032  -1.446   0.040  0.00  0.00    -0.000 C 
ENDROOT
BRANCH   1   2
ATOM      2  C   UNL     1       0.057  -0.415  -0.105  0.00  0.00    +0.120 A 
ATOM      3  N   UNL     1       1.324  -0.775   0.003  0.00  0.00    -0.202 NA
ATOM      4  C   UNL     1       2.289   0.133  -0.125  0.00  0.00    +0.217 A 
ATOM      5  N   UNL     1       1.977   1.403  -0.362  0.00  0.00    -0.181 NA
ATOM      6  C   UNL     1       0.702   1.761  -0.470  0.00  0.00    +0.224 A 
ATOM      7  N   UNL     1      -0.257   0.847  -0.341  0.00  0.00    -0.201 NA
ATOM      8  N   UNL     1       0.372   3.079  -0.717  0.00  0.00    -0.283 N 
ATOM      9  N   UNL     1       3.612  -0.243  -0.011  0.00  0.00    -0.327 N 
ATOM     10  H   UNL     1      -0.551   3.325  -0.883  0.00  0.00    +0.155 HD
ATOM     11  H   UNL     1       3.839  -1.170   0.162  0.00  0.00    +0.145 HD
ATOM     12  H   UNL     1       4.314   0.419  -0.105  0.00  0.00    +0.145 HD
BRANCH   8  13
ATOM     13  C   UNL     1       1.369   4.059  -0.728  0.00  0.00    +0.036 A 
ATOM     14  C   UNL     1       2.548   3.861  -0.019  0.00  0.00    +0.023 A 
ATOM     15  C   UNL     1       3.532   4.829  -0.035  0.00  0.00    +0.002 A 
ATOM     16  C   UNL     1       3.343   5.999  -0.748  0.00  0.00    +0.000 A 
ATOM     17  C   UNL     1       2.169   6.201  -1.451  0.00  0.00    +0.005 A 
ATOM     18  C   UNL     1       1.182   5.235  -1.443  0.00  0.00    -0.029 A 
ATOM     19  C   UNL     1      -0.097   5.457  -2.208  0.00  0.00    +0.045 C 
ENDBRANCH   8  13
ENDBRANCH   1   2
BRANCH   1  20
ATOM     20  N   UNL     1      -1.344  -2.002  -1.293  0.00  0.00    +0.390 N 
ATOM     21  H   UNL     1      -1.524  -1.228  -1.944  0.00  0.00    -0.081 HD
BRANCH  20  23
ATOM     22  C   UNL     1       0.056  -3.999  -0.888  0.00  0.00    -0.017 C 
ATOM     23  C   UNL     1      -0.198  -2.791  -1.792  0.00  0.00    -0.081 C 
ENDBRANCH  20  23
BRANCH  20  24
ATOM     24  C   UNL     1      -2.548  -2.855  -1.216  0.00  0.00    +0.019 C 
BRANCH  24  25
ATOM     25  C   UNL     1      -3.049  -3.114  -2.614  0.00  0.00    +0.201 C 
ATOM     26  O   UNL     1      -2.409  -2.725  -3.568  0.00  0.00    -0.278 OA
ATOM     27  N   UNL     1      -4.207  -3.777  -2.803  0.00  0.00    -0.284 N 
ATOM     28  H   UNL     1      -4.748  -4.036  -2.041  0.00  0.00    +0.155 HD
BRANCH  27  29
ATOM     29  C   UNL     1      -4.629  -4.093  -4.101  0.00  0.00    +0.076 A 
ATOM     30  C   UNL     1      -4.204  -3.327  -5.177  0.00  0.00    +0.027 A 
ATOM     31  C   UNL     1      -4.618  -3.643  -6.457  0.00  0.00    +0.002 A 
ATOM     32  C   UNL     1      -5.464  -4.717  -6.668  0.00  0.00    +0.004 A 
ATOM     33  C   UNL     1      -5.896  -5.482  -5.600  0.00  0.00    +0.047 A 
ATOM     34  C   UNL     1      -5.481  -5.174  -4.314  0.00  0.00    +0.141 A 
BRANCH  34  35
ATOM     35  O   UNL     1      -5.906  -5.925  -3.264  0.00  0.00    -0.493 OA
ATOM     36  C   UNL     1      -6.778  -7.018  -3.558  0.00  0.00    +0.277 C 
ENDBRANCH  34  35
ENDBRANCH  27  29
ENDBRANCH  24  25
ENDBRANCH  20  24
ENDBRANCH   1  20
TORSDOF 8
