REMARK  Name = ZINC22938333
REMARK  9 active torsions:
REMARK  status: ('A' for Active; 'I' for Inactive)
REMARK    1  A    between atoms: C_1  and  C_2
REMARK    2  A    between atoms: C_5  and  C_8
REMARK    3  A    between atoms: N_10  and  C_11
REMARK    4  A    between atoms: C_19  and  C_20
REMARK    5  A    between atoms: C_20  and  C_22
REMARK    6  A    between atoms: C_20  and  N_30
REMARK    7  A    between atoms: C_25  and  S_28
REMARK    8  A    between atoms: S_28  and  C_29
REMARK    9  A    between atoms: N_33  and  C_36
REMARK                            x       y       z     vdW  Elec       q    Type
REMARK                         _______ _______ _______ _____ _____    ______ ____
ROOT
ATOM      1  C   UNL     1       0.003  -6.333   1.190  0.00  0.00    +0.085 A 
ATOM      2  C   UNL     1      -0.297  -7.242   0.073  0.00  0.00    +0.042 A 
ATOM      3  C   UNL     1      -0.585  -7.061  -1.278  0.00  0.00    +0.013 A 
ATOM      4  C   UNL     1      -0.824  -8.149  -2.072  0.00  0.00    +0.001 A 
ATOM      5  C   UNL     1      -0.782  -9.429  -1.540  0.00  0.00    +0.004 A 
ATOM      6  C   UNL     1      -0.500  -9.627  -0.205  0.00  0.00    +0.047 A 
ATOM      7  C   UNL     1      -0.253  -8.535   0.618  0.00  0.00    +0.137 A 
ATOM      8  O   UNL     1       0.044  -8.411   1.927  0.00  0.00    -0.456 OA
ATOM      9  C   UNL     1       0.200  -7.117   2.265  0.00  0.00    +0.149 A 
ENDROOT
BRANCH   1  12
ATOM     10  C   UNL     1      -1.046  -4.194   1.270  0.00  0.00    +0.248 C 
ATOM     11  O   UNL     1      -2.130  -4.742   1.337  0.00  0.00    -0.270 OA
ATOM     12  N   UNL     1       0.075  -4.931   1.142  0.00  0.00    -0.278 N 
ATOM     13  H   UNL     1       0.931  -4.493   1.017  0.00  0.00    +0.155 HD
BRANCH  10  18
ATOM     14  C   UNL     1      -0.706   1.545   1.506  0.00  0.00    +0.044 C 
ATOM     15  C   UNL     1      -0.795   0.042   1.444  0.00  0.00    -0.050 A 
ATOM     16  C   UNL     1      -2.029  -0.578   1.519  0.00  0.00    +0.004 A 
ATOM     17  C   UNL     1      -2.118  -1.954   1.463  0.00  0.00    +0.013 A 
ATOM     18  C   UNL     1      -0.959  -2.720   1.330  0.00  0.00    +0.037 A 
ATOM     19  C   UNL     1       0.283  -2.088   1.255  0.00  0.00    +0.013 A 
ATOM     20  C   UNL     1       0.358  -0.711   1.307  0.00  0.00    +0.004 A 
ENDBRANCH  10  18
ENDBRANCH   1  12
BRANCH   9  21
ATOM     21  C   UNL     1       0.543  -6.619   3.646  0.00  0.00    +0.155 C 
BRANCH  21  22
ATOM     22  N   UNL     1      -0.279  -7.324   4.638  0.00  0.00    -0.293 NA
ATOM     23  C   UNL     1      -1.711  -7.165   4.345  0.00  0.00    +0.067 C 
ATOM     24  C   UNL     1      -2.529  -7.960   5.364  0.00  0.00    -0.064 C 
ATOM     25  N   UNL     1      -2.232  -7.473   6.718  0.00  0.00    +0.379 N 
ATOM     26  C   UNL     1      -0.804  -7.661   7.005  0.00  0.00    -0.064 C 
ATOM     27  C   UNL     1       0.028  -6.863   6.000  0.00  0.00    +0.067 C 
ATOM     28  C   UNL     1      -3.032  -8.225   7.694  0.00  0.00    -0.096 C 
ATOM     29  H   UNL     1      -2.461  -6.492   6.780  0.00  0.00    -0.082 HD
ENDBRANCH  21  22
BRANCH  21  30
ATOM     30  C   UNL     1       2.001  -6.879   3.926  0.00  0.00    -0.023 A 
ATOM     31  C   UNL     1       2.415  -8.142   4.309  0.00  0.00    +0.007 A 
ATOM     32  C   UNL     1       3.750  -8.384   4.567  0.00  0.00    +0.015 A 
ATOM     33  C   UNL     1       4.678  -7.357   4.441  0.00  0.00    +0.008 A 
ATOM     34  C   UNL     1       4.258  -6.090   4.055  0.00  0.00    +0.015 A 
ATOM     35  C   UNL     1       2.922  -5.856   3.794  0.00  0.00    +0.007 A 
BRANCH  33  36
ATOM     36  S   UNL     1       6.382  -7.661   4.769  0.00  0.00    -0.129 S 
ATOM     37  C   UNL     1       7.178  -6.057   4.476  0.00  0.00    +0.090 C 
ENDBRANCH  33  36
ENDBRANCH  21  30
ENDBRANCH   9  21
TORSDOF 6
