REMARK  Name = ZINC63573198
REMARK  4 active torsions:
REMARK  status: ('A' for Active; 'I' for Inactive)
REMARK    1  A    between atoms: C_1  and  O_2
REMARK    2  A    between atoms: O_2  and  C_3
REMARK    3  A    between atoms: C_10  and  C_28
REMARK    4  A    between atoms: N_20  and  C_21
REMARK                            x       y       z     vdW  Elec       q    Type
REMARK                         _______ _______ _______ _____ _____    ______ ____
ROOT
ATOM      1  C   UNL     1       0.271  -0.622  -1.480  0.00  0.00    +0.121 A 
ATOM      2  C   UNL     1       1.258   0.200  -2.051  0.00  0.00    +0.047 A 
ATOM      3  C   UNL     1       2.306  -0.297  -2.741  0.00  0.00    +0.029 A 
ATOM      4  C   UNL     1       2.443  -1.745  -2.916  0.00  0.00    +0.043 A 
ATOM      5  N   UNL     1       3.358  -2.472  -3.514  0.00  0.00    -0.375 N 
ATOM      6  C   UNL     1       2.954  -3.874  -3.447  0.00  0.00    +0.131 C 
ATOM      7  C   UNL     1       4.018  -4.744  -2.768  0.00  0.00    +0.134 C 
ATOM      8  N   UNL     1       3.384  -6.014  -2.382  0.00  0.00    -0.276 N 
ATOM      9  C   UNL     1       2.242  -6.030  -1.461  0.00  0.00    +0.114 C 
ATOM     10  C   UNL     1       1.103  -5.176  -2.048  0.00  0.00    +0.052 C 
ATOM     11  C   UNL     1       1.714  -3.895  -2.567  0.00  0.00    -0.035 C 
ATOM     12  C   UNL     1       1.407  -2.616  -2.308  0.00  0.00    +0.003 A 
ATOM     13  C   UNL     1       0.310  -1.972  -1.576  0.00  0.00    +0.055 A 
ATOM     14  C   UNL     1       3.856  -7.175  -2.879  0.00  0.00    +0.307 C 
ATOM     15  O   UNL     1       4.849  -7.176  -3.581  0.00  0.00    -0.252 OA
ATOM     16  N   UNL     1       3.228  -8.334  -2.598  0.00  0.00    -0.268 N 
ATOM     17  H   UNL     1       2.396  -8.326  -2.099  0.00  0.00    +0.156 HD
ATOM     18  H   UNL     1       4.166  -2.135  -3.932  0.00  0.00    +0.160 HD
ENDROOT
BRANCH  16  19
ATOM     19  C   UNL     1       3.776  -9.549  -3.026  0.00  0.00    +0.049 A 
ATOM     20  C   UNL     1       4.549  -9.595  -4.179  0.00  0.00    +0.024 A 
ATOM     21  C   UNL     1       5.089 -10.796  -4.599  0.00  0.00    +0.002 A 
ATOM     22  C   UNL     1       4.860 -11.950  -3.873  0.00  0.00    +0.001 A 
ATOM     23  C   UNL     1       4.091 -11.908  -2.724  0.00  0.00    +0.017 A 
ATOM     24  C   UNL     1       3.553 -10.709  -2.296  0.00  0.00    +0.039 A 
ATOM     25 BR   UNL     1       2.507 -10.650  -0.722  0.00  0.00    -0.048 Br
ENDBRANCH  16  19
BRANCH   7  26
ATOM     26  C   UNL     1       4.545  -4.043  -1.543  0.00  0.00    -0.025 A 
ATOM     27  C   UNL     1       5.894  -3.758  -1.437  0.00  0.00    +0.008 A 
ATOM     28  C   UNL     1       6.378  -3.114  -0.314  0.00  0.00    +0.038 A 
ATOM     29  C   UNL     1       5.512  -2.755   0.705  0.00  0.00    +0.123 A 
ATOM     30  C   UNL     1       4.161  -3.041   0.597  0.00  0.00    +0.038 A 
ATOM     31  C   UNL     1       3.679  -3.680  -0.529  0.00  0.00    +0.008 A 
ATOM     32  F   UNL     1       5.984  -2.126   1.803  0.00  0.00    -0.205 F 
ENDBRANCH   7  26
BRANCH   1  34
ATOM     33  C   UNL     1      -0.757   1.385  -0.725  0.00  0.00    +0.277 C 
ATOM     34  O   UNL     1      -0.755  -0.042  -0.802  0.00  0.00    -0.495 OA
ENDBRANCH   1  34
TORSDOF 3
