REMARK  Name = ZINC40561838
REMARK  12 active torsions:
REMARK  status: ('A' for Active; 'I' for Inactive)
REMARK    1  A    between atoms: C_1  and  C_2
REMARK    2  A    between atoms: C_2  and  C_3
REMARK    3  A    between atoms: N_16  and  C_34
REMARK    4  A    between atoms: C_17  and  C_19
REMARK    5  A    between atoms: C_23  and  O_25
REMARK    6  A    between atoms: O_25  and  C_26
REMARK    7  A    between atoms: C_26  and  C_27
REMARK    8  A    between atoms: C_34  and  C_35
REMARK    9  A    between atoms: C_35  and  C_36
REMARK   10  A    between atoms: C_36  and  N_37
REMARK   11  A    between atoms: N_37  and  C_38
REMARK   12  A    between atoms: N_37  and  C_39
REMARK                            x       y       z     vdW  Elec       q    Type
REMARK                         _______ _______ _______ _____ _____    ______ ____
ROOT
ATOM      1  C   UNL     1      -1.412  -0.526   0.013  0.00  0.00    -0.047 A 
ATOM      2  C   UNL     1      -2.051  -0.766   1.221  0.00  0.00    +0.007 A 
ATOM      3  C   UNL     1      -3.341  -1.246   1.253  0.00  0.00    +0.047 A 
ATOM      4  C   UNL     1      -4.024  -1.495   0.062  0.00  0.00    +0.139 A 
ATOM      5  C   UNL     1      -3.369  -1.242  -1.154  0.00  0.00    +0.065 A 
ATOM      6  C   UNL     1      -2.062  -0.755  -1.168  0.00  0.00    +0.019 A 
ATOM      7  C   UNL     1      -4.093  -1.489  -2.426  0.00  0.00    +0.199 A 
ATOM      8  O   UNL     1      -3.553  -1.459  -3.518  0.00  0.00    -0.287 OA
ATOM      9  C   UNL     1      -5.521  -1.774  -2.244  0.00  0.00    +0.072 A 
ATOM     10  C   UNL     1      -6.041  -1.994  -1.000  0.00  0.00    +0.199 A 
ATOM     11  O   UNL     1      -5.288  -1.972   0.117  0.00  0.00    -0.450 OA
ATOM     12  C   UNL     1      -7.487  -2.241  -1.141  0.00  0.00    +0.283 C 
ATOM     13  O   UNL     1      -8.247  -2.468  -0.221  0.00  0.00    -0.267 OA
ATOM     14  N   UNL     1      -7.843  -2.178  -2.441  0.00  0.00    -0.284 N 
ATOM     15  C   UNL     1      -6.636  -1.882  -3.230  0.00  0.00    +0.145 C 
ENDROOT
BRANCH  15  16
ATOM     16  C   UNL     1      -6.805  -0.580  -3.970  0.00  0.00    -0.019 A 
ATOM     17  C   UNL     1      -7.457   0.479  -3.364  0.00  0.00    +0.006 A 
ATOM     18  C   UNL     1      -7.613   1.675  -4.040  0.00  0.00    +0.004 A 
ATOM     19  C   UNL     1      -7.119   1.815  -5.322  0.00  0.00    +0.045 A 
ATOM     20  C   UNL     1      -6.465   0.754  -5.932  0.00  0.00    +0.121 A 
ATOM     21  C   UNL     1      -6.304  -0.443  -5.250  0.00  0.00    +0.051 A 
BRANCH  20  22
ATOM     22  O   UNL     1      -5.978   0.889  -7.194  0.00  0.00    -0.487 OA
BRANCH  22  23
ATOM     23  C   UNL     1      -6.175   2.152  -7.833  0.00  0.00    +0.264 C 
BRANCH  23  24
ATOM     24  C   UNL     1      -5.573   2.115  -9.214  0.00  0.00    -0.010 A 
ATOM     25  C   UNL     1      -4.253   2.480  -9.403  0.00  0.00    +0.008 A 
ATOM     26  C   UNL     1      -3.700   2.446 -10.669  0.00  0.00    +0.020 A 
ATOM     27  C   UNL     1      -4.468   2.046 -11.748  0.00  0.00    +0.041 A 
ATOM     28  C   UNL     1      -5.789   1.681 -11.559  0.00  0.00    +0.020 A 
ATOM     29  C   UNL     1      -6.339   1.710 -10.291  0.00  0.00    +0.008 A 
ATOM     30 CL   UNL     1      -3.775   2.004 -13.339  0.00  0.00    -0.084 Cl
ENDBRANCH  23  24
ENDBRANCH  22  23
ENDBRANCH  20  22
ENDBRANCH  15  16
BRANCH   1  32
ATOM     31  C   UNL     1      -0.019   1.526   0.010  0.00  0.00    +0.009 C 
ATOM     32  C   UNL     1       0.002  -0.004   0.002  0.00  0.00    +0.032 C 
ENDBRANCH   1  32
BRANCH  14  33
ATOM     33  C   UNL     1      -9.194  -2.371  -2.973  0.00  0.00    +0.107 C 
BRANCH  33  34
ATOM     34  C   UNL     1      -9.921  -1.025  -3.020  0.00  0.00    +0.000 C 
BRANCH  34  35
ATOM     35  C   UNL     1     -11.332  -1.226  -3.576  0.00  0.00    -0.078 C 
BRANCH  35  36
ATOM     36  N   UNL     1     -12.029   0.066  -3.622  0.00  0.00    +0.376 N 
ATOM     37  C   UNL     1     -11.356   0.952  -4.581  0.00  0.00    -0.097 C 
ATOM     38  C   UNL     1     -13.421  -0.143  -4.042  0.00  0.00    -0.097 C 
ATOM     39  H   UNL     1     -12.014   0.489  -2.706  0.00  0.00    -0.083 HD
ENDBRANCH  35  36
ENDBRANCH  34  35
ENDBRANCH  33  34
ENDBRANCH  14  33
TORSDOF 9
