REMARK  Name = ZINC39675408
REMARK  11 active torsions:
REMARK  status: ('A' for Active; 'I' for Inactive)
REMARK    1  A    between atoms: C_1  and  C_2
REMARK    2  A    between atoms: C_2  and  C_4
REMARK    3  A    between atoms: C_2  and  N_14
REMARK    4  A    between atoms: C_4  and  C_5
REMARK    5  A    between atoms: C_5  and  C_6
REMARK    6  A    between atoms: C_9  and  O_12
REMARK    7  A    between atoms: O_12  and  C_13
REMARK    8  A    between atoms: C_15  and  C_17
REMARK    9  A    between atoms: C_28  and  C_30
REMARK   10  A    between atoms: C_34  and  O_35
REMARK   11  A    between atoms: O_35  and  C_36
REMARK                            x       y       z     vdW  Elec       q    Type
REMARK                         _______ _______ _______ _____ _____    ______ ____
ROOT
ATOM      1  C   UNL     1       2.733  -1.080  -2.472  0.00  0.00    +0.100 C 
ATOM      2  C   UNL     1       2.404  -0.163  -3.670  0.00  0.00    +0.121 C 
ATOM      3  N   UNL     1       3.518   0.814  -3.711  0.00  0.00    -0.296 N 
ATOM      4  C   UNL     1       4.723   0.012  -3.390  0.00  0.00    +0.115 C 
ATOM      5  C   UNL     1       4.256  -0.966  -2.293  0.00  0.00    -0.004 C 
ATOM      6  C   UNL     1       4.915  -2.329  -2.485  0.00  0.00    -0.010 C 
ATOM      7  C   UNL     1       6.422  -2.201  -2.245  0.00  0.00    -0.082 C 
ATOM      8  N   UNL     1       6.662  -1.706  -0.884  0.00  0.00    +0.379 N 
ATOM      9  C   UNL     1       6.106  -0.356  -0.736  0.00  0.00    -0.082 C 
ATOM     10  C   UNL     1       4.586  -0.406  -0.913  0.00  0.00    -0.010 C 
ATOM     11  C   UNL     1       3.451   2.133  -3.980  0.00  0.00    +0.251 C 
ATOM     12  O   UNL     1       2.370   2.669  -4.131  0.00  0.00    -0.270 OA
ATOM     13  H   UNL     1       6.221  -2.325  -0.220  0.00  0.00    -0.086 HD
ATOM     14  H   UNL     1       7.655  -1.681  -0.707  0.00  0.00    -0.086 HD
ENDROOT
BRANCH  11  15
ATOM     15  C   UNL     1       4.686   2.924  -4.091  0.00  0.00    +0.087 A 
ATOM     16  C   UNL     1       5.840   2.390  -4.621  0.00  0.00    +0.063 A 
ATOM     17  S   UNL     1       6.952   3.644  -4.540  0.00  0.00    -0.081 S 
ATOM     18  C   UNL     1       5.940   4.912  -3.809  0.00  0.00    +0.120 A 
ATOM     19  C   UNL     1       4.744   4.301  -3.656  0.00  0.00    +0.158 A 
ATOM     20 CL   UNL     1       6.380   6.541  -3.399  0.00  0.00    -0.072 Cl
BRANCH  19  21
ATOM     21  O   UNL     1       3.666   4.939  -3.123  0.00  0.00    -0.492 OA
ATOM     22  C   UNL     1       3.502   4.861  -1.706  0.00  0.00    +0.277 C 
ENDBRANCH  19  21
ENDBRANCH  11  15
BRANCH   1  24
ATOM     23  N   UNL     1       1.646  -1.484  -0.287  0.00  0.00    -0.312 N 
ATOM     24  C   UNL     1       2.022  -0.600  -1.233  0.00  0.00    +0.218 C 
ATOM     25  O   UNL     1       1.788   0.581  -1.087  0.00  0.00    -0.275 OA
ATOM     26  H   UNL     1       1.833  -2.428  -0.403  0.00  0.00    +0.149 HD
BRANCH  23  28
ATOM     27  C   UNL     1      -0.545  -0.905   0.634  0.00  0.00    +0.028 C 
ATOM     28  C   UNL     1       0.955  -1.017   0.918  0.00  0.00    +0.070 C 
BRANCH  28  29
ATOM     29  C   UNL     1       1.185  -2.013   2.056  0.00  0.00    +0.026 C 
BRANCH  29  30
ATOM     30  C   UNL     1       2.671  -2.032   2.424  0.00  0.00    +0.037 C 
BRANCH  30  31
ATOM     31  C   UNL     1       2.898  -3.013   3.545  0.00  0.00    -0.047 A 
ATOM     32  C   UNL     1       2.809  -2.591   4.859  0.00  0.00    +0.007 A 
ATOM     33  C   UNL     1       3.018  -3.488   5.889  0.00  0.00    +0.046 A 
ATOM     34  C   UNL     1       3.316  -4.813   5.604  0.00  0.00    +0.120 A 
ATOM     35  C   UNL     1       3.403  -5.233   4.285  0.00  0.00    +0.046 A 
ATOM     36  C   UNL     1       3.189  -4.333   3.259  0.00  0.00    +0.007 A 
BRANCH  34  37
ATOM     37  O   UNL     1       3.521  -5.697   6.615  0.00  0.00    -0.495 OA
ATOM     38  C   UNL     1       3.824  -7.044   6.247  0.00  0.00    +0.277 C 
ENDBRANCH  34  37
ENDBRANCH  30  31
ENDBRANCH  29  30
ENDBRANCH  28  29
ENDBRANCH  23  28
ENDBRANCH   1  24
TORSDOF 8
