REMARK  Name = ZINC09232448
REMARK  12 active torsions:
REMARK  status: ('A' for Active; 'I' for Inactive)
REMARK    1  A    between atoms: C_1  and  C_2
REMARK    2  A    between atoms: C_2  and  C_3
REMARK    3  A    between atoms: C_11  and  O_38
REMARK    4  A    between atoms: C_12  and  O_36
REMARK    5  A    between atoms: C_18  and  C_20
REMARK    6  A    between atoms: C_20  and  C_21
REMARK    7  A    between atoms: C_25  and  O_34
REMARK    8  A    between atoms: C_26  and  O_32
REMARK    9  A    between atoms: O_32  and  C_33
REMARK   10  A    between atoms: O_34  and  C_35
REMARK   11  A    between atoms: O_36  and  C_37
REMARK   12  A    between atoms: O_38  and  C_39
REMARK                            x       y       z     vdW  Elec       q    Type
REMARK                         _______ _______ _______ _____ _____    ______ ____
ROOT
ATOM      1  C   UNL     1       0.816  -0.582  -1.398  0.00  0.00    -0.025 C 
ATOM      2  C   UNL     1       2.268  -0.183  -1.127  0.00  0.00    -0.074 C 
ATOM      3  N   UNL     1       2.593  -0.455   0.279  0.00  0.00    +0.385 N 
ATOM      4  C   UNL     1       3.957   0.002   0.577  0.00  0.00    -0.073 C 
ATOM      5  C   UNL     1       4.152  -0.000   2.094  0.00  0.00    +0.017 C 
ATOM      6  C   UNL     1       3.731  -1.331   2.663  0.00  0.00    -0.044 A 
ATOM      7  C   UNL     1       4.141  -1.663   3.946  0.00  0.00    +0.053 A 
ATOM      8  C   UNL     1       3.774  -2.873   4.506  0.00  0.00    +0.162 A 
ATOM      9  C   UNL     1       2.987  -3.760   3.777  0.00  0.00    +0.162 A 
ATOM     10  C   UNL     1       2.581  -3.425   2.498  0.00  0.00    +0.051 A 
ATOM     11  C   UNL     1       2.954  -2.211   1.938  0.00  0.00    -0.054 A 
ATOM     12  C   UNL     1       2.499  -1.893   0.540  0.00  0.00    -0.037 C 
ATOM     13  C   UNL     1       1.054  -2.357   0.342  0.00  0.00    -0.007 C 
ATOM     14  C   UNL     1       0.633  -2.073  -1.103  0.00  0.00    -0.012 C 
ATOM     15  H   UNL     1       1.943   0.036   0.874  0.00  0.00    -0.081 HD
ENDROOT
BRANCH   1  17
ATOM     16  C   UNL     1      -0.023   1.714  -0.878  0.00  0.00    +0.004 C 
ATOM     17  C   UNL     1      -0.114   0.234  -0.498  0.00  0.00    -0.002 C 
ENDBRANCH   1  17
BRANCH   9  18
ATOM     18  O   UNL     1       2.619  -4.952   4.320  0.00  0.00    -0.491 OA
ATOM     19  C   UNL     1       1.812  -5.811   3.512  0.00  0.00    +0.277 C 
ENDBRANCH   9  18
BRANCH   8  20
ATOM     20  O   UNL     1       4.180  -3.195   5.764  0.00  0.00    -0.491 OA
ATOM     21  C   UNL     1       4.985  -2.235   6.451  0.00  0.00    +0.277 C 
ENDBRANCH   8  20
BRANCH  14  22
ATOM     22  C   UNL     1      -0.837  -2.454  -1.291  0.00  0.00    -0.008 C 
BRANCH  22  23
ATOM     23  C   UNL     1      -0.939  -3.947  -1.612  0.00  0.00    -0.040 C 
ATOM     24  C   UNL     1      -2.384  -4.308  -1.842  0.00  0.00    -0.055 A 
ATOM     25  C   UNL     1      -3.176  -3.430  -2.568  0.00  0.00    +0.051 A 
ATOM     26  C   UNL     1      -4.507  -3.723  -2.805  0.00  0.00    +0.162 A 
ATOM     27  C   UNL     1      -5.053  -4.905  -2.314  0.00  0.00    +0.162 A 
ATOM     28  C   UNL     1      -4.259  -5.777  -1.590  0.00  0.00    +0.053 A 
ATOM     29  C   UNL     1      -2.925  -5.478  -1.354  0.00  0.00    -0.044 A 
ATOM     30  C   UNL     1      -2.099  -6.452  -0.554  0.00  0.00    +0.016 C 
ATOM     31  C   UNL     1      -0.612  -6.151  -0.747  0.00  0.00    -0.077 C 
ATOM     32  N   UNL     1      -0.387  -4.720  -0.495  0.00  0.00    +0.384 N 
ATOM     33  H   UNL     1       0.603  -4.543  -0.419  0.00  0.00    -0.085 HD
ATOM     34  H   UNL     1      -0.847  -4.451   0.361  0.00  0.00    -0.085 HD
BRANCH  27  35
ATOM     35  O   UNL     1      -6.360  -5.202  -2.544  0.00  0.00    -0.491 OA
ATOM     36  C   UNL     1      -6.849  -6.433  -2.009  0.00  0.00    +0.277 C 
ENDBRANCH  27  35
BRANCH  26  37
ATOM     37  O   UNL     1      -5.279  -2.859  -3.518  0.00  0.00    -0.491 OA
ATOM     38  C   UNL     1      -4.651  -1.666  -3.991  0.00  0.00    +0.277 C 
ENDBRANCH  26  37
ENDBRANCH  22  23
ENDBRANCH  14  22
TORSDOF 7
