REMARK  Name = ZINC56768597
REMARK  9 active torsions:
REMARK  status: ('A' for Active; 'I' for Inactive)
REMARK    1  A    between atoms: C_1  and  C_2
REMARK    2  A    between atoms: C_5  and  S_22
REMARK    3  A    between atoms: C_6  and  N_8
REMARK    4  A    between atoms: N_11  and  C_12
REMARK    5  A    between atoms: C_12  and  C_13
REMARK    6  A    between atoms: C_18  and  N_19
REMARK    7  A    between atoms: N_19  and  C_20
REMARK    8  A    between atoms: N_19  and  C_21
REMARK    9  A    between atoms: S_22  and  C_25
REMARK                            x       y       z     vdW  Elec       q    Type
REMARK                         _______ _______ _______ _____ _____    ______ ____
ROOT
ATOM      1  N   UNL     1       0.375  -2.803   2.369  0.00  0.00    -0.268 N 
ATOM      2  C   UNL     1       0.330  -2.143   3.543  0.00  0.00    +0.304 C 
ATOM      3  O   UNL     1       0.210  -0.933   3.557  0.00  0.00    -0.252 OA
ATOM      4  N   UNL     1       0.419  -2.825   4.703  0.00  0.00    -0.295 N 
ATOM      5  H   UNL     1       0.401  -3.773   2.358  0.00  0.00    +0.156 HD
ATOM      6  H   UNL     1       0.515  -3.790   4.692  0.00  0.00    +0.151 HD
ENDROOT
BRANCH   1  12
ATOM      7  C   UNL     1      -1.090   1.091  -0.251  0.00  0.00    +0.044 C 
ATOM      8  C   UNL     1      -0.320  -0.199  -0.132  0.00  0.00    -0.049 A 
ATOM      9  C   UNL     1       0.396  -0.678  -1.214  0.00  0.00    +0.005 A 
ATOM     10  C   UNL     1       1.103  -1.861  -1.110  0.00  0.00    +0.029 A 
ATOM     11  C   UNL     1       1.099  -2.568   0.077  0.00  0.00    +0.109 A 
ATOM     12  C   UNL     1       0.382  -2.089   1.165  0.00  0.00    +0.060 A 
ATOM     13  C   UNL     1      -0.324  -0.898   1.059  0.00  0.00    +0.028 A 
BRANCH  11  14
ATOM     14  S   UNL     1       2.001  -4.076   0.209  0.00  0.00    -0.004 S 
ATOM     15  O   UNL     1       1.067  -5.012   0.730  0.00  0.00    -0.170 OA
ATOM     16  O   UNL     1       2.579  -4.266  -1.075  0.00  0.00    -0.170 OA
ATOM     17  C   UNL     1       3.296  -3.739   1.434  0.00  0.00    +0.200 C 
ENDBRANCH  11  14
ENDBRANCH   1  12
BRANCH   4  18
ATOM     18  C   UNL     1       0.371  -2.107   5.980  0.00  0.00    +0.144 C 
BRANCH  18  19
ATOM     19  C   UNL     1       0.490  -3.092   7.114  0.00  0.00    +0.008 A 
ATOM     20  C   UNL     1      -0.634  -3.496   7.813  0.00  0.00    +0.010 A 
ATOM     21  C   UNL     1      -0.478  -4.405   8.851  0.00  0.00    +0.018 A 
ATOM     22  C   UNL     1       0.784  -4.877   9.153  0.00  0.00    +0.084 A 
ATOM     23  N   UNL     1       1.839  -4.474   8.469  0.00  0.00    -0.349 N 
ATOM     24  C   UNL     1       1.730  -3.613   7.469  0.00  0.00    +0.103 A 
ATOM     25  H   UNL     1       2.714  -4.821   8.702  0.00  0.00    +0.167 HD
BRANCH  24  26
ATOM     26  N   UNL     1       2.867  -3.221   6.771  0.00  0.00    -0.323 N 
ATOM     27  C   UNL     1       3.576  -1.998   7.154  0.00  0.00    +0.130 C 
ATOM     28  C   UNL     1       3.356  -4.031   5.653  0.00  0.00    +0.130 C 
ENDBRANCH  24  26
ENDBRANCH  18  19
ENDBRANCH   4  18
TORSDOF 5
