REMARK  Name = ZINC36723245
REMARK  5 active torsions:
REMARK  status: ('A' for Active; 'I' for Inactive)
REMARK    1  A    between atoms: C_1  and  C_2
REMARK    2  A    between atoms: C_7  and  C_15
REMARK    3  A    between atoms: C_9  and  N_10
REMARK    4  A    between atoms: N_10  and  C_11
REMARK    5  A    between atoms: C_11  and  C_12
REMARK                            x       y       z     vdW  Elec       q    Type
REMARK                         _______ _______ _______ _____ _____    ______ ____
ROOT
ATOM      1  C   UNL     1       0.143   1.095  -0.360  0.00  0.00    +0.006 C 
ATOM      2  C   UNL     1       0.238  -0.412  -0.112  0.00  0.00    -0.028 C 
ATOM      3  C   UNL     1       1.119  -1.051  -1.187  0.00  0.00    +0.002 C 
ATOM      4  C   UNL     1       2.519  -0.436  -1.131  0.00  0.00    +0.000 C 
ATOM      5  C   UNL     1       3.132  -0.688   0.248  0.00  0.00    +0.002 C 
ATOM      6  C   UNL     1       2.251  -0.049   1.323  0.00  0.00    -0.028 C 
ATOM      7  C   UNL     1       0.851  -0.664   1.267  0.00  0.00    -0.065 C 
ATOM      8  C   UNL     1       2.864  -0.301   2.701  0.00  0.00    +0.006 C 
ENDROOT
BRANCH   7   9
ATOM      9  N   UNL     1       0.005  -0.051   2.299  0.00  0.00    +0.388 N 
ATOM     10  H   UNL     1       0.455  -0.137   3.198  0.00  0.00    -0.085 HD
ATOM     11  H   UNL     1      -0.133   0.925   2.084  0.00  0.00    -0.085 HD
BRANCH   9  12
ATOM     12  C   UNL     1      -1.295  -0.733   2.335  0.00  0.00    +0.045 C 
BRANCH  12  13
ATOM     13  C   UNL     1      -2.118  -0.186   3.473  0.00  0.00    +0.340 C 
ATOM     14  O   UNL     1      -1.663   0.691   4.187  0.00  0.00    -0.249 OA
ATOM     15  O   UNL     1      -3.239  -0.620   3.679  0.00  0.00    -0.249 OA
ENDBRANCH  12  13
ENDBRANCH   9  12
ENDBRANCH   7   9
TORSDOF 3
