REMARK  Name = ZINC19990926
REMARK  9 active torsions:
REMARK  status: ('A' for Active; 'I' for Inactive)
REMARK    1  A    between atoms: C_1  and  O_2
REMARK    2  A    between atoms: O_2  and  C_3
REMARK    3  A    between atoms: C_6  and  C_11
REMARK    4  A    between atoms: C_8  and  O_9
REMARK    5  A    between atoms: O_9  and  C_10
REMARK    6  A    between atoms: N_28  and  C_31
REMARK    7  A    between atoms: C_31  and  C_32
REMARK    8  A    between atoms: C_32  and  C_33
REMARK    9  A    between atoms: C_33  and  N_34
REMARK                            x       y       z     vdW  Elec       q    Type
REMARK                         _______ _______ _______ _____ _____    ______ ____
ROOT
ATOM      1  C   UNL     1       3.738  -0.569  -0.031  0.00  0.00    +0.092 C 
ATOM      2  C   UNL     1       4.813   0.397  -0.451  0.00  0.00    +0.015 A 
ATOM      3  C   UNL     1       6.059  -0.098  -0.876  0.00  0.00    -0.010 A 
ATOM      4  C   UNL     1       6.316  -1.479  -0.917  0.00  0.00    +0.009 A 
ATOM      5  C   UNL     1       7.534  -1.925  -1.329  0.00  0.00    +0.001 A 
ATOM      6  C   UNL     1       8.534  -1.032  -1.712  0.00  0.00    +0.001 A 
ATOM      7  C   UNL     1       8.320   0.311  -1.687  0.00  0.00    +0.008 A 
ATOM      8  C   UNL     1       7.074   0.809  -1.269  0.00  0.00    -0.017 A 
ATOM      9  C   UNL     1       6.814   2.190  -1.234  0.00  0.00    +0.012 A 
ATOM     10  C   UNL     1       5.600   2.636  -0.819  0.00  0.00    +0.047 A 
ATOM     11  C   UNL     1       4.593   1.743  -0.424  0.00  0.00    +0.135 A 
ATOM     12  O   UNL     1       3.402   2.244  -0.014  0.00  0.00    -0.437 OA
ATOM     13  C   UNL     1       2.298   1.468  -0.010  0.00  0.00    +0.229 A 
ATOM     14  C   UNL     1       2.398   0.110  -0.017  0.00  0.00    +0.066 A 
ATOM     15  C   UNL     1       1.215  -0.665  -0.013  0.00  0.00    +0.115 A 
ATOM     16  N   UNL     1       1.269  -1.980  -0.022  0.00  0.00    -0.384 N 
ATOM     17  N   UNL     1       0.002  -0.004   0.002  0.00  0.00    -0.318 N 
ATOM     18  C   UNL     1      -0.016   1.353   0.009  0.00  0.00    +0.204 A 
ATOM     19  N   UNL     1       1.083   2.049   0.003  0.00  0.00    -0.202 NA
ATOM     20  H   UNL     1       0.339  -2.569  -0.019  0.00  0.00    +0.157 HD
ATOM     21  H   UNL     1       2.243  -2.491  -0.034  0.00  0.00    +0.157 HD
ENDROOT
BRANCH   1  25
ATOM     22  C   UNL     1       4.615  -2.037   3.889  0.00  0.00    +0.162 A 
ATOM     23  C   UNL     1       4.408  -0.683   3.684  0.00  0.00    +0.050 A 
ATOM     24  C   UNL     1       4.130  -0.210   2.414  0.00  0.00    +0.008 A 
ATOM     25  C   UNL     1       4.047  -1.088   1.350  0.00  0.00    -0.032 A 
ATOM     26  C   UNL     1       4.254  -2.441   1.547  0.00  0.00    +0.054 A 
ATOM     27  C   UNL     1       4.538  -2.920   2.816  0.00  0.00    +0.162 A 
BRANCH  22  29
ATOM     28  C   UNL     1       4.958  -1.539   6.189  0.00  0.00    +0.277 C 
ATOM     29  O   UNL     1       4.895  -2.502   5.136  0.00  0.00    -0.491 OA
ENDBRANCH  22  29
BRANCH  27  30
ATOM     30  O   UNL     1       4.742  -4.250   3.012  0.00  0.00    -0.491 OA
ATOM     31  C   UNL     1       4.647  -5.097   1.865  0.00  0.00    +0.277 C 
ENDBRANCH  27  30
ENDBRANCH   1  25
BRANCH  17  32
ATOM     32  C   UNL     1      -1.252  -0.761   0.009  0.00  0.00    +0.126 C 
BRANCH  32  33
ATOM     33  C   UNL     1      -1.611  -1.140   1.448  0.00  0.00    +0.037 C 
BRANCH  33  34
ATOM     34  C   UNL     1      -2.921  -1.930   1.455  0.00  0.00    +0.086 C 
BRANCH  34  35
ATOM     35  N   UNL     1      -3.265  -2.294   2.836  0.00  0.00    -0.298 NA
ATOM     36  C   UNL     1      -2.289  -3.243   3.390  0.00  0.00    +0.112 C 
ATOM     37  C   UNL     1      -2.651  -3.548   4.846  0.00  0.00    +0.175 C 
ATOM     38  O   UNL     1      -3.988  -4.052   4.904  0.00  0.00    -0.377 OA
ATOM     39  C   UNL     1      -4.966  -3.153   4.373  0.00  0.00    +0.175 C 
ATOM     40  C   UNL     1      -4.627  -2.844   2.912  0.00  0.00    +0.112 C 
ENDBRANCH  34  35
ENDBRANCH  33  34
ENDBRANCH  32  33
ENDBRANCH  17  32
TORSDOF 7
