REMARK  Name = ZINC58862511
REMARK  11 active torsions:
REMARK  status: ('A' for Active; 'I' for Inactive)
REMARK    1  A    between atoms: C_1  and  C_2
REMARK    2  A    between atoms: C_2  and  O_3
REMARK    3  A    between atoms: O_3  and  C_4
REMARK    4  A    between atoms: C_7  and  S_26
REMARK    5  A    between atoms: C_9  and  N_10
REMARK    6  A    between atoms: N_13  and  C_14
REMARK    7  A    between atoms: C_14  and  C_15
REMARK    8  A    between atoms: C_15  and  C_17
REMARK    9  A    between atoms: C_15  and  N_18
REMARK   10  A    between atoms: C_22  and  C_25
REMARK   11  A    between atoms: S_26  and  N_29
REMARK                            x       y       z     vdW  Elec       q    Type
REMARK                         _______ _______ _______ _____ _____    ______ ____
ROOT
ATOM      1  C   UNL     1       0.775  -2.091  -1.428  0.00  0.00    +0.142 A 
ATOM      2  C   UNL     1       0.300  -2.965  -0.464  0.00  0.00    +0.049 A 
ATOM      3  C   UNL     1       0.587  -4.314  -0.553  0.00  0.00    +0.032 A 
ATOM      4  C   UNL     1       1.347  -4.796  -1.603  0.00  0.00    +0.107 A 
ATOM      5  C   UNL     1       1.824  -3.931  -2.569  0.00  0.00    +0.055 A 
ATOM      6  C   UNL     1       1.536  -2.576  -2.489  0.00  0.00    +0.079 A 
ENDROOT
BRANCH   6   7
ATOM      7  N   UNL     1       2.014  -1.697  -3.471  0.00  0.00    -0.266 N 
ATOM      8  C   UNL     1       3.198  -1.935  -4.069  0.00  0.00    +0.304 C 
ATOM      9  O   UNL     1       3.809  -2.957  -3.823  0.00  0.00    -0.253 OA
ATOM     10  N   UNL     1       3.705  -1.041  -4.941  0.00  0.00    -0.301 N 
ATOM     11  H   UNL     1       1.493  -0.918  -3.719  0.00  0.00    +0.156 HD
ATOM     12  H   UNL     1       3.217  -0.225  -5.137  0.00  0.00    +0.150 HD
BRANCH  10  13
ATOM     13  C   UNL     1       4.991  -1.300  -5.591  0.00  0.00    +0.090 C 
BRANCH  13  14
ATOM     14  C   UNL     1       5.399  -0.079  -6.419  0.00  0.00    -0.054 C 
ATOM     15  C   UNL     1       6.789  -0.309  -7.016  0.00  0.00    -0.012 C 
BRANCH  14  16
ATOM     16  N   UNL     1       5.427   1.110  -5.557  0.00  0.00    +0.383 N 
ATOM     17  C   UNL     1       5.663   2.303  -6.379  0.00  0.00    -0.078 C 
ATOM     18  C   UNL     1       5.613   3.553  -5.497  0.00  0.00    -0.018 C 
ATOM     19  C   UNL     1       6.694   3.453  -4.417  0.00  0.00    -0.001 C 
ATOM     20  C   UNL     1       6.482   2.166  -3.614  0.00  0.00    -0.031 C 
ATOM     21  C   UNL     1       6.500   0.968  -4.565  0.00  0.00    -0.075 C 
ATOM     22  C   UNL     1       7.602   2.018  -2.582  0.00  0.00    +0.005 C 
ATOM     23  H   UNL     1       4.542   1.201  -5.082  0.00  0.00    -0.081 HD
ENDBRANCH  14  16
ENDBRANCH  13  14
ENDBRANCH  10  13
ENDBRANCH   6   7
BRANCH   4  24
ATOM     24  S   UNL     1       1.708  -6.517  -1.709  0.00  0.00    +0.061 S 
ATOM     25  O   UNL     1       2.892  -6.636  -2.485  0.00  0.00    -0.153 OA
ATOM     26  O   UNL     1       1.607  -7.036  -0.389  0.00  0.00    -0.153 OA
BRANCH  24  27
ATOM     27  N   UNL     1       0.493  -7.220  -2.588  0.00  0.00    -0.177 NA
ATOM     28  C   UNL     1      -0.712  -7.734  -1.922  0.00  0.00    +0.109 C 
ATOM     29  C   UNL     1      -1.945  -7.111  -2.583  0.00  0.00    +0.017 C 
ATOM     30  C   UNL     1      -1.899  -7.374  -4.090  0.00  0.00    +0.003 C 
ATOM     31  C   UNL     1      -0.649  -6.721  -4.686  0.00  0.00    +0.017 C 
ATOM     32  C   UNL     1       0.596  -7.334  -4.049  0.00  0.00    +0.109 C 
ENDBRANCH  24  27
ENDBRANCH   4  24
BRANCH   1  33
ATOM     33  O   UNL     1       0.495  -0.763  -1.342  0.00  0.00    -0.490 OA
BRANCH  33  35
ATOM     34  C   UNL     1      -0.500   1.177  -0.299  0.00  0.00    +0.048 C 
ATOM     35  C   UNL     1      -0.290  -0.337  -0.226  0.00  0.00    +0.226 C 
ENDBRANCH  33  35
ENDBRANCH   1  33
TORSDOF 8
