REMARK  Name = ZINC29173128
REMARK  9 active torsions:
REMARK  status: ('A' for Active; 'I' for Inactive)
REMARK    1  A    between atoms: C_1  and  C_2
REMARK    2  A    between atoms: C_2  and  C_4
REMARK    3  A    between atoms: C_2  and  N_14
REMARK    4  A    between atoms: C_7  and  S_10
REMARK    5  A    between atoms: S_10  and  N_13
REMARK    6  A    between atoms: N_14  and  C_15
REMARK    7  A    between atoms: N_14  and  C_16
REMARK    8  A    between atoms: C_16  and  C_17
REMARK    9  A    between atoms: C_21  and  C_23
REMARK                            x       y       z     vdW  Elec       q    Type
REMARK                         _______ _______ _______ _____ _____    ______ ____
ROOT
ATOM      1  N   UNL     1      -3.523   4.482   4.784  0.00  0.00    +0.385 N 
ATOM      2  C   UNL     1      -4.284   4.711   3.549  0.00  0.00    -0.095 C 
ATOM      3  H   UNL     1      -2.604   5.085   4.731  0.00  0.00    -0.081 HD
ENDROOT
BRANCH   1   5
ATOM      4  C   UNL     1      -2.258   2.891   6.150  0.00  0.00    -0.008 C 
ATOM      5  C   UNL     1      -3.131   3.072   4.906  0.00  0.00    -0.041 C 
BRANCH   5   6
ATOM      6  C   UNL     1      -2.353   2.659   3.683  0.00  0.00    -0.061 A 
ATOM      7  C   UNL     1      -2.559   1.412   3.122  0.00  0.00    +0.004 A 
ATOM      8  C   UNL     1      -1.846   1.033   2.000  0.00  0.00    +0.029 A 
ATOM      9  C   UNL     1      -0.927   1.900   1.439  0.00  0.00    +0.105 A 
ATOM     10  C   UNL     1      -0.717   3.145   2.004  0.00  0.00    +0.029 A 
ATOM     11  C   UNL     1      -1.434   3.526   3.123  0.00  0.00    +0.004 A 
BRANCH   9  12
ATOM     12  S   UNL     1      -0.017   1.417   0.010  0.00  0.00    +0.056 S 
ATOM     13  O   UNL     1       0.002  -0.004   0.002  0.00  0.00    -0.153 OA
ATOM     14  O   UNL     1       1.172   2.195   0.003  0.00  0.00    -0.153 OA
BRANCH  12  15
ATOM     15  N   UNL     1      -0.897   1.885  -1.312  0.00  0.00    -0.204 NA
ATOM     16  H   UNL     1      -0.361   1.601  -2.229  0.00  0.00    +0.144 HD
ATOM     17  H   UNL     1      -1.036   2.977  -1.292  0.00  0.00    +0.144 HD
ENDBRANCH  12  15
ENDBRANCH   9  12
ENDBRANCH   5   6
ENDBRANCH   1   5
BRANCH   1  18
ATOM     18  C   UNL     1      -4.284   4.921   5.961  0.00  0.00    -0.043 C 
BRANCH  18  19
ATOM     19  C   UNL     1      -4.456   6.417   5.919  0.00  0.00    -0.063 A 
ATOM     20  C   UNL     1      -5.558   6.968   5.288  0.00  0.00    +0.002 A 
ATOM     21  C   UNL     1      -5.724   8.341   5.246  0.00  0.00    +0.001 A 
ATOM     22  C   UNL     1      -4.790   9.170   5.832  0.00  0.00    +0.013 A 
ATOM     23  C   UNL     1      -3.676   8.621   6.470  0.00  0.00    +0.037 A 
ATOM     24  C   UNL     1      -3.518   7.235   6.514  0.00  0.00    +0.014 A 
BRANCH  23  25
ATOM     25  C   UNL     1      -2.672   9.504   7.100  0.00  0.00    +0.242 C 
ATOM     26  O   UNL     1      -1.703   9.023   7.654  0.00  0.00    -0.270 OA
ATOM     27  N   UNL     1      -2.831  10.841   7.061  0.00  0.00    -0.325 N 
ATOM     28  H   UNL     1      -2.084  11.498   7.530  0.00  0.00    +0.145 HD
ATOM     29  H   UNL     1      -3.708  11.277   6.559  0.00  0.00    +0.145 HD
ENDBRANCH  23  25
ENDBRANCH  18  19
ENDBRANCH   1  18
TORSDOF 7
