REMARK  Name = ZINC03243769
REMARK  9 active torsions:
REMARK  status: ('A' for Active; 'I' for Inactive)
REMARK    1  A    between atoms: C_4  and  S_7
REMARK    2  A    between atoms: S_7  and  C_10
REMARK    3  A    between atoms: N_21  and  C_24
REMARK    4  A    between atoms: C_22  and  N_23
REMARK    5  A    between atoms: C_24  and  C_25
REMARK    6  A    between atoms: C_25  and  C_26
REMARK    7  A    between atoms: C_26  and  O_27
REMARK    8  A    between atoms: O_27  and  C_28
REMARK    9  A    between atoms: C_28  and  C_30
REMARK                            x       y       z     vdW  Elec       q    Type
REMARK                         _______ _______ _______ _____ _____    ______ ____
ROOT
ATOM      1  C   UNL     1       0.480  -0.195  -4.168  0.00  0.00    +0.160 A 
ATOM      2  C   UNL     1       1.318   0.943  -4.237  0.00  0.00    +0.135 A 
ATOM      3  C   UNL     1       0.939   1.791  -3.099  0.00  0.00    +0.163 A 
ATOM      4  N   UNL     1       1.563   2.930  -2.900  0.00  0.00    -0.226 NA
ATOM      5  C   UNL     1       2.531   3.316  -3.742  0.00  0.00    +0.092 A 
ATOM      6  C   UNL     1       3.199   4.538  -3.539  0.00  0.00    +0.030 A 
ATOM      7  C   UNL     1       4.182   4.922  -4.398  0.00  0.00    +0.002 A 
ATOM      8  C   UNL     1       4.541   4.122  -5.482  0.00  0.00    +0.002 A 
ATOM      9  C   UNL     1       3.917   2.935  -5.711  0.00  0.00    +0.030 A 
ATOM     10  C   UNL     1       2.895   2.503  -4.844  0.00  0.00    +0.090 A 
ATOM     11  N   UNL     1       2.277   1.337  -5.060  0.00  0.00    -0.240 NA
ATOM     12  N   UNL     1      -0.067   1.120  -2.437  0.00  0.00    -0.311 N 
ATOM     13  C   UNL     1      -0.327  -0.058  -3.091  0.00  0.00    +0.126 A 
ENDROOT
BRANCH   1  14
ATOM     14  S   UNL     1       0.487  -1.555  -5.290  0.00  0.00    +0.030 S 
ATOM     15  O   UNL     1       1.777  -1.583  -5.885  0.00  0.00    -0.164 OA
ATOM     16  O   UNL     1      -0.051  -2.665  -4.585  0.00  0.00    -0.164 OA
BRANCH  14  20
ATOM     17  C   UNL     1      -2.443  -0.577  -8.598  0.00  0.00    +0.000 A 
ATOM     18  C   UNL     1      -1.117  -0.206  -8.718  0.00  0.00    +0.002 A 
ATOM     19  C   UNL     1      -0.222  -0.504  -7.707  0.00  0.00    +0.027 A 
ATOM     20  C   UNL     1      -0.653  -1.174  -6.577  0.00  0.00    +0.094 A 
ATOM     21  C   UNL     1      -1.978  -1.550  -6.460  0.00  0.00    +0.027 A 
ATOM     22  C   UNL     1      -2.875  -1.247  -7.468  0.00  0.00    +0.002 A 
ENDBRANCH  14  20
ENDBRANCH   1  14
BRANCH  13  23
ATOM     23  N   UNL     1      -1.284  -0.979  -2.702  0.00  0.00    -0.343 N 
ATOM     24  H   UNL     1      -1.827  -0.811  -1.916  0.00  0.00    +0.144 HD
ATOM     25  H   UNL     1      -1.411  -1.792  -3.216  0.00  0.00    +0.144 HD
ENDBRANCH  13  23
BRANCH  12  26
ATOM     26  C   UNL     1      -0.753   1.593  -1.232  0.00  0.00    +0.128 C 
BRANCH  26  27
ATOM     27  C   UNL     1      -0.013   1.086   0.008  0.00  0.00    +0.063 C 
BRANCH  27  28
ATOM     28  C   UNL     1      -0.729   1.579   1.267  0.00  0.00    +0.234 C 
BRANCH  28  29
ATOM     29  O   UNL     1      -0.027   1.098   2.443  0.00  0.00    -0.461 OA
BRANCH  29  30
ATOM     30  C   UNL     1      -0.532   1.447   3.642  0.00  0.00    +0.342 C 
ATOM     31  O   UNL     1      -1.532   2.134   3.704  0.00  0.00    -0.245 OA
BRANCH  30  32
ATOM     32  C   UNL     1       0.129   0.994   4.881  0.00  0.00    +0.094 A 
ATOM     33  C   UNL     1       1.276   0.199   4.815  0.00  0.00    +0.018 A 
ATOM     34  C   UNL     1       1.892  -0.216   5.977  0.00  0.00    +0.001 A 
ATOM     35  C   UNL     1       1.371   0.143   7.208  0.00  0.00    +0.003 A 
ATOM     36  C   UNL     1       0.234   0.925   7.285  0.00  0.00    +0.039 A 
ATOM     37  C   UNL     1      -0.392   1.354   6.128  0.00  0.00    +0.137 A 
ATOM     38  F   UNL     1      -1.505   2.117   6.203  0.00  0.00    -0.205 F 
ENDBRANCH  30  32
ENDBRANCH  29  30
ENDBRANCH  28  29
ENDBRANCH  27  28
ENDBRANCH  26  27
ENDBRANCH  12  26
TORSDOF 9
