REMARK  Name = ZINC66246059
REMARK  7 active torsions:
REMARK  status: ('A' for Active; 'I' for Inactive)
REMARK    1  A    between atoms: C_1  and  C_2
REMARK    2  A    between atoms: C_7  and  N_8
REMARK    3  A    between atoms: C_9  and  C_11
REMARK    4  A    between atoms: C_11  and  C_12
REMARK    5  A    between atoms: C_12  and  N_13
REMARK    6  A    between atoms: N_15  and  C_16
REMARK    7  A    between atoms: C_16  and  C_17
REMARK                            x       y       z     vdW  Elec       q    Type
REMARK                         _______ _______ _______ _____ _____    ______ ____
ROOT
ATOM      1  C   UNL     1      -0.244  -0.946   6.038  0.00  0.00    +0.125 C 
ENDROOT
BRANCH   1   2
ATOM      2  N   UNL     1      -0.351  -0.220   7.306  0.00  0.00    -0.357 N 
ATOM      3  C   UNL     1      -0.434  -0.913   8.490  0.00  0.00    +0.169 C 
ATOM      4  N   UNL     1      -0.530  -0.266   9.618  0.00  0.00    -0.355 N 
ATOM      5  N   UNL     1      -0.417  -2.287   8.485  0.00  0.00    -0.371 N 
ATOM      6  H   UNL     1      -0.364   0.750   7.309  0.00  0.00    +0.162 HD
ATOM      7  H   UNL     1      -0.345  -2.768   7.646  0.00  0.00    +0.159 HD
ATOM      8  H   UNL     1      -0.475  -2.776   9.321  0.00  0.00    +0.159 HD
ATOM      9  H   UNL     1      -0.543   0.704   9.622  0.00  0.00    +0.162 HD
BRANCH   4  10
ATOM     10  C   UNL     1      -0.619  -1.005  10.880  0.00  0.00    +0.147 C 
BRANCH  10  11
ATOM     11  C   UNL     1      -0.722  -0.016  12.043  0.00  0.00    +0.137 C 
ATOM     12  C   UNL     1      -0.782  -0.777  13.392  0.00  0.00    +0.035 C 
ATOM     13  C   UNL     1      -0.238   0.305  14.365  0.00  0.00    +0.031 C 
ATOM     14  C   UNL     1       0.797   1.042  13.489  0.00  0.00    +0.160 C 
ATOM     15  O   UNL     1       0.464   0.791  12.118  0.00  0.00    -0.375 OA
ENDBRANCH  10  11
ENDBRANCH   4  10
ENDBRANCH   1   2
BRANCH   1  16
ATOM     16  C   UNL     1      -0.167   0.054   4.882  0.00  0.00    +0.117 C 
BRANCH  16  18
ATOM     17  N   UNL     1       0.026  -0.014   2.417  0.00  0.00    -0.285 N 
ATOM     18  C   UNL     1      -0.056  -0.694   3.578  0.00  0.00    +0.219 C 
ATOM     19  O   UNL     1      -0.040  -1.906   3.574  0.00  0.00    -0.275 OA
ATOM     20  H   UNL     1       0.079   0.955   2.425  0.00  0.00    +0.155 HD
BRANCH  17  27
ATOM     21  C   UNL     1      -1.265   1.183   0.182  0.00  0.00    +0.046 C 
ATOM     22  C   UNL     1      -0.584  -0.158   0.085  0.00  0.00    -0.028 A 
ATOM     23  C   UNL     1      -0.570  -0.840  -1.116  0.00  0.00    +0.020 A 
ATOM     24  C   UNL     1       0.055  -2.071  -1.206  0.00  0.00    +0.018 A 
ATOM     25  C   UNL     1       0.666  -2.623  -0.094  0.00  0.00    +0.017 A 
ATOM     26  C   UNL     1       0.655  -1.945   1.109  0.00  0.00    +0.024 A 
ATOM     27  C   UNL     1       0.034  -0.706   1.201  0.00  0.00    +0.036 A 
ATOM     28 BR   UNL     1       0.072  -3.002  -2.852  0.00  0.00    -0.050 Br
ENDBRANCH  17  27
ENDBRANCH  16  18
ENDBRANCH   1  16
TORSDOF 6
