REMARK  Name = ZINC45072164
REMARK  2 active torsions:
REMARK  status: ('A' for Active; 'I' for Inactive)
REMARK    1  A    between atoms: C_13  and  O_18
REMARK    2  A    between atoms: C_15  and  O_17
REMARK                            x       y       z     vdW  Elec       q    Type
REMARK                         _______ _______ _______ _____ _____    ______ ____
ROOT
ATOM      1  C   UNL     1      -0.018   1.478   0.010  0.00  0.00    +0.005 C 
ATOM      2  C   UNL     1       1.542   1.797  -0.003  0.00  0.00    +0.012 C 
ATOM      3  C   UNL     1       2.039   0.736  -0.912  0.00  0.00    +0.064 C 
ATOM      4  C   UNL     1       3.226   0.378  -1.666  0.00  0.00    +0.137 C 
ATOM      5  O   UNL     1       4.350   0.808  -1.558  0.00  0.00    -0.297 OA
ATOM      6  C   UNL     1       2.689  -0.693  -2.643  0.00  0.00    +0.075 C 
ATOM      7  C   UNL     1       1.194  -0.944  -2.243  0.00  0.00    +0.018 C 
ATOM      8  C   UNL     1       1.206  -0.535  -0.763  0.00  0.00    +0.012 C 
ATOM      9  C   UNL     1       0.002  -0.004   0.002  0.00  0.00    +0.001 C 
ATOM     10  C   UNL     1      -0.869  -1.153   0.316  0.00  0.00    +0.038 C 
ATOM     11  C   UNL     1       0.175  -2.309   0.496  0.00  0.00    +0.144 C 
ATOM     12  C   UNL     1       1.574  -1.690   0.156  0.00  0.00    +0.150 C 
ENDROOT
BRANCH  12  13
ATOM     13  O   UNL     1       2.219  -1.212   1.339  0.00  0.00    -0.389 OA
ATOM     14  H   UNL     1       2.474  -1.910   1.957  0.00  0.00    +0.210 HD
ENDBRANCH  12  13
BRANCH  11  15
ATOM     15  O   UNL     1       0.160  -2.780   1.845  0.00  0.00    -0.389 OA
ATOM     16  H   UNL     1      -0.690  -3.150   2.123  0.00  0.00    +0.210 HD
ENDBRANCH  11  15
TORSDOF 2
