REMARK  Name = ZINC39916161
REMARK  12 active torsions:
REMARK  status: ('A' for Active; 'I' for Inactive)
REMARK    1  A    between atoms: C_1  and  C_2
REMARK    2  A    between atoms: C_2  and  C_4
REMARK    3  A    between atoms: C_2  and  N_10
REMARK    4  A    between atoms: N_10  and  C_11
REMARK    5  A    between atoms: C_11  and  C_12
REMARK    6  A    between atoms: C_12  and  C_14
REMARK    7  A    between atoms: C_12  and  O_28
REMARK    8  A    between atoms: C_14  and  O_15
REMARK    9  A    between atoms: O_15  and  C_16
REMARK   10  A    between atoms: C_16  and  C_17
REMARK   11  A    between atoms: C_17  and  O_18
REMARK   12  A    between atoms: O_18  and  C_19
REMARK                            x       y       z     vdW  Elec       q    Type
REMARK                         _______ _______ _______ _____ _____    ______ ____
ROOT
ATOM      1  C   UNL     1       0.700  -0.626   3.637  0.00  0.00    +0.123 C 
ENDROOT
BRANCH   1   2
ATOM      2  O   UNL     1       1.955   0.049   3.752  0.00  0.00    -0.391 OA
ATOM      3  H   UNL     1       1.879   1.009   3.837  0.00  0.00    +0.210 HD
ENDBRANCH   1   2
BRANCH   1   4
ATOM      4  C   UNL     1      -0.040  -0.119   2.398  0.00  0.00    -0.048 C 
BRANCH   4   5
ATOM      5  N   UNL     1       0.713  -0.491   1.192  0.00  0.00    +0.385 N 
ATOM      6  H   UNL     1       0.798  -1.495   1.145  0.00  0.00    -0.085 HD
ATOM      7  H   UNL     1       1.632  -0.076   1.228  0.00  0.00    -0.085 HD
BRANCH   5   9
ATOM      8  C   UNL     1      -0.019   1.526   0.010  0.00  0.00    -0.009 C 
ATOM      9  C   UNL     1       0.002  -0.004   0.002  0.00  0.00    -0.044 C 
BRANCH   9  10
ATOM     10  C   UNL     1       0.707  -0.490  -1.238  0.00  0.00    -0.062 A 
ATOM     11  C   UNL     1       2.089  -0.511  -1.284  0.00  0.00    +0.002 A 
ATOM     12  C   UNL     1       2.736  -0.957  -2.421  0.00  0.00    +0.000 A 
ATOM     13  C   UNL     1       2.002  -1.382  -3.512  0.00  0.00    +0.000 A 
ATOM     14  C   UNL     1       0.620  -1.362  -3.466  0.00  0.00    +0.000 A 
ATOM     15  C   UNL     1      -0.027  -0.920  -2.327  0.00  0.00    +0.002 A 
ENDBRANCH   9  10
ENDBRANCH   5   9
ENDBRANCH   4   5
ENDBRANCH   1   4
BRANCH   1  16
ATOM     16  C   UNL     1      -0.143  -0.349   4.883  0.00  0.00    +0.189 C 
BRANCH  16  17
ATOM     17  O   UNL     1       0.492  -0.925   6.026  0.00  0.00    -0.374 OA
BRANCH  17  18
ATOM     18  C   UNL     1      -0.217  -0.722   7.250  0.00  0.00    +0.201 C 
BRANCH  18  19
ATOM     19  C   UNL     1       0.551  -1.377   8.400  0.00  0.00    +0.257 C 
BRANCH  19  20
ATOM     20  O   UNL     1       1.803  -0.713   8.575  0.00  0.00    -0.484 OA
BRANCH  20  21
ATOM     21  C   UNL     1       2.615  -1.175   9.564  0.00  0.00    +0.191 A 
ATOM     22  C   UNL     1       2.513  -0.655  10.847  0.00  0.00    +0.169 A 
ATOM     23  C   UNL     1       3.339  -1.128  11.852  0.00  0.00    +0.057 A 
ATOM     24  C   UNL     1       4.265  -2.118  11.579  0.00  0.00    +0.024 A 
ATOM     25  C   UNL     1       4.369  -2.638  10.301  0.00  0.00    +0.057 A 
ATOM     26  C   UNL     1       3.542  -2.173   9.294  0.00  0.00    +0.169 A 
ATOM     27  F   UNL     1       3.639  -2.686   8.048  0.00  0.00    -0.202 F 
ATOM     28 BR   UNL     1       5.392  -2.761  12.954  0.00  0.00    -0.050 Br
ATOM     29  F   UNL     1       1.609   0.312  11.115  0.00  0.00    -0.202 F 
ENDBRANCH  20  21
ENDBRANCH  19  20
ENDBRANCH  18  19
ENDBRANCH  17  18
ENDBRANCH  16  17
ENDBRANCH   1  16
TORSDOF 11
