REMARK  Name = ZINC64380732
REMARK  10 active torsions:
REMARK  status: ('A' for Active; 'I' for Inactive)
REMARK    1  A    between atoms: C_1  and  C_2
REMARK    2  A    between atoms: C_2  and  C_3
REMARK    3  A    between atoms: C_2  and  C_4
REMARK    4  A    between atoms: C_4  and  C_6
REMARK    5  A    between atoms: C_4  and  N_22
REMARK    6  A    between atoms: N_8  and  C_9
REMARK    7  A    between atoms: C_9  and  C_10
REMARK    8  A    between atoms: C_10  and  C_11
REMARK    9  A    between atoms: C_15  and  O_20
REMARK   10  A    between atoms: O_20  and  C_21
REMARK                            x       y       z     vdW  Elec       q    Type
REMARK                         _______ _______ _______ _____ _____    ______ ____
ROOT
ATOM      1  C   UNL     1      -2.183  -0.233  -1.130  0.00  0.00    +0.235 C 
ATOM      2  O   UNL     1      -3.175   0.463  -1.093  0.00  0.00    -0.274 OA
ATOM      3  N   UNL     1      -1.756  -0.738  -2.304  0.00  0.00    -0.313 N 
ATOM      4  H   UNL     1      -0.963  -1.295  -2.333  0.00  0.00    +0.149 HD
ENDROOT
BRANCH   1   5
ATOM      5  C   UNL     1      -1.427  -0.534   0.139  0.00  0.00    +0.183 C 
BRANCH   5   6
ATOM      6  N   UNL     1      -2.086   0.125   1.268  0.00  0.00    -0.205 N 
ATOM      7  C   UNL     1      -2.444  -0.613   2.345  0.00  0.00    +0.264 C 
ATOM      8  O   UNL     1      -2.314  -1.822   2.351  0.00  0.00    -0.269 OA
ATOM      9  C   UNL     1      -2.997   0.103   3.510  0.00  0.00    +0.060 A 
ATOM     10  C   UNL     1      -3.622  -0.544   4.568  0.00  0.00    +0.015 A 
ATOM     11  C   UNL     1      -4.109   0.202   5.623  0.00  0.00    +0.001 A 
ATOM     12  C   UNL     1      -3.979   1.582   5.630  0.00  0.00    +0.002 A 
ATOM     13  C   UNL     1      -3.360   2.238   4.581  0.00  0.00    +0.025 A 
ATOM     14  C   UNL     1      -2.868   1.506   3.517  0.00  0.00    +0.055 A 
ATOM     15  N   UNL     1      -2.241   2.088   2.422  0.00  0.00    -0.264 N 
ATOM     16  N   UNL     1      -2.318   1.465   1.211  0.00  0.00    -0.157 NA
ATOM     17  H   UNL     1      -1.755   2.922   2.517  0.00  0.00    +0.168 HD
ATOM     18  H   UNL     1      -3.201   1.660   0.763  0.00  0.00    +0.168 HD
ENDBRANCH   5   6
BRANCH   5  20
ATOM     19  C   UNL     1      -0.015   1.494  -0.231  0.00  0.00    +0.009 C 
ATOM     20  C   UNL     1       0.008  -0.016   0.012  0.00  0.00    +0.014 C 
ATOM     21  C   UNL     1       0.772  -0.314   1.304  0.00  0.00    +0.009 C 
ENDBRANCH   5  20
ENDBRANCH   1   5
BRANCH   3  22
ATOM     22  C   UNL     1      -2.491  -0.445  -3.538  0.00  0.00    +0.108 C 
BRANCH  22  23
ATOM     23  C   UNL     1      -1.802  -1.134  -4.718  0.00  0.00    +0.052 C 
BRANCH  23  24
ATOM     24  C   UNL     1      -2.559  -0.833  -5.986  0.00  0.00    -0.040 C 
ATOM     25  C   UNL     1      -2.293   0.148  -6.876  0.00  0.00    -0.001 A 
ATOM     26  C   UNL     1      -1.258   1.190  -6.926  0.00  0.00    +0.013 A 
ATOM     27  C   UNL     1      -1.243   2.051  -7.966  0.00  0.00    +0.046 A 
ATOM     28  C   UNL     1      -2.194   1.975  -9.001  0.00  0.00    +0.122 A 
ATOM     29  C   UNL     1      -3.178   1.040  -9.021  0.00  0.00    +0.071 A 
ATOM     30  C   UNL     1      -3.282   0.088  -7.976  0.00  0.00    +0.046 A 
ATOM     31  N   UNL     1      -4.128  -0.896  -7.772  0.00  0.00    -0.380 N 
ATOM     32  C   UNL     1      -3.764  -1.572  -6.522  0.00  0.00    +0.144 C 
ATOM     33  H   UNL     1      -4.866  -1.137  -8.353  0.00  0.00    +0.160 HD
BRANCH  28  34
ATOM     34  O   UNL     1      -2.125   2.870 -10.017  0.00  0.00    -0.495 OA
ATOM     35  C   UNL     1      -1.075   3.838  -9.959  0.00  0.00    +0.277 C 
ENDBRANCH  28  34
ENDBRANCH  23  24
ENDBRANCH  22  23
ENDBRANCH   3  22
TORSDOF 7
