REMARK  Name = ZINC08869024
REMARK  9 active torsions:
REMARK  status: ('A' for Active; 'I' for Inactive)
REMARK    1  A    between atoms: C_1  and  C_2
REMARK    2  A    between atoms: C_2  and  O_3
REMARK    3  A    between atoms: O_3  and  C_4
REMARK    4  A    between atoms: C_4  and  C_6
REMARK    5  A    between atoms: C_10  and  N_11
REMARK    6  A    between atoms: C_12  and  C_14
REMARK    7  A    between atoms: N_19  and  S_20
REMARK    8  A    between atoms: S_20  and  C_23
REMARK    9  A    between atoms: C_33  and  N_59
REMARK                            x       y       z     vdW  Elec       q    Type
REMARK                         _______ _______ _______ _____ _____    ______ ____
ROOT
ATOM      1  N   UNL     1       1.774   3.129  -4.923  0.00  0.00    -0.278 N 
ATOM      2  C   UNL     1       1.261   4.375  -4.901  0.00  0.00    +0.236 C 
ATOM      3  O   UNL     1       0.159   4.586  -5.362  0.00  0.00    -0.274 OA
ATOM      4  H   UNL     1       2.655   2.961  -4.555  0.00  0.00    +0.155 HD
ENDROOT
BRANCH   1   9
ATOM      5  C   UNL     1       1.397   0.749  -5.588  0.00  0.00    +0.091 A 
ATOM      6  C   UNL     1       0.437  -0.146  -6.205  0.00  0.00    -0.025 A 
ATOM      7  C   UNL     1      -0.714   0.434  -6.615  0.00  0.00    -0.021 A 
ATOM      8  S   UNL     1      -0.536   2.141  -6.189  0.00  0.00    -0.079 S 
ATOM      9  C   UNL     1       1.042   2.088  -5.473  0.00  0.00    +0.086 A 
ATOM     10  C   UNL     1      -1.867  -0.251  -7.280  0.00  0.00    -0.036 C 
ATOM     11  C   UNL     1      -0.711  -2.289  -6.666  0.00  0.00    -0.074 C 
ATOM     12  C   UNL     1       0.652  -1.642  -6.405  0.00  0.00    +0.018 C 
ATOM     13  C   UNL     1      -2.536  -2.369  -8.255  0.00  0.00    -0.096 C 
ATOM     14  N   UNL     1      -1.393  -1.571  -7.762  0.00  0.00    +0.381 N 
ATOM     15  H   UNL     1      -0.729  -1.428  -8.532  0.00  0.00    -0.082 HD
BRANCH   5  16
ATOM     16  C   UNL     1       2.687   0.260  -5.097  0.00  0.00    +0.342 C 
ATOM     17  O   UNL     1       3.653   0.246  -5.836  0.00  0.00    -0.245 OA
BRANCH  16  18
ATOM     18  O   UNL     1       2.804  -0.176  -3.826  0.00  0.00    -0.461 OA
BRANCH  18  20
ATOM     19  C   UNL     1       4.051  -1.096  -1.948  0.00  0.00    +0.048 C 
ATOM     20  C   UNL     1       4.113  -0.647  -3.409  0.00  0.00    +0.229 C 
ENDBRANCH  18  20
ENDBRANCH  16  18
ENDBRANCH   5  16
ENDBRANCH   1   9
BRANCH   2  21
ATOM     21  C   UNL     1       2.056   5.507  -4.303  0.00  0.00    +0.166 C 
ATOM     22  C   UNL     1       1.560   5.815  -2.868  0.00  0.00    +0.031 C 
ATOM     23  C   UNL     1       1.997   7.294  -2.699  0.00  0.00    +0.019 C 
ATOM     24  C   UNL     1       1.798   7.878  -4.114  0.00  0.00    +0.110 C 
ATOM     25  N   UNL     1       1.827   6.751  -5.060  0.00  0.00    -0.165 NA
BRANCH  25  26
ATOM     26  S   UNL     1       1.634   6.861  -6.701  0.00  0.00    +0.062 S 
ATOM     27  O   UNL     1       1.341   5.550  -7.164  0.00  0.00    -0.153 OA
ATOM     28  O   UNL     1       0.768   7.963  -6.935  0.00  0.00    -0.153 OA
BRANCH  26  29
ATOM     29  C   UNL     1       3.200   7.297  -7.382  0.00  0.00    +0.106 A 
ATOM     30  C   UNL     1       3.494   8.622  -7.644  0.00  0.00    +0.030 A 
ATOM     31  C   UNL     1       4.724   8.966  -8.173  0.00  0.00    +0.022 A 
ATOM     32  C   UNL     1       5.656   7.982  -8.450  0.00  0.00    +0.041 A 
ATOM     33  C   UNL     1       5.359   6.655  -8.192  0.00  0.00    +0.022 A 
ATOM     34  C   UNL     1       4.131   6.314  -7.658  0.00  0.00    +0.030 A 
ATOM     35 CL   UNL     1       7.199   8.412  -9.120  0.00  0.00    -0.084 Cl
ENDBRANCH  26  29
ENDBRANCH  25  26
ENDBRANCH   2  21
TORSDOF 7
