REMARK  Name = ZINC21775206
REMARK  13 active torsions:
REMARK  status: ('A' for Active; 'I' for Inactive)
REMARK    1  A    between atoms: C_1  and  C_2
REMARK    2  A    between atoms: C_3  and  C_36
REMARK    3  A    between atoms: C_4  and  C_35
REMARK    4  A    between atoms: C_5  and  S_10
REMARK    5  A    between atoms: C_6  and  C_9
REMARK    6  A    between atoms: C_7  and  C_8
REMARK    7  A    between atoms: S_10  and  N_13
REMARK    8  A    between atoms: N_13  and  C_14
REMARK    9  A    between atoms: C_14  and  C_15
REMARK   10  A    between atoms: C_15  and  C_17
REMARK   11  A    between atoms: C_15  and  N_28
REMARK   12  A    between atoms: N_26  and  C_27
REMARK   13  A    between atoms: N_31  and  C_34
REMARK                            x       y       z     vdW  Elec       q    Type
REMARK                         _______ _______ _______ _____ _____    ______ ____
ROOT
ATOM      1  C   UNL     1       2.204  -2.729   4.597  0.00  0.00    +0.102 C 
ENDROOT
BRANCH   1   2
ATOM      2  C   UNL     1       1.655  -1.902   3.463  0.00  0.00    -0.029 A 
ATOM      3  C   UNL     1       0.514  -2.313   2.796  0.00  0.00    +0.007 A 
ATOM      4  C   UNL     1       0.015  -1.557   1.757  0.00  0.00    +0.024 A 
ATOM      5  C   UNL     1       0.654  -0.377   1.371  0.00  0.00    +0.033 A 
ATOM      6  C   UNL     1       1.791   0.031   2.045  0.00  0.00    -0.026 A 
ATOM      7  C   UNL     1       2.289  -0.735   3.087  0.00  0.00    +0.010 A 
ATOM      8  C   UNL     1       2.518   1.304   1.689  0.00  0.00    +0.038 C 
ATOM      9  C   UNL     1       2.061   1.788   0.310  0.00  0.00    +0.024 C 
ATOM     10  C   UNL     1       0.529   1.739   0.276  0.00  0.00    +0.105 C 
ATOM     11  N   UNL     1       0.104   0.338   0.308  0.00  0.00    -0.333 N 
ATOM     12  C   UNL     1      -1.361   0.231   0.304  0.00  0.00    +0.129 C 
ENDBRANCH   1   2
BRANCH   1  13
ATOM     13  N   UNL     1       2.097  -4.155   4.261  0.00  0.00    -0.298 NA
ATOM     14  C   UNL     1       2.454  -4.995   5.412  0.00  0.00    +0.066 C 
ATOM     15  C   UNL     1       2.254  -6.468   5.046  0.00  0.00    -0.064 C 
ATOM     16  N   UNL     1       3.084  -6.798   3.880  0.00  0.00    +0.379 N 
ATOM     17  C   UNL     1       2.727  -5.957   2.728  0.00  0.00    -0.064 C 
ATOM     18  C   UNL     1       2.928  -4.484   3.094  0.00  0.00    +0.066 C 
ATOM     19  C   UNL     1       2.977  -8.224   3.543  0.00  0.00    -0.096 C 
ATOM     20  H   UNL     1       4.133  -6.591   4.140  0.00  0.00    -0.082 HD
ENDBRANCH   1  13
BRANCH   1  21
ATOM     21  C   UNL     1       1.405  -2.443   5.870  0.00  0.00    +0.129 C 
BRANCH  21  22
ATOM     22  N   UNL     1       1.574  -1.038   6.249  0.00  0.00    -0.188 NA
ATOM     23  H   UNL     1       2.483  -0.494   5.951  0.00  0.00    +0.148 HD
BRANCH  22  24
ATOM     24  S   UNL     1       0.529  -0.339   7.326  0.00  0.00    +0.059 S 
ATOM     25  O   UNL     1       0.966   1.001   7.505  0.00  0.00    -0.153 OA
ATOM     26  O   UNL     1      -0.783  -0.659   6.884  0.00  0.00    -0.153 OA
BRANCH  24  31
ATOM     27  C   UNL     1       1.295  -3.127  12.621  0.00  0.00    +0.044 C 
ATOM     28  C   UNL     1       1.104  -2.431  11.299  0.00  0.00    -0.044 A 
ATOM     29  C   UNL     1       0.368  -3.038  10.298  0.00  0.00    -0.043 A 
ATOM     30  C   UNL     1       0.192  -2.399   9.085  0.00  0.00    -0.021 A 
ATOM     31  C   UNL     1       0.752  -1.153   8.872  0.00  0.00    +0.112 A 
ATOM     32  C   UNL     1       1.493  -0.549   9.871  0.00  0.00    -0.021 A 
ATOM     33  C   UNL     1       1.665  -1.185  11.086  0.00  0.00    -0.043 A 
ATOM     34  C   UNL     1       2.467  -0.524  12.177  0.00  0.00    +0.044 C 
ATOM     35  C   UNL     1       2.108   0.807   9.637  0.00  0.00    +0.046 C 
ATOM     36  C   UNL     1      -0.610  -3.061   7.994  0.00  0.00    +0.046 C 
ATOM     37  C   UNL     1      -0.243  -4.396  10.530  0.00  0.00    +0.044 C 
ENDBRANCH  24  31
ENDBRANCH  22  24
ENDBRANCH  21  22
ENDBRANCH   1  21
TORSDOF 6
