REMARK  Name = ZINC23483302
REMARK  12 active torsions:
REMARK  status: ('A' for Active; 'I' for Inactive)
REMARK    1  A    between atoms: C_1  and  C_2
REMARK    2  A    between atoms: C_2  and  C_4
REMARK    3  A    between atoms: C_2  and  N_12
REMARK    4  A    between atoms: C_13  and  C_15
REMARK    5  A    between atoms: C_15  and  S_16
REMARK    6  A    between atoms: S_16  and  C_17
REMARK    7  A    between atoms: C_20  and  C_29
REMARK    8  A    between atoms: N_21  and  C_22
REMARK    9  A    between atoms: C_29  and  C_31
REMARK   10  A    between atoms: C_29  and  N_32
REMARK   11  A    between atoms: N_32  and  C_33
REMARK   12  A    between atoms: N_32  and  C_34
REMARK                            x       y       z     vdW  Elec       q    Type
REMARK                         _______ _______ _______ _____ _____    ______ ____
ROOT
ATOM      1  C   UNL     1       6.342   0.308   1.248  0.00  0.00    +0.197 A 
ATOM      2  N   UNL     1       6.710   1.224   0.382  0.00  0.00    -0.122 NA
ATOM      3  N   UNL     1       7.990   1.331   0.375  0.00  0.00    -0.135 NA
ATOM      4  C   UNL     1       8.515   0.498   1.229  0.00  0.00    +0.125 A 
ATOM      5  N   UNL     1       7.483  -0.181   1.821  0.00  0.00    -0.275 N 
ENDROOT
BRANCH   5   6
ATOM      6  C   UNL     1       7.578  -1.175   2.808  0.00  0.00    +0.050 A 
ATOM      7  C   UNL     1       8.074  -0.860   4.065  0.00  0.00    +0.029 A 
ATOM      8  C   UNL     1       8.161  -1.837   5.037  0.00  0.00    +0.040 A 
ATOM      9  C   UNL     1       7.764  -3.134   4.754  0.00  0.00    +0.124 A 
ATOM     10  C   UNL     1       7.274  -3.451   3.498  0.00  0.00    +0.040 A 
ATOM     11  C   UNL     1       7.180  -2.474   2.526  0.00  0.00    +0.029 A 
ATOM     12  F   UNL     1       7.855  -4.090   5.704  0.00  0.00    -0.205 F 
ENDBRANCH   5   6
BRANCH   4  13
ATOM     13  C   UNL     1       9.983   0.319   1.515  0.00  0.00    -0.003 C 
ATOM     14  C   UNL     1      10.486   1.494   2.357  0.00  0.00    -0.005 C 
BRANCH  13  15
ATOM     15  N   UNL     1      10.727   0.270   0.249  0.00  0.00    +0.382 N 
ATOM     16  C   UNL     1      12.165   0.095   0.490  0.00  0.00    -0.096 C 
ATOM     17  C   UNL     1      10.207  -0.790  -0.625  0.00  0.00    -0.096 C 
ATOM     18  H   UNL     1      10.584   1.232  -0.264  0.00  0.00    -0.082 HD
ENDBRANCH  13  15
ENDBRANCH   4  13
BRANCH   1  19
ATOM     19  S   UNL     1       4.691  -0.189   1.610  0.00  0.00    -0.076 S 
BRANCH  19  20
ATOM     20  C   UNL     1       3.781   0.895   0.481  0.00  0.00    +0.173 C 
BRANCH  20  22
ATOM     21  N   UNL     1       1.425   1.335  -0.127  0.00  0.00    -0.308 N 
ATOM     22  C   UNL     1       2.303   0.638   0.621  0.00  0.00    +0.224 C 
ATOM     23  O   UNL     1       1.903  -0.196   1.405  0.00  0.00    -0.275 OA
ATOM     24  H   UNL     1       1.787   2.091  -0.839  0.00  0.00    +0.149 HD
BRANCH  21  26
ATOM     25  C   UNL     1      -0.578   1.957   1.132  0.00  0.00    +0.033 C 
ATOM     26  C   UNL     1      -0.013   1.086   0.008  0.00  0.00    +0.102 C 
BRANCH  26  27
ATOM     27  C   UNL     1      -0.705   1.424  -1.287  0.00  0.00    -0.009 A 
ATOM     28  C   UNL     1      -0.160   2.369  -2.136  0.00  0.00    +0.008 A 
ATOM     29  C   UNL     1      -0.795   2.680  -3.324  0.00  0.00    +0.020 A 
ATOM     30  C   UNL     1      -1.977   2.046  -3.663  0.00  0.00    +0.042 A 
ATOM     31  C   UNL     1      -2.523   1.100  -2.814  0.00  0.00    +0.040 A 
ATOM     32  C   UNL     1      -1.884   0.785  -1.628  0.00  0.00    +0.047 A 
ATOM     33 CL   UNL     1      -2.564  -0.407  -0.566  0.00  0.00    -0.083 Cl
ATOM     34 CL   UNL     1      -2.774   2.436  -5.155  0.00  0.00    -0.083 Cl
ENDBRANCH  26  27
ENDBRANCH  21  26
ENDBRANCH  20  22
ENDBRANCH  19  20
ENDBRANCH   1  19
TORSDOF 8
