REMARK  Name = ZINC12820527
REMARK  9 active torsions:
REMARK  status: ('A' for Active; 'I' for Inactive)
REMARK    1  A    between atoms: C_1  and  C_2
REMARK    2  A    between atoms: C_9  and  C_11
REMARK    3  A    between atoms: C_14  and  N_17
REMARK    4  A    between atoms: C_18  and  C_20
REMARK    5  A    between atoms: C_20  and  N_56
REMARK    6  A    between atoms: C_21  and  N_56
REMARK    7  A    between atoms: C_22  and  C_23
REMARK    8  A    between atoms: C_22  and  N_56
REMARK    9  A    between atoms: N_25  and  C_26
REMARK                            x       y       z     vdW  Elec       q    Type
REMARK                         _______ _______ _______ _____ _____    ______ ____
ROOT
ATOM      1  N   UNL     1      -1.151   4.950   3.452  0.00  0.00    -0.287 N 
ATOM      2  C   UNL     1      -1.161   3.680   2.999  0.00  0.00    +0.201 C 
ATOM      3  O   UNL     1      -1.591   2.790   3.701  0.00  0.00    -0.278 OA
ATOM      4  H   UNL     1      -0.872   5.671   2.867  0.00  0.00    +0.155 HD
ENDROOT
BRANCH   1   8
ATOM      5  C   UNL     1      -2.319   5.776   7.367  0.00  0.00    +0.007 A 
ATOM      6  C   UNL     1      -1.298   6.519   6.769  0.00  0.00    +0.012 A 
ATOM      7  C   UNL     1      -0.914   6.243   5.475  0.00  0.00    +0.024 A 
ATOM      8  C   UNL     1      -1.542   5.226   4.764  0.00  0.00    +0.033 A 
ATOM      9  C   UNL     1      -2.562   4.489   5.354  0.00  0.00    +0.024 A 
ATOM     10  C   UNL     1      -2.947   4.756   6.649  0.00  0.00    +0.012 A 
BRANCH   5  19
ATOM     11  C   UNL     1      -4.575   7.279  14.742  0.00  0.00    +0.044 C 
ATOM     12  C   UNL     1      -3.943   7.222  13.374  0.00  0.00    -0.049 A 
ATOM     13  C   UNL     1      -2.923   8.100  13.036  0.00  0.00    +0.005 A 
ATOM     14  C   UNL     1      -2.333   8.072  11.812  0.00  0.00    +0.029 A 
ATOM     15  C   UNL     1      -2.744   7.138  10.830  0.00  0.00    +0.079 A 
ATOM     16  C   UNL     1      -3.786   6.258  11.204  0.00  0.00    +0.040 A 
ATOM     17  C   UNL     1      -4.375   6.294  12.444  0.00  0.00    +0.020 A 
ATOM     18  S   UNL     1      -3.998   5.277   9.738  0.00  0.00    -0.067 S 
ATOM     19  C   UNL     1      -2.733   6.069   8.754  0.00  0.00    +0.109 A 
ATOM     20  N   UNL     1      -2.262   6.977   9.582  0.00  0.00    -0.239 NA
ENDBRANCH   5  19
ENDBRANCH   1   8
BRANCH   2  21
ATOM     21  C   UNL     1      -0.638   3.368   1.621  0.00  0.00    +0.019 C 
BRANCH  21  23
ATOM     22  C   UNL     1      -2.168   1.517   1.307  0.00  0.00    -0.095 C 
ATOM     23  N   UNL     1      -0.746   1.912   1.389  0.00  0.00    +0.389 N 
ATOM     24  H   UNL     1      -0.307   1.416   2.173  0.00  0.00    -0.081 HD
BRANCH  23  25
ATOM     25  C   UNL     1      -0.048   1.547   0.138  0.00  0.00    +0.019 C 
BRANCH  25  26
ATOM     26  C   UNL     1       0.018   0.045   0.039  0.00  0.00    +0.201 C 
ATOM     27  O   UNL     1      -0.478  -0.643   0.907  0.00  0.00    -0.278 OA
ATOM     28  N   UNL     1       0.629  -0.535  -1.013  0.00  0.00    -0.285 N 
ATOM     29  H   UNL     1       0.954   0.010  -1.746  0.00  0.00    +0.155 HD
BRANCH  28  30
ATOM     30  C   UNL     1       0.793  -1.927  -1.049  0.00  0.00    +0.072 A 
ATOM     31  C   UNL     1       0.823  -2.653   0.134  0.00  0.00    +0.029 A 
ATOM     32  C   UNL     1       0.981  -4.025   0.098  0.00  0.00    +0.043 A 
ATOM     33  C   UNL     1       1.119  -4.677  -1.116  0.00  0.00    +0.161 A 
ATOM     34  C   UNL     1       1.095  -3.955  -2.299  0.00  0.00    +0.195 A 
ATOM     35  C   UNL     1       0.932  -2.580  -2.267  0.00  0.00    +0.182 A 
ATOM     36  F   UNL     1       0.908  -1.875  -3.420  0.00  0.00    -0.200 F 
ATOM     37  F   UNL     1       1.231  -4.592  -3.482  0.00  0.00    -0.199 F 
ATOM     38  F   UNL     1       1.278  -6.018  -1.147  0.00  0.00    -0.202 F 
ENDBRANCH  28  30
ENDBRANCH  25  26
ENDBRANCH  23  25
ENDBRANCH  21  23
ENDBRANCH   2  21
TORSDOF 7
