REMARK  Name = ZINC15072016
REMARK  13 active torsions:
REMARK  status: ('A' for Active; 'I' for Inactive)
REMARK    1  A    between atoms: C_1  and  O_2
REMARK    2  A    between atoms: O_2  and  C_3
REMARK    3  A    between atoms: C_5  and  C_12
REMARK    4  A    between atoms: C_7  and  O_10
REMARK    5  A    between atoms: C_8  and  O_9
REMARK    6  A    between atoms: O_10  and  C_11
REMARK    7  A    between atoms: C_12  and  N_62
REMARK    8  A    between atoms: C_16  and  C_18
REMARK    9  A    between atoms: C_16  and  C_27
REMARK   10  A    between atoms: C_18  and  C_19
REMARK   11  A    between atoms: C_19  and  C_20
REMARK   12  A    between atoms: C_20  and  C_21
REMARK   13  A    between atoms: C_27  and  O_28
REMARK                            x       y       z     vdW  Elec       q    Type
REMARK                         _______ _______ _______ _____ _____    ______ ____
ROOT
ATOM      1  C   UNL     1      -1.050  -2.467  -2.268  0.00  0.00    -0.078 C 
ATOM      2  C   UNL     1      -1.387  -0.995  -2.522  0.00  0.00    -0.018 C 
ATOM      3  C   UNL     1      -2.197  -0.452  -1.342  0.00  0.00    +0.005 C 
ATOM      4  C   UNL     1      -1.392  -0.633  -0.052  0.00  0.00    -0.021 C 
ATOM      5  C   UNL     1      -1.055  -2.115   0.130  0.00  0.00    -0.069 C 
ATOM      6  N   UNL     1      -0.254  -2.570  -1.027  0.00  0.00    +0.383 N 
ATOM      7  H   UNL     1       0.576  -1.972  -1.113  0.00  0.00    -0.081 HD
ENDROOT
BRANCH   6   8
ATOM      8  C   UNL     1       0.180  -3.967  -0.821  0.00  0.00    -0.043 C 
BRANCH   8  11
ATOM      9  C   UNL     1      -2.724  -6.299  -1.462  0.00  0.00    +0.165 A 
ATOM     10  C   UNL     1      -1.630  -5.473  -1.668  0.00  0.00    +0.051 A 
ATOM     11  C   UNL     1      -1.010  -4.864  -0.593  0.00  0.00    -0.057 A 
ATOM     12  C   UNL     1      -1.474  -5.079   0.691  0.00  0.00    +0.051 A 
ATOM     13  C   UNL     1      -2.572  -5.899   0.904  0.00  0.00    +0.165 A 
ATOM     14  C   UNL     1      -3.198  -6.514  -0.174  0.00  0.00    +0.201 A 
BRANCH   9  16
ATOM     15  C   UNL     1      -2.792  -6.633  -3.816  0.00  0.00    +0.277 C 
ATOM     16  O   UNL     1      -3.333  -6.899  -2.520  0.00  0.00    -0.491 OA
ENDBRANCH   9  16
BRANCH  14  17
ATOM     17  O   UNL     1      -4.272  -7.323   0.032  0.00  0.00    -0.501 OA
ATOM     18  H   UNL     1      -4.043  -8.252   0.174  0.00  0.00    +0.292 HD
ENDBRANCH  14  17
BRANCH  13  19
ATOM     19  O   UNL     1      -3.032  -6.106   2.167  0.00  0.00    -0.491 OA
ATOM     20  C   UNL     1      -2.340  -5.442   3.227  0.00  0.00    +0.277 C 
ENDBRANCH  13  19
ENDBRANCH   8  11
ENDBRANCH   6   8
BRANCH   4  21
ATOM     21  C   UNL     1      -0.097   0.178  -0.141  0.00  0.00    +0.007 C 
BRANCH  21  22
ATOM     22  C   UNL     1       0.650   0.092   1.191  0.00  0.00    +0.005 C 
BRANCH  22  23
ATOM     23  C   UNL     1       1.952   0.891   1.098  0.00  0.00    +0.035 C 
BRANCH  23  24
ATOM     24  C   UNL     1       2.688   0.807   2.410  0.00  0.00    -0.047 A 
ATOM     25  C   UNL     1       2.457   1.750   3.394  0.00  0.00    +0.003 A 
ATOM     26  C   UNL     1       3.130   1.669   4.599  0.00  0.00    +0.000 A 
ATOM     27  C   UNL     1       4.040   0.652   4.817  0.00  0.00    +0.000 A 
ATOM     28  C   UNL     1       4.274  -0.288   3.831  0.00  0.00    +0.000 A 
ATOM     29  C   UNL     1       3.599  -0.210   2.627  0.00  0.00    +0.003 A 
ENDBRANCH  23  24
ENDBRANCH  22  23
ENDBRANCH  21  22
ENDBRANCH   4  21
BRANCH   4  30
ATOM     30  C   UNL     1      -2.219  -0.146   1.139  0.00  0.00    +0.160 C 
BRANCH  30  31
ATOM     31  O   UNL     1      -2.435   1.262   1.026  0.00  0.00    -0.395 OA
ATOM     32  H   UNL     1      -2.953   1.640   1.749  0.00  0.00    +0.209 HD
ENDBRANCH  30  31
ENDBRANCH   4  30
TORSDOF 11
