REMARK  Name = ZINC40899900
REMARK  15 active torsions:
REMARK  status: ('A' for Active; 'I' for Inactive)
REMARK    1  A    between atoms: C_1  and  C_2
REMARK    2  A    between atoms: C_2  and  O_3
REMARK    3  A    between atoms: O_3  and  C_4
REMARK    4  A    between atoms: C_4  and  C_6
REMARK    5  A    between atoms: C_7  and  C_28
REMARK    6  A    between atoms: C_10  and  N_11
REMARK    7  A    between atoms: N_11  and  C_12
REMARK    8  A    between atoms: C_12  and  N_14
REMARK    9  A    between atoms: C_15  and  C_17
REMARK   10  A    between atoms: C_17  and  O_18
REMARK   11  A    between atoms: O_18  and  C_19
REMARK   12  A    between atoms: C_24  and  C_25
REMARK   13  A    between atoms: C_25  and  C_26
REMARK   14  A    between atoms: C_25  and  C_27
REMARK   15  A    between atoms: C_31  and  C_34
REMARK                            x       y       z     vdW  Elec       q    Type
REMARK                         _______ _______ _______ _____ _____    ______ ____
ROOT
ATOM      1  N   UNL     1      -3.042  -2.527   2.494  0.00  0.00    -0.290 N 
ATOM      2  H   UNL     1      -2.161  -2.150   2.648  0.00  0.00    +0.154 HD
ENDROOT
BRANCH   1   7
ATOM      3  C   UNL     1      -2.841  -2.416   0.016  0.00  0.00    +0.095 A 
ATOM      4  C   UNL     1      -3.552  -2.716  -1.214  0.00  0.00    +0.005 A 
ATOM      5  C   UNL     1      -4.791  -3.249  -1.056  0.00  0.00    +0.056 A 
ATOM      6  S   UNL     1      -4.976  -3.337   0.712  0.00  0.00    -0.080 S 
ATOM      7  C   UNL     1      -3.499  -2.710   1.200  0.00  0.00    +0.086 A 
BRANCH   4   8
ATOM      8  C   UNL     1      -2.966  -2.457  -2.551  0.00  0.00    -0.017 A 
ATOM      9  C   UNL     1      -2.407  -1.213  -2.841  0.00  0.00    +0.009 A 
ATOM     10  C   UNL     1      -1.863  -0.978  -4.087  0.00  0.00    +0.004 A 
ATOM     11  C   UNL     1      -1.872  -1.974  -5.048  0.00  0.00    -0.050 A 
ATOM     12  C   UNL     1      -2.426  -3.210  -4.766  0.00  0.00    +0.004 A 
ATOM     13  C   UNL     1      -2.967  -3.458  -3.521  0.00  0.00    +0.009 A 
ATOM     14  C   UNL     1      -1.276  -1.711  -6.407  0.00  0.00    +0.044 C 
ENDBRANCH   4   8
BRANCH   3  15
ATOM     15  C   UNL     1      -1.497  -1.838   0.006  0.00  0.00    +0.342 C 
ATOM     16  O   UNL     1      -0.522  -2.566  -0.007  0.00  0.00    -0.245 OA
BRANCH  15  17
ATOM     17  O   UNL     1      -1.339  -0.499   0.012  0.00  0.00    -0.461 OA
BRANCH  17  19
ATOM     18  C   UNL     1      -0.019   1.526   0.010  0.00  0.00    +0.048 C 
ATOM     19  C   UNL     1       0.002  -0.004   0.002  0.00  0.00    +0.229 C 
ENDBRANCH  17  19
ENDBRANCH  15  17
ENDBRANCH   3  15
ENDBRANCH   1   7
BRANCH   1  20
ATOM     20  C   UNL     1      -3.820  -2.872   3.539  0.00  0.00    +0.141 C 
ATOM     21  S   UNL     1      -5.374  -3.536   3.267  0.00  0.00    -0.018 S 
BRANCH  20  22
ATOM     22  N   UNL     1      -3.374  -2.693   4.799  0.00  0.00    -0.265 N 
ATOM     23  C   UNL     1      -4.152  -3.038   5.844  0.00  0.00    +0.256 C 
ATOM     24  O   UNL     1      -5.253  -3.508   5.651  0.00  0.00    -0.272 OA
ATOM     25  H   UNL     1      -2.494  -2.316   4.953  0.00  0.00    +0.157 HD
BRANCH  23  26
ATOM     26  C   UNL     1      -3.654  -2.838   7.252  0.00  0.00    +0.325 C 
BRANCH  26  27
ATOM     27  O   UNL     1      -4.652  -3.276   8.177  0.00  0.00    -0.482 OA
BRANCH  27  28
ATOM     28  C   UNL     1      -4.359  -3.163   9.499  0.00  0.00    +0.125 A 
ATOM     29  C   UNL     1      -3.139  -2.637   9.899  0.00  0.00    +0.046 A 
ATOM     30  C   UNL     1      -2.844  -2.523  11.243  0.00  0.00    +0.004 A 
ATOM     31  C   UNL     1      -3.764  -2.934  12.191  0.00  0.00    +0.001 A 
ATOM     32  C   UNL     1      -4.980  -3.459  11.796  0.00  0.00    +0.007 A 
ATOM     33  C   UNL     1      -5.282  -3.569  10.452  0.00  0.00    -0.003 A 
BRANCH  33  34
ATOM     34  C   UNL     1      -6.611  -4.136  10.021  0.00  0.00    +0.016 C 
ATOM     35  C   UNL     1      -6.754  -5.562  10.556  0.00  0.00    +0.012 C 
ATOM     36  C   UNL     1      -7.740  -3.267  10.578  0.00  0.00    +0.012 C 
ENDBRANCH  33  34
ENDBRANCH  27  28
ENDBRANCH  26  27
ENDBRANCH  23  26
ENDBRANCH  20  22
ENDBRANCH   1  20
TORSDOF 11
