REMARK  Name = ZINC35571885
REMARK  6 active torsions:
REMARK  status: ('A' for Active; 'I' for Inactive)
REMARK    1  A    between atoms: C_1  and  C_2
REMARK    2  A    between atoms: C_2  and  N_3
REMARK    3  A    between atoms: N_3  and  C_4
REMARK    4  A    between atoms: C_4  and  C_6
REMARK    5  A    between atoms: C_4  and  C_17
REMARK    6  A    between atoms: C_18  and  C_22
REMARK                            x       y       z     vdW  Elec       q    Type
REMARK                         _______ _______ _______ _____ _____    ______ ____
ROOT
ATOM      1  C   UNL     1      -1.357  -2.006  -0.015  0.00  0.00    -0.002 C 
ENDROOT
BRANCH   1   2
ATOM      2  C   UNL     1      -2.214  -3.107  -0.585  0.00  0.00    -0.038 A 
ATOM      3  C   UNL     1      -3.572  -3.135  -0.322  0.00  0.00    +0.009 A 
ATOM      4  C   UNL     1      -4.353  -4.141  -0.844  0.00  0.00    -0.017 A 
ATOM      5  C   UNL     1      -3.794  -5.136  -1.637  0.00  0.00    +0.038 A 
ATOM      6  C   UNL     1      -2.426  -5.103  -1.898  0.00  0.00    +0.043 A 
ATOM      7  C   UNL     1      -1.646  -4.088  -1.378  0.00  0.00    +0.045 A 
ATOM      8 CL   UNL     1       0.057  -4.049  -1.714  0.00  0.00    -0.083 Cl
ATOM      9  N   UNL     1      -4.778  -6.037  -2.045  0.00  0.00    -0.285 N 
ATOM     10  C   UNL     1      -5.993  -5.712  -1.572  0.00  0.00    +0.222 C 
ATOM     11  O   UNL     1      -7.027  -6.315  -1.768  0.00  0.00    -0.275 OA
ATOM     12  C   UNL     1      -5.829  -4.452  -0.749  0.00  0.00    +0.133 C 
ATOM     13  H   UNL     1      -4.606  -6.809  -2.607  0.00  0.00    +0.155 HD
ENDBRANCH   1   2
BRANCH   1  14
ATOM     14  C   UNL     1      -0.769  -2.456   1.298  0.00  0.00    -0.017 A 
ATOM     15  C   UNL     1       0.532  -2.622   1.640  0.00  0.00    -0.042 A 
ATOM     16  C   UNL     1       0.841  -3.047   2.918  0.00  0.00    +0.011 A 
ATOM     17  C   UNL     1      -0.167  -3.287   3.792  0.00  0.00    +0.045 A 
ATOM     18  S   UNL     1      -1.607  -2.902   2.811  0.00  0.00    -0.103 S 
ATOM     19  C   UNL     1       1.625  -2.346   0.640  0.00  0.00    +0.044 C 
ENDBRANCH   1  14
BRANCH   1  20
ATOM     20  N   UNL     1      -2.178  -0.807   0.201  0.00  0.00    +0.386 N 
ATOM     21  H   UNL     1      -2.872  -0.998   0.908  0.00  0.00    -0.085 HD
ATOM     22  H   UNL     1      -2.636  -0.554  -0.661  0.00  0.00    -0.085 HD
BRANCH  20  24
ATOM     23  C   UNL     1      -2.176   1.549   0.868  0.00  0.00    -0.017 C 
ATOM     24  C   UNL     1      -1.320   0.300   0.643  0.00  0.00    -0.085 C 
ENDBRANCH  20  24
ENDBRANCH   1  20
TORSDOF 4
