REMARK  Name = ZINC39543023
REMARK  6 active torsions:
REMARK  status: ('A' for Active; 'I' for Inactive)
REMARK    1  A    between atoms: C_1  and  N_2
REMARK    2  A    between atoms: N_2  and  C_3
REMARK    3  A    between atoms: C_8  and  O_9
REMARK    4  A    between atoms: C_10  and  C_12
REMARK    5  A    between atoms: C_15  and  O_26
REMARK    6  A    between atoms: O_26  and  C_27
REMARK                            x       y       z     vdW  Elec       q    Type
REMARK                         _______ _______ _______ _____ _____    ______ ____
ROOT
ATOM      1  C   UNL     1       0.014   0.154  -2.508  0.00  0.00    +0.152 C 
ATOM      2  C   UNL     1      -1.328   0.906  -2.592  0.00  0.00    +0.107 C 
ATOM      3  C   UNL     1      -1.957   0.398  -3.869  0.00  0.00    +0.134 C 
ATOM      4  C   UNL     1      -1.161  -0.483  -4.426  0.00  0.00    +0.113 C 
ATOM      5  N   UNL     1      -1.385  -1.152  -5.654  0.00  0.00    -0.301 N 
ATOM      6  C   UNL     1      -0.232  -1.370  -6.426  0.00  0.00    +0.037 A 
ATOM      7  C   UNL     1      -0.346  -1.914  -7.697  0.00  0.00    +0.023 A 
ATOM      8  C   UNL     1       0.788  -2.137  -8.453  0.00  0.00    +0.002 A 
ATOM      9  C   UNL     1       2.031  -1.817  -7.938  0.00  0.00    +0.000 A 
ATOM     10  C   UNL     1       2.144  -1.271  -6.674  0.00  0.00    +0.007 A 
ATOM     11  C   UNL     1       1.013  -1.038  -5.910  0.00  0.00    -0.010 A 
ATOM     12  C   UNL     1       1.168  -0.417  -4.547  0.00  0.00    +0.124 C 
ATOM     13  N   UNL     1       0.016  -0.716  -3.695  0.00  0.00    -0.367 NA
ATOM     14  H   UNL     1      -2.267  -1.438  -5.939  0.00  0.00    +0.153 HD
ATOM     15  H   UNL     1       0.052  -1.683  -3.408  0.00  0.00    +0.129 HD
ENDROOT
BRANCH   1  18
ATOM     16  C   UNL     1      -0.045   1.394   0.039  0.00  0.00    +0.138 C 
ATOM     17  N   UNL     1       0.050  -0.065  -0.045  0.00  0.00    -0.270 N 
ATOM     18  C   UNL     1       0.080  -0.670  -1.249  0.00  0.00    +0.239 C 
ATOM     19  O   UNL     1       0.158  -1.879  -1.318  0.00  0.00    -0.273 OA
BRANCH  17  20
ATOM     20  C   UNL     1       0.111  -0.832   1.126  0.00  0.00    +0.078 A 
ATOM     21  C   UNL     1      -1.057  -1.296   1.715  0.00  0.00    +0.027 A 
ATOM     22  C   UNL     1      -0.994  -2.052   2.870  0.00  0.00    +0.002 A 
ATOM     23  C   UNL     1       0.230  -2.348   3.442  0.00  0.00    +0.004 A 
ATOM     24  C   UNL     1       1.397  -1.888   2.861  0.00  0.00    +0.047 A 
ATOM     25  C   UNL     1       1.343  -1.135   1.700  0.00  0.00    +0.138 A 
BRANCH  25  26
ATOM     26  O   UNL     1       2.491  -0.688   1.124  0.00  0.00    -0.505 OA
ATOM     27  H   UNL     1       2.779   0.179   1.442  0.00  0.00    +0.292 HD
ENDBRANCH  25  26
ENDBRANCH  17  20
ENDBRANCH   1  18
BRANCH   3  28
ATOM     28  O   UNL     1      -3.162   0.792  -4.364  0.00  0.00    -0.496 OA
ATOM     29  C   UNL     1      -3.564   0.231  -5.615  0.00  0.00    +0.276 C 
ENDBRANCH   3  28
TORSDOF 4
