REMARK  Name = ZINC31168771
REMARK  16 active torsions:
REMARK  status: ('A' for Active; 'I' for Inactive)
REMARK    1  A    between atoms: C_1  and  C_2
REMARK    2  A    between atoms: C_2  and  C_4
REMARK    3  A    between atoms: C_2  and  O_20
REMARK    4  A    between atoms: C_4  and  C_5
REMARK    5  A    between atoms: C_5  and  C_7
REMARK    6  A    between atoms: C_5  and  O_8
REMARK    7  A    between atoms: O_8  and  C_9
REMARK    8  A    between atoms: C_9  and  C_11
REMARK    9  A    between atoms: C_12  and  C_13
REMARK   10  A    between atoms: C_16  and  O_19
REMARK   11  A    between atoms: O_20  and  C_21
REMARK   12  A    between atoms: C_23  and  O_36
REMARK   13  A    between atoms: C_25  and  O_35
REMARK   14  A    between atoms: C_27  and  O_34
REMARK   15  A    between atoms: C_29  and  C_32
REMARK   16  A    between atoms: C_32  and  O_33
REMARK                            x       y       z     vdW  Elec       q    Type
REMARK                         _______ _______ _______ _____ _____    ______ ____
ROOT
ATOM      1  C   UNL     1      -0.019   1.526   0.010  0.00  0.00    +0.038 C 
ATOM      2  C   UNL     1       0.002  -0.004   0.002  0.00  0.00    +0.122 C 
ENDROOT
BRANCH   2   3
ATOM      3  C   UNL     1       0.742  -0.511   1.242  0.00  0.00    +0.075 C 
BRANCH   3   4
ATOM      4  C   UNL     1       0.655  -2.037   1.299  0.00  0.00    +0.176 C 
ATOM      5  C   UNL     1       1.499  -2.553   2.467  0.00  0.00    +0.052 C 
BRANCH   4   6
ATOM      6  O   UNL     1      -0.706  -2.431   1.484  0.00  0.00    -0.458 OA
BRANCH   6   7
ATOM      7  C   UNL     1      -1.077  -3.618   0.961  0.00  0.00    +0.332 C 
ATOM      8  O   UNL     1      -0.266  -4.300   0.363  0.00  0.00    -0.246 OA
BRANCH   7   9
ATOM      9  C   UNL     1      -2.413  -4.070   1.107  0.00  0.00    +0.092 C 
ATOM     10  C   UNL     1      -2.785  -5.259   0.583  0.00  0.00    +0.015 C 
BRANCH  10  11
ATOM     11  C   UNL     1      -4.169  -5.728   0.735  0.00  0.00    -0.025 A 
ATOM     12  C   UNL     1      -5.106  -4.942   1.417  0.00  0.00    +0.011 A 
ATOM     13  C   UNL     1      -6.402  -5.386   1.556  0.00  0.00    +0.046 A 
ATOM     14  C   UNL     1      -6.780  -6.612   1.022  0.00  0.00    +0.117 A 
ATOM     15  C   UNL     1      -5.853  -7.396   0.344  0.00  0.00    +0.046 A 
ATOM     16  C   UNL     1      -4.557  -6.959   0.193  0.00  0.00    +0.011 A 
BRANCH  14  17
ATOM     17  O   UNL     1      -8.059  -7.046   1.162  0.00  0.00    -0.507 OA
ATOM     18  H   UNL     1      -8.647  -6.774   0.445  0.00  0.00    +0.292 HD
ENDBRANCH  14  17
ENDBRANCH  10  11
ENDBRANCH   7   9
ENDBRANCH   6   7
ENDBRANCH   4   6
ENDBRANCH   3   4
ENDBRANCH   2   3
BRANCH   2  19
ATOM     19  O   UNL     1       0.671  -0.465  -1.174  0.00  0.00    -0.346 OA
BRANCH  19  20
ATOM     20  C   UNL     1      -0.194  -0.664  -2.294  0.00  0.00    +0.282 C 
ATOM     21  C   UNL     1       0.640  -1.035  -3.523  0.00  0.00    +0.201 C 
ATOM     22  C   UNL     1      -0.297  -1.306  -4.704  0.00  0.00    +0.179 C 
ATOM     23  C   UNL     1      -1.284  -2.412  -4.315  0.00  0.00    +0.177 C 
ATOM     24  C   UNL     1      -2.043  -1.987  -3.056  0.00  0.00    +0.178 C 
ATOM     25  O   UNL     1      -1.111  -1.721  -2.006  0.00  0.00    -0.341 OA
BRANCH  23  26
ATOM     26  O   UNL     1      -2.208  -2.623  -5.384  0.00  0.00    -0.386 OA
ATOM     27  H   UNL     1      -1.794  -2.891  -6.215  0.00  0.00    +0.210 HD
ENDBRANCH  23  26
BRANCH  22  28
ATOM     28  O   UNL     1       0.469  -1.722  -5.836  0.00  0.00    -0.386 OA
ATOM     29  H   UNL     1       1.119  -1.071  -6.132  0.00  0.00    +0.210 HD
ENDBRANCH  22  28
BRANCH  21  30
ATOM     30  O   UNL     1       1.519   0.044  -3.847  0.00  0.00    -0.384 OA
ATOM     31  H   UNL     1       2.139   0.272  -3.141  0.00  0.00    +0.210 HD
ENDBRANCH  21  30
BRANCH  24  32
ATOM     32  C   UNL     1      -2.988  -3.112  -2.627  0.00  0.00    +0.190 C 
BRANCH  32  33
ATOM     33  O   UNL     1      -3.780  -2.673  -1.522  0.00  0.00    -0.392 OA
ATOM     34  H   UNL     1      -4.404  -3.336  -1.196  0.00  0.00    +0.210 HD
ENDBRANCH  32  33
ENDBRANCH  24  32
ENDBRANCH  19  20
ENDBRANCH   2  19
TORSDOF 14
