REMARK  Name = ZINC39305653
REMARK  9 active torsions:
REMARK  status: ('A' for Active; 'I' for Inactive)
REMARK    1  A    between atoms: C_1  and  C_2
REMARK    2  A    between atoms: C_2  and  N_3
REMARK    3  A    between atoms: C_5  and  C_10
REMARK    4  A    between atoms: C_6  and  C_9
REMARK    5  A    between atoms: C_10  and  C_12
REMARK    6  A    between atoms: C_10  and  N_13
REMARK    7  A    between atoms: N_13  and  C_14
REMARK    8  A    between atoms: C_14  and  C_15
REMARK    9  A    between atoms: C_17  and  C_21
REMARK                            x       y       z     vdW  Elec       q    Type
REMARK                         _______ _______ _______ _____ _____    ______ ____
ROOT
ATOM      1  N   UNL     1       3.903  -2.732   3.521  0.00  0.00    +0.387 N 
ATOM      2  H   UNL     1       3.337  -2.739   4.356  0.00  0.00    -0.085 HD
ATOM      3  H   UNL     1       3.541  -3.406   2.863  0.00  0.00    -0.085 HD
ENDROOT
BRANCH   1   4
ATOM      4  C   UNL     1       3.869  -1.393   2.917  0.00  0.00    -0.045 C 
ATOM      5  C   UNL     1       4.300  -0.355   3.955  0.00  0.00    -0.009 C 
BRANCH   4   8
ATOM      6  N   UNL     1       0.270  -1.250   2.096  0.00  0.00    -0.274 N 
ATOM      7  C   UNL     1       1.395  -1.821   2.658  0.00  0.00    +0.087 C 
ATOM      8  C   UNL     1       2.469  -1.087   2.452  0.00  0.00    -0.051 C 
ATOM      9  C   UNL     1       2.026   0.124   1.658  0.00  0.00    +0.095 C 
ATOM     10  N   UNL     1       0.575  -0.076   1.470  0.00  0.00    -0.234 NA
ATOM     11  C   UNL     1       2.739   0.166   0.305  0.00  0.00    +0.030 C 
ATOM     12  H   UNL     1       0.338  -0.116   0.490  0.00  0.00    +0.145 HD
BRANCH   6  14
ATOM     13  C   UNL     1      -1.243  -2.847   1.026  0.00  0.00    +0.026 C 
ATOM     14  C   UNL     1      -1.074  -1.831   2.158  0.00  0.00    +0.120 C 
ENDBRANCH   6  14
ENDBRANCH   4   8
ENDBRANCH   1   4
BRANCH   1  15
ATOM     15  C   UNL     1       5.288  -3.079   3.865  0.00  0.00    -0.024 C 
BRANCH  15  16
ATOM     16  C   UNL     1       5.323  -4.452   4.484  0.00  0.00    +0.047 A 
ATOM     17  C   UNL     1       5.579  -5.644   3.807  0.00  0.00    +0.050 A 
ATOM     18  C   UNL     1       5.522  -6.663   4.715  0.00  0.00    +0.066 A 
ATOM     19  N   UNL     1       5.236  -6.110   5.928  0.00  0.00    -0.277 N 
ATOM     20  N   UNL     1       5.123  -4.726   5.749  0.00  0.00    -0.180 NA
ATOM     21  H   UNL     1       5.133  -6.589   6.765  0.00  0.00    +0.189 HD
BRANCH  18  22
ATOM     22  C   UNL     1       5.732  -8.101   4.435  0.00  0.00    -0.000 A 
ATOM     23  C   UNL     1       6.025  -8.526   3.139  0.00  0.00    +0.013 A 
ATOM     24  C   UNL     1       6.220  -9.867   2.882  0.00  0.00    +0.039 A 
ATOM     25  C   UNL     1       6.125 -10.792   3.910  0.00  0.00    +0.123 A 
ATOM     26  C   UNL     1       5.834 -10.375   5.199  0.00  0.00    +0.039 A 
ATOM     27  C   UNL     1       5.642  -9.036   5.466  0.00  0.00    +0.013 A 
ATOM     28  F   UNL     1       6.316 -12.105   3.654  0.00  0.00    -0.205 F 
ENDBRANCH  18  22
ENDBRANCH  15  16
ENDBRANCH   1  15
TORSDOF 6
