REMARK  Name = ZINC19840893
REMARK  10 active torsions:
REMARK  status: ('A' for Active; 'I' for Inactive)
REMARK    1  A    between atoms: C_1  and  C_2
REMARK    2  A    between atoms: C_2  and  O_3
REMARK    3  A    between atoms: O_3  and  C_4
REMARK    4  A    between atoms: C_7  and  C_10
REMARK    5  A    between atoms: C_10  and  C_12
REMARK    6  A    between atoms: C_10  and  N_13
REMARK    7  A    between atoms: N_13  and  C_14
REMARK    8  A    between atoms: C_14  and  C_15
REMARK    9  A    between atoms: C_15  and  N_17
REMARK   10  A    between atoms: C_20  and  C_23
REMARK                            x       y       z     vdW  Elec       q    Type
REMARK                         _______ _______ _______ _____ _____    ______ ____
ROOT
ATOM      1  C   UNL     1       0.668  -8.191  -4.865  0.00  0.00    +0.221 C 
ATOM      2  O   UNL     1       0.528  -7.308  -5.689  0.00  0.00    -0.276 OA
ENDROOT
BRANCH   1   3
ATOM      3  N   UNL     1       0.627  -9.463  -5.241  0.00  0.00    -0.158 NA
ATOM      4  C   UNL     1       0.431  -9.773  -6.524  0.00  0.00    +0.163 A 
ATOM      5  N   UNL     1       0.354 -11.007  -7.090  0.00  0.00    -0.335 N 
ATOM      6  C   UNL     1       0.147 -11.103  -8.437  0.00  0.00    +0.055 A 
ATOM      7  C   UNL     1       0.032  -9.942  -9.120  0.00  0.00    +0.074 A 
ATOM      8  S   UNL     1       0.214  -8.731  -7.825  0.00  0.00    -0.060 S 
ATOM      9  H   UNL     1       0.445 -11.805  -6.546  0.00  0.00    +0.168 HD
BRANCH   6  10
ATOM     10  C   UNL     1       0.054 -12.414  -9.116  0.00  0.00    -0.001 A 
ATOM     11  C   UNL     1       0.172 -13.594  -8.379  0.00  0.00    +0.011 A 
ATOM     12  C   UNL     1       0.084 -14.813  -9.018  0.00  0.00    +0.016 A 
ATOM     13  C   UNL     1      -0.122 -14.869 -10.386  0.00  0.00    +0.018 A 
ATOM     14  C   UNL     1      -0.240 -13.702 -11.121  0.00  0.00    +0.016 A 
ATOM     15  C   UNL     1      -0.158 -12.476 -10.493  0.00  0.00    +0.011 A 
ATOM     16 BR   UNL     1      -0.241 -16.545 -11.253  0.00  0.00    -0.050 Br
ENDBRANCH   6  10
ENDBRANCH   1   3
BRANCH   1  17
ATOM     17  C   UNL     1       0.889  -7.841  -3.416  0.00  0.00    +0.018 C 
BRANCH  17  18
ATOM     18  N   UNL     1       0.894  -6.381  -3.260  0.00  0.00    +0.389 N 
ATOM     19  H   UNL     1       0.007  -6.007  -3.565  0.00  0.00    -0.084 HD
ATOM     20  H   UNL     1       1.635  -5.985  -3.818  0.00  0.00    -0.084 HD
BRANCH  18  21
ATOM     21  C   UNL     1       1.109  -6.040  -1.847  0.00  0.00    -0.043 C 
ATOM     22  C   UNL     1       2.505  -6.497  -1.419  0.00  0.00    -0.009 C 
BRANCH  21  26
ATOM     23  C   UNL     1       0.777  -1.810  -1.336  0.00  0.00    +0.121 A 
ATOM     24  C   UNL     1       0.243  -2.669  -0.386  0.00  0.00    +0.046 A 
ATOM     25  C   UNL     1       0.351  -4.036  -0.554  0.00  0.00    +0.005 A 
ATOM     26  C   UNL     1       0.992  -4.548  -1.667  0.00  0.00    -0.061 A 
ATOM     27  C   UNL     1       1.525  -3.694  -2.615  0.00  0.00    +0.005 A 
ATOM     28  C   UNL     1       1.414  -2.327  -2.455  0.00  0.00    +0.046 A 
BRANCH  23  29
ATOM     29  O   UNL     1       0.671  -0.465  -1.174  0.00  0.00    -0.492 OA
BRANCH  29  31
ATOM     30  C   UNL     1      -0.019   1.526   0.010  0.00  0.00    +0.048 C 
ATOM     31  C   UNL     1       0.002  -0.004   0.002  0.00  0.00    +0.225 C 
ENDBRANCH  29  31
ENDBRANCH  23  29
ENDBRANCH  21  26
ENDBRANCH  18  21
ENDBRANCH  17  18
ENDBRANCH   1  17
TORSDOF 8
