REMARK  Name = ZINC06227187
REMARK  4 active torsions:
REMARK  status: ('A' for Active; 'I' for Inactive)
REMARK    1  A    between atoms: C_4  and  C_28
REMARK    2  A    between atoms: C_5  and  C_7
REMARK    3  A    between atoms: C_9  and  C_26
REMARK    4  A    between atoms: C_10  and  N_25
REMARK                            x       y       z     vdW  Elec       q    Type
REMARK                         _______ _______ _______ _____ _____    ______ ____
ROOT
ATOM      1  C   UNL     1       1.238  -2.211  -0.080  0.00  0.00    +0.098 C 
ATOM      2  C   UNL     1       0.546  -2.796  -1.276  0.00  0.00    +0.077 C 
ATOM      3  C   UNL     1      -0.728  -3.258  -1.194  0.00  0.00    +0.109 C 
ATOM      4  N   UNL     1      -1.407  -3.202   0.004  0.00  0.00    -0.229 N 
ATOM      5  C   UNL     1      -0.723  -3.072   1.186  0.00  0.00    +0.027 C 
ATOM      6  C   UNL     1       0.541  -2.603   1.198  0.00  0.00    +0.025 C 
ATOM      7  C   UNL     1       1.249  -2.464   2.406  0.00  0.00    +0.162 C 
ATOM      8  O   UNL     1       2.392  -2.053   2.384  0.00  0.00    -0.292 OA
ATOM      9  C   UNL     1       0.616  -2.814   3.725  0.00  0.00    +0.080 C 
ATOM     10  C   UNL     1      -0.900  -2.615   3.619  0.00  0.00    +0.014 C 
ATOM     11  C   UNL     1      -1.418  -3.470   2.464  0.00  0.00    +0.052 C 
ATOM     12  C   UNL     1      -2.794  -3.279   0.015  0.00  0.00    +0.223 A 
ATOM     13  H   UNL     1      -3.401  -1.415   0.715  0.00  0.00    +0.192 HD
ATOM     14  N   UNL     1      -3.515  -4.319  -0.341  0.00  0.00    -0.201 NA
ATOM     15  C   UNL     1      -4.811  -4.037  -0.203  0.00  0.00    +0.246 A 
ATOM     16  N   UNL     1      -4.937  -2.816   0.242  0.00  0.00    -0.160 NA
ATOM     17  N   UNL     1      -3.641  -2.300   0.398  0.00  0.00    -0.246 N 
ENDROOT
BRANCH   1  22
ATOM     18  C   UNL     1       0.052   1.362  -0.366  0.00  0.00    +0.000 A 
ATOM     19  C   UNL     1       1.251   2.047  -0.419  0.00  0.00    +0.001 A 
ATOM     20  C   UNL     1       2.446   1.355  -0.362  0.00  0.00    +0.012 A 
ATOM     21  C   UNL     1       2.442  -0.024  -0.252  0.00  0.00    +0.059 A 
ATOM     22  C   UNL     1       1.242  -0.709  -0.199  0.00  0.00    -0.023 A 
ATOM     23  C   UNL     1       0.047  -0.016  -0.257  0.00  0.00    +0.005 A 
BRANCH  21  24
ATOM     24  C   UNL     1       3.744  -0.779  -0.192  0.00  0.00    +0.418 C 
ATOM     25  F   UNL     1       4.811   0.124  -0.263  0.00  0.00    -0.166 F 
ATOM     26  F   UNL     1       3.815  -1.490   1.011  0.00  0.00    -0.166 F 
ATOM     27  F   UNL     1       3.817  -1.672  -1.266  0.00  0.00    -0.166 F 
ENDBRANCH  21  24
ENDBRANCH   1  22
BRANCH   3  28
ATOM     28  N   UNL     1      -1.342  -3.780  -2.307  0.00  0.00    -0.345 N 
ATOM     29  H   UNL     1      -0.899  -3.738  -3.169  0.00  0.00    +0.144 HD
ATOM     30  H   UNL     1      -2.217  -4.191  -2.231  0.00  0.00    +0.144 HD
ENDBRANCH   3  28
BRANCH   2  31
ATOM     31  C   UNL     1       1.242  -2.869  -2.525  0.00  0.00    +0.099 C 
ATOM     32  N   UNL     1       1.794  -2.927  -3.516  0.00  0.00    -0.191 NA
ENDBRANCH   2  31
TORSDOF 4
