REMARK  Name = ZINC43698762
REMARK  11 active torsions:
REMARK  status: ('A' for Active; 'I' for Inactive)
REMARK    1  A    between atoms: C_1  and  C_2
REMARK    2  A    between atoms: C_2  and  C_3
REMARK    3  A    between atoms: C_2  and  C_4
REMARK    4  A    between atoms: C_4  and  N_5
REMARK    5  A    between atoms: N_5  and  C_6
REMARK    6  A    between atoms: N_5  and  C_16
REMARK    7  A    between atoms: C_6  and  C_7
REMARK    8  A    between atoms: C_9  and  C_12
REMARK    9  A    between atoms: C_13  and  C_14
REMARK   10  A    between atoms: C_14  and  O_15
REMARK   11  A    between atoms: C_16  and  C_17
REMARK                            x       y       z     vdW  Elec       q    Type
REMARK                         _______ _______ _______ _____ _____    ______ ____
ROOT
ATOM      1  N   UNL     1       2.397  -0.086  -1.236  0.00  0.00    +0.389 N 
ATOM      2  H   UNL     1       2.436   0.920  -1.300  0.00  0.00    -0.081 HD
ENDROOT
BRANCH   1   3
ATOM      3  C   UNL     1       0.994  -0.519  -1.188  0.00  0.00    -0.075 C 
BRANCH   3   5
ATOM      4  C   UNL     1       0.230   1.697  -0.322  0.00  0.00    +0.005 C 
ATOM      5  C   UNL     1       0.279   0.194  -0.038  0.00  0.00    -0.034 C 
ATOM      6  C   UNL     1      -1.146  -0.348   0.091  0.00  0.00    +0.005 C 
ENDBRANCH   3   5
ENDBRANCH   1   3
BRANCH   1   7
ATOM      7  C   UNL     1       3.052  -0.677  -2.410  0.00  0.00    -0.035 C 
BRANCH   7   8
ATOM      8  C   UNL     1       2.431  -0.120  -3.665  0.00  0.00    -0.026 A 
ATOM      9  C   UNL     1       2.718   1.030  -4.315  0.00  0.00    +0.026 A 
ATOM     10  C   UNL     1       2.010   1.348  -5.471  0.00  0.00    +0.032 A 
ATOM     11  C   UNL     1       1.046   0.478  -5.905  0.00  0.00    +0.062 A 
ATOM     12  S   UNL     1       1.135  -0.814  -4.677  0.00  0.00    -0.102 S 
BRANCH  10  13
ATOM     13  C   UNL     1       2.282   2.557  -6.189  0.00  0.00    -0.063 C 
ATOM     14  C   UNL     1       2.506   3.548  -6.777  0.00  0.00    -0.069 C 
BRANCH  14  15
ATOM     15  C   UNL     1       2.786   4.791  -7.515  0.00  0.00    +0.244 C 
BRANCH  15  16
ATOM     16  O   UNL     1       1.926   4.873  -8.654  0.00  0.00    -0.383 OA
ATOM     17  H   UNL     1       2.056   5.669  -9.188  0.00  0.00    +0.211 HD
ENDBRANCH  15  16
ENDBRANCH  14  15
ENDBRANCH  10  13
ENDBRANCH   7   8
ENDBRANCH   1   7
BRANCH   1  18
ATOM     18  C   UNL     1       3.087  -0.526  -0.017  0.00  0.00    +0.019 C 
BRANCH  18  19
ATOM     19  C   UNL     1       4.476   0.058   0.013  0.00  0.00    +0.194 C 
ATOM     20  O   UNL     1       4.819   0.851  -0.838  0.00  0.00    -0.278 OA
ATOM     21  N   UNL     1       5.338  -0.302   0.985  0.00  0.00    -0.331 N 
ATOM     22  H   UNL     1       5.064  -0.937   1.665  0.00  0.00    +0.145 HD
ATOM     23  H   UNL     1       6.232   0.074   1.004  0.00  0.00    +0.145 HD
ENDBRANCH  18  19
ENDBRANCH   1  18
TORSDOF 9
