REMARK  Name = ZINC44747063
REMARK  6 active torsions:
REMARK  status: ('A' for Active; 'I' for Inactive)
REMARK    1  A    between atoms: CB_1  and  CA_2
REMARK    2  A    between atoms: CA_2  and  C_4
REMARK    3  A    between atoms: CA_2  and  N_6
REMARK    4  A    between atoms: C_4  and  O_5
REMARK    5  A    between atoms: N_6  and  C_7
REMARK    6  A    between atoms: C_16  and  O_18
REMARK                            x       y       z     vdW  Elec       q    Type
REMARK                         _______ _______ _______ _____ _____    ______ ____
ROOT
ATOM      1  C   UNK A   0      -0.180  -0.207  -2.487  0.00  0.00    -0.040 C 
ATOM      2  C   UNK A   0       0.316  -1.012  -3.686  0.00  0.00    -0.011 C 
ATOM      3  C   UNK A   0      -0.439  -0.538  -4.933  0.00  0.00    +0.003 C 
ATOM      4  C   UNK A   0       0.037   0.872  -5.276  0.00  0.00    +0.035 C 
ATOM      5  C   UNK A   0      -0.036   1.765  -4.065  0.00  0.00    -0.042 A 
ATOM      6  C   UNK A   0      -0.131   1.269  -2.784  0.00  0.00    -0.058 A 
ATOM      7  C   UNK A   0      -0.186   2.146  -1.708  0.00  0.00    +0.006 A 
ATOM      8  C   UNK A   0      -0.150   3.509  -1.911  0.00  0.00    +0.045 A 
ATOM      9  C   UNK A   0      -0.058   4.011  -3.201  0.00  0.00    +0.117 A 
ATOM     10  C   UNK A   0      -0.002   3.137  -4.272  0.00  0.00    +0.049 A 
ENDROOT
BRANCH   1  11
ATOM     11  N   ALA A   1       0.670  -0.496  -1.324  0.00  0.00    +0.387 N 
ATOM     12  H1  ALA A   1       0.394   0.091  -0.552  0.00  0.00    -0.085 HD
ATOM     13  H2  ALA A   1       1.634  -0.313  -1.559  0.00  0.00    -0.085 HD
BRANCH  11  15
ATOM     14  CB  ALA A   1      -0.912  -2.153  -0.459  0.00  0.00    -0.011 C 
ATOM     15  CA  ALA A   1       0.518  -1.907  -0.945  0.00  0.00    -0.048 C 
BRANCH  15  16
ATOM     16  C   ALA A   1       1.503  -2.243   0.176  0.00  0.00    +0.140 C 
BRANCH  16  17
ATOM     17  O   ALA A   1       1.163  -1.498   1.347  0.00  0.00    -0.397 OA
ATOM     18  H   ALA A   1       1.748  -1.662   2.100  0.00  0.00    +0.209 HD
ENDBRANCH  16  17
ENDBRANCH  15  16
ENDBRANCH  11  15
ENDBRANCH   1  11
BRANCH   9  19
ATOM     19  O   UNK A   0      -0.024   5.353  -3.412  0.00  0.00    -0.507 OA
ATOM     20  H   UNK A   0       0.867   5.728  -3.415  0.00  0.00    +0.292 HD
ENDBRANCH   9  19
TORSDOF 5
