REMARK  Name = ZINC39531985
REMARK  8 active torsions:
REMARK  status: ('A' for Active; 'I' for Inactive)
REMARK    1  A    between atoms: C_1  and  C_2
REMARK    2  A    between atoms: C_5  and  C_8
REMARK    3  A    between atoms: C_8  and  C_10
REMARK    4  A    between atoms: C_8  and  N_13
REMARK    5  A    between atoms: C_10  and  N_11
REMARK    6  A    between atoms: C_17  and  S_20
REMARK    7  A    between atoms: S_20  and  O_23
REMARK    8  A    between atoms: O_23  and  C_24
REMARK                            x       y       z     vdW  Elec       q    Type
REMARK                         _______ _______ _______ _____ _____    ______ ____
ROOT
ATOM      1  N   UNL     1      -0.718  -4.768   1.123  0.00  0.00    -0.296 NA
ATOM      2  C   UNL     1      -0.199  -4.223   2.386  0.00  0.00    +0.066 C 
ATOM      3  C   UNL     1      -1.070  -4.711   3.545  0.00  0.00    -0.064 C 
ATOM      4  N   UNL     1      -1.058  -6.180   3.583  0.00  0.00    +0.398 N 
ATOM      5  C   UNL     1      -1.603  -6.708   2.325  0.00  0.00    +0.130 C 
ATOM      6  C   UNL     1      -0.735  -6.237   1.156  0.00  0.00    +0.095 C 
ATOM      7  H   UNL     1      -0.111  -6.505   3.702  0.00  0.00    -0.083 HD
ATOM      8  H   UNL     1      -1.623  -6.501   4.355  0.00  0.00    -0.083 HD
ENDROOT
BRANCH   5   9
ATOM      9  S   UNL     1      -1.607  -8.521   2.383  0.00  0.00    +0.109 S 
ATOM     10  O   UNL     1      -2.292  -9.045   1.253  0.00  0.00    -0.138 OA
ATOM     11  O   UNL     1      -0.317  -9.003   2.735  0.00  0.00    -0.138 OA
BRANCH   9  12
ATOM     12  O   UNL     1      -2.491  -8.873   3.571  0.00  0.00    -0.347 OA
BRANCH  12  13
ATOM     13  C   UNL     1      -3.820  -8.709   3.339  0.00  0.00    +0.156 A 
ATOM     14  C   UNL     1      -4.426  -7.489   3.604  0.00  0.00    +0.048 A 
ATOM     15  C   UNL     1      -5.777  -7.325   3.367  0.00  0.00    +0.004 A 
ATOM     16  C   UNL     1      -6.525  -8.374   2.866  0.00  0.00    +0.000 A 
ATOM     17  C   UNL     1      -5.923  -9.590   2.601  0.00  0.00    +0.004 A 
ATOM     18  C   UNL     1      -4.571  -9.758   2.831  0.00  0.00    +0.048 A 
ENDBRANCH  12  13
ENDBRANCH   9  12
ENDBRANCH   5   9
BRANCH   1  19
ATOM     19  C   UNL     1       0.059  -4.275  -0.021  0.00  0.00    +0.101 C 
BRANCH  19  24
ATOM     20  C   UNL     1      -1.415   1.199  -1.141  0.00  0.00    +0.044 C 
ATOM     21  C   UNL     1      -1.031  -0.229  -0.849  0.00  0.00    -0.050 A 
ATOM     22  C   UNL     1      -0.186  -0.906  -1.708  0.00  0.00    +0.003 A 
ATOM     23  C   UNL     1       0.167  -2.216  -1.440  0.00  0.00    +0.005 A 
ATOM     24  C   UNL     1      -0.325  -2.848  -0.313  0.00  0.00    -0.029 A 
ATOM     25  C   UNL     1      -1.169  -2.170   0.547  0.00  0.00    +0.005 A 
ATOM     26  C   UNL     1      -1.518  -0.859   0.281  0.00  0.00    +0.003 A 
ENDBRANCH  19  24
BRANCH  19  27
ATOM     27  C   UNL     1       1.552  -4.345   0.308  0.00  0.00    +0.115 C 
BRANCH  27  28
ATOM     28  N   UNL     1       1.919  -5.732   0.625  0.00  0.00    -0.259 NA
ATOM     29  I   UNL     1       3.914  -5.879   1.075  0.00  0.00    +0.018 I 
ATOM     30  H   UNL     1       1.672  -6.353  -0.131  0.00  0.00    +0.134 HD
ENDBRANCH  27  28
ENDBRANCH  19  27
ENDBRANCH   1  19
TORSDOF 7
