REMARK  Name = ZINC31160527
REMARK  17 active torsions:
REMARK  status: ('A' for Active; 'I' for Inactive)
REMARK    1  A    between atoms: C_1  and  C_2
REMARK    2  A    between atoms: C_2  and  C_3
REMARK    3  A    between atoms: C_2  and  C_12
REMARK    4  A    between atoms: C_2  and  O_14
REMARK    5  A    between atoms: C_3  and  C_4
REMARK    6  A    between atoms: C_4  and  C_5
REMARK    7  A    between atoms: C_5  and  C_7
REMARK    8  A    between atoms: C_5  and  O_11
REMARK    9  A    between atoms: C_7  and  C_8
REMARK   10  A    between atoms: C_7  and  C_9
REMARK   11  A    between atoms: C_7  and  O_10
REMARK   12  A    between atoms: O_14  and  C_15
REMARK   13  A    between atoms: C_17  and  O_30
REMARK   14  A    between atoms: C_19  and  O_29
REMARK   15  A    between atoms: C_21  and  O_28
REMARK   16  A    between atoms: C_23  and  C_26
REMARK   17  A    between atoms: C_26  and  O_27
REMARK                            x       y       z     vdW  Elec       q    Type
REMARK                         _______ _______ _______ _____ _____    ______ ____
ROOT
ATOM      1  O   UNL     1      -1.275  -0.730  -0.023  0.00  0.00    -0.338 OA
ENDROOT
BRANCH   1   2
ATOM      2  C   UNL     1      -2.065  -0.632   1.164  0.00  0.00    +0.283 C 
ATOM      3  C   UNL     1      -3.364  -1.421   0.979  0.00  0.00    +0.201 C 
ATOM      4  C   UNL     1      -4.178  -1.361   2.276  0.00  0.00    +0.179 C 
ATOM      5  C   UNL     1      -3.325  -1.906   3.426  0.00  0.00    +0.177 C 
ATOM      6  C   UNL     1      -2.028  -1.098   3.516  0.00  0.00    +0.178 C 
ATOM      7  O   UNL     1      -1.335  -1.170   2.268  0.00  0.00    -0.340 OA
BRANCH   5   8
ATOM      8  O   UNL     1      -4.048  -1.789   4.653  0.00  0.00    -0.386 OA
ATOM      9  H   UNL     1      -4.885  -2.274   4.664  0.00  0.00    +0.210 HD
ENDBRANCH   5   8
BRANCH   4  10
ATOM     10  O   UNL     1      -5.358  -2.154   2.136  0.00  0.00    -0.386 OA
ATOM     11  H   UNL     1      -5.942  -1.867   1.420  0.00  0.00    +0.210 HD
ENDBRANCH   4  10
BRANCH   3  12
ATOM     12  O   UNL     1      -4.122  -0.849  -0.089  0.00  0.00    -0.384 OA
ATOM     13  H   UNL     1      -3.665  -0.850  -0.941  0.00  0.00    +0.210 HD
ENDBRANCH   3  12
BRANCH   6  14
ATOM     14  C   UNL     1      -1.144  -1.675   4.624  0.00  0.00    +0.190 C 
BRANCH  14  15
ATOM     15  O   UNL     1       0.013  -0.852   4.787  0.00  0.00    -0.392 OA
ATOM     16  H   UNL     1       0.620  -1.158   5.475  0.00  0.00    +0.210 HD
ENDBRANCH  14  15
ENDBRANCH   6  14
ENDBRANCH   1   2
BRANCH   1  18
ATOM     17  C   UNL     1      -0.819   1.641   0.082  0.00  0.00    +0.046 C 
ATOM     18  C   UNL     1      -0.231   0.242  -0.107  0.00  0.00    +0.088 C 
BRANCH  18  19
ATOM     19  C   UNL     1       0.429   0.153  -1.459  0.00  0.00    -0.000 C 
ATOM     20  C   UNL     1      -0.056  -0.649  -2.374  0.00  0.00    +0.007 C 
ENDBRANCH  18  19
BRANCH  18  21
ATOM     21  C   UNL     1       0.806  -0.028   0.985  0.00  0.00    +0.041 C 
BRANCH  21  22
ATOM     22  C   UNL     1       1.383  -1.433   0.805  0.00  0.00    +0.037 C 
BRANCH  22  23
ATOM     23  C   UNL     1       2.420  -1.702   1.897  0.00  0.00    +0.146 C 
BRANCH  23  24
ATOM     24  C   UNL     1       3.087  -3.056   1.645  0.00  0.00    +0.086 C 
ATOM     25  C   UNL     1       4.032  -3.383   2.802  0.00  0.00    +0.043 C 
ATOM     26  C   UNL     1       2.014  -4.142   1.541  0.00  0.00    +0.043 C 
BRANCH  24  27
ATOM     27  O   UNL     1       3.829  -3.002   0.424  0.00  0.00    -0.387 OA
ATOM     28  H   UNL     1       4.528  -2.334   0.419  0.00  0.00    +0.210 HD
ENDBRANCH  24  27
ENDBRANCH  23  24
BRANCH  23  29
ATOM     29  O   UNL     1       1.775  -1.719   3.172  0.00  0.00    -0.389 OA
ATOM     30  H   UNL     1       1.089  -2.395   3.257  0.00  0.00    +0.210 HD
ENDBRANCH  23  29
ENDBRANCH  22  23
ENDBRANCH  21  22
ENDBRANCH  18  21
ENDBRANCH   1  18
TORSDOF 14
