REMARK  Name = ZINC18030435
REMARK  6 active torsions:
REMARK  status: ('A' for Active; 'I' for Inactive)
REMARK    1  A    between atoms: C_1  and  C_2
REMARK    2  A    between atoms: C_5  and  C_21
REMARK    3  A    between atoms: C_5  and  C_22
REMARK    4  A    between atoms: N_14  and  N_15
REMARK    5  A    between atoms: N_15  and  C_16
REMARK    6  A    between atoms: C_16  and  N_18
REMARK                            x       y       z     vdW  Elec       q    Type
REMARK                         _______ _______ _______ _____ _____    ______ ____
ROOT
ATOM      1  C   UNL     1       0.307   1.608  -0.244  0.00  0.00    +0.012 C 
ATOM      2  C   UNL     1       0.179   0.093  -0.072  0.00  0.00    +0.020 C 
ATOM      3  C   UNL     1       0.670  -0.608  -1.343  0.00  0.00    +0.033 C 
ATOM      4  C   UNL     1       0.637  -2.135  -1.205  0.00  0.00    +0.038 C 
ATOM      5  N   UNL     1       1.427  -2.511  -0.021  0.00  0.00    -0.260 N 
ATOM      6  C   UNL     1       1.565  -1.621   1.034  0.00  0.00    +0.050 A 
ATOM      7  C   UNL     1       1.007  -0.348   1.099  0.00  0.00    -0.022 A 
ATOM      8  C   UNL     1       1.267   0.382   2.234  0.00  0.00    +0.006 A 
ATOM      9  C   UNL     1       2.051  -0.141   3.255  0.00  0.00    +0.001 A 
ATOM     10  C   UNL     1       2.612  -1.412   3.198  0.00  0.00    +0.012 A 
ATOM     11  C   UNL     1       2.353  -2.161   2.055  0.00  0.00    +0.029 A 
ATOM     12  C   UNL     1       2.728  -3.501   1.588  0.00  0.00    +0.153 C 
ATOM     13  N   UNL     1       3.466  -4.385   2.215  0.00  0.00    -0.175 NA
ATOM     14  C   UNL     1       2.091  -3.642   0.252  0.00  0.00    +0.272 C 
ATOM     15  O   UNL     1       2.161  -4.619  -0.470  0.00  0.00    -0.268 OA
ATOM     16  C   UNL     1       1.243  -2.779  -2.454  0.00  0.00    +0.032 C 
ATOM     17  C   UNL     1      -0.808  -2.606  -1.031  0.00  0.00    +0.032 C 
ENDROOT
BRANCH  13  18
ATOM     18  N   UNL     1       3.887  -4.141   3.529  0.00  0.00    -0.218 N 
ATOM     19  H   UNL     1       3.564  -3.359   4.004  0.00  0.00    +0.176 HD
BRANCH  18  20
ATOM     20  C   UNL     1       4.740  -4.992   4.133  0.00  0.00    +0.147 C 
ATOM     21  S   UNL     1       5.254  -4.693   5.739  0.00  0.00    -0.017 S 
BRANCH  20  22
ATOM     22  N   UNL     1       5.189  -6.078   3.473  0.00  0.00    -0.339 N 
ATOM     23  H   UNL     1       4.897  -6.247   2.563  0.00  0.00    +0.144 HD
ATOM     24  H   UNL     1       5.803  -6.690   3.907  0.00  0.00    +0.144 HD
ENDBRANCH  20  22
ENDBRANCH  18  20
ENDBRANCH  13  18
TORSDOF 3
