REMARK  Name = ZINC41585081
REMARK  12 active torsions:
REMARK  status: ('A' for Active; 'I' for Inactive)
REMARK    1  A    between atoms: C_1  and  C_2
REMARK    2  A    between atoms: C_4  and  O_38
REMARK    3  A    between atoms: C_5  and  C_25
REMARK    4  A    between atoms: C_11  and  C_12
REMARK    5  A    between atoms: C_14  and  O_22
REMARK    6  A    between atoms: C_15  and  O_20
REMARK    7  A    between atoms: C_16  and  O_18
REMARK    8  A    between atoms: O_18  and  C_19
REMARK    9  A    between atoms: O_20  and  C_21
REMARK   10  A    between atoms: O_22  and  C_23
REMARK   11  A    between atoms: C_25  and  N_26
REMARK   12  A    between atoms: N_29  and  C_32
REMARK                            x       y       z     vdW  Elec       q    Type
REMARK                         _______ _______ _______ _____ _____    ______ ____
ROOT
ATOM      1  C   UNL     1       1.397   1.369   0.110  0.00  0.00    +0.045 C 
ATOM      2  C   UNL     1       0.953  -0.071   0.093  0.00  0.00    -0.033 A 
ATOM      3  C   UNL     1       0.835  -0.737  -1.095  0.00  0.00    +0.050 A 
ATOM      4  C   UNL     1       0.424  -2.067  -1.113  0.00  0.00    +0.122 A 
ATOM      5  C   UNL     1       0.130  -2.730   0.068  0.00  0.00    +0.020 A 
ATOM      6  C   UNL     1       0.244  -2.067   1.284  0.00  0.00    +0.145 A 
ATOM      7  C   UNL     1       0.665  -0.727   1.290  0.00  0.00    +0.071 A 
ATOM      8  C   UNL     1       0.696  -0.308   2.703  0.00  0.00    +0.232 C 
ATOM      9  O   UNL     1       1.003   0.784   3.150  0.00  0.00    -0.283 OA
ATOM     10  C   UNL     1       0.274  -1.501   3.450  0.00  0.00    +0.176 C 
ATOM     11  C   UNL     1       0.148  -1.599   4.799  0.00  0.00    +0.058 C 
ATOM     12  O   UNL     1       0.022  -2.480   2.550  0.00  0.00    -0.451 OA
ENDROOT
BRANCH  11  13
ATOM     13  C   UNL     1       0.268  -0.400   5.637  0.00  0.00    -0.014 A 
ATOM     14  C   UNL     1      -0.344   0.796   5.242  0.00  0.00    +0.057 A 
ATOM     15  C   UNL     1      -0.230   1.923   6.034  0.00  0.00    +0.166 A 
ATOM     16  C   UNL     1       0.495   1.870   7.223  0.00  0.00    +0.204 A 
ATOM     17  C   UNL     1       1.106   0.682   7.619  0.00  0.00    +0.166 A 
ATOM     18  C   UNL     1       0.991  -0.450   6.835  0.00  0.00    +0.057 A 
BRANCH  17  19
ATOM     19  O   UNL     1       1.812   0.636   8.780  0.00  0.00    -0.491 OA
ATOM     20  C   UNL     1       2.412  -0.614   9.125  0.00  0.00    +0.277 C 
ENDBRANCH  17  19
BRANCH  16  21
ATOM     21  O   UNL     1       0.606   2.980   7.998  0.00  0.00    -0.488 OA
ATOM     22  C   UNL     1      -0.397   3.177   8.997  0.00  0.00    +0.277 C 
ENDBRANCH  16  21
BRANCH  15  23
ATOM     23  O   UNL     1      -0.824   3.084   5.652  0.00  0.00    -0.491 OA
ATOM     24  C   UNL     1      -1.550   3.068   4.421  0.00  0.00    +0.277 C 
ENDBRANCH  15  23
ENDBRANCH  11  13
BRANCH   4  25
ATOM     25  O   UNL     1       0.310  -2.719  -2.297  0.00  0.00    -0.506 OA
ATOM     26  H   UNL     1       1.119  -3.169  -2.578  0.00  0.00    +0.292 HD
ENDBRANCH   4  25
BRANCH   5  27
ATOM     27  C   UNL     1      -0.314  -4.169   0.033  0.00  0.00    -0.035 C 
BRANCH  27  28
ATOM     28  N   UNL     1       0.861  -5.046   0.120  0.00  0.00    +0.385 N 
ATOM     29  C   UNL     1       1.512  -4.862   1.423  0.00  0.00    -0.059 C 
ATOM     30  C   UNL     1       2.800  -5.689   1.472  0.00  0.00    +0.086 C 
ATOM     31  N   UNL     1       2.470  -7.086   1.151  0.00  0.00    -0.333 N 
ATOM     32  C   UNL     1       1.674  -7.350  -0.058  0.00  0.00    +0.086 C 
ATOM     33  C   UNL     1       0.439  -6.444  -0.034  0.00  0.00    -0.059 C 
ATOM     34  H   UNL     1       1.511  -4.810  -0.614  0.00  0.00    -0.081 HD
BRANCH  31  35
ATOM     35  C   UNL     1       2.899  -8.133   1.971  0.00  0.00    +0.030 A 
ATOM     36  C   UNL     1       2.684  -9.450   1.588  0.00  0.00    +0.023 A 
ATOM     37  C   UNL     1       3.110 -10.482   2.400  0.00  0.00    +0.002 A 
ATOM     38  C   UNL     1       3.750 -10.205   3.595  0.00  0.00    +0.000 A 
ATOM     39  C   UNL     1       3.966  -8.894   3.979  0.00  0.00    +0.002 A 
ATOM     40  C   UNL     1       3.547  -7.857   3.168  0.00  0.00    +0.023 A 
ENDBRANCH  31  35
ENDBRANCH  27  28
ENDBRANCH   5  27
TORSDOF 8
