REMARK  Name = ZINC05345775
REMARK  6 active torsions:
REMARK  status: ('A' for Active; 'I' for Inactive)
REMARK    1  A    between atoms: C_1  and  C_2
REMARK    2  A    between atoms: C_2  and  C_3
REMARK    3  A    between atoms: C_3  and  C_4
REMARK    4  A    between atoms: C_4  and  N_5
REMARK    5  A    between atoms: C_10  and  C_27
REMARK    6  A    between atoms: C_21  and  C_26
REMARK                            x       y       z     vdW  Elec       q    Type
REMARK                         _______ _______ _______ _____ _____    ______ ____
ROOT
ATOM      1  N   UNL     1      -0.721   1.571  -1.179  0.00  0.00    -0.242 N 
ATOM      2  C   UNL     1      -0.434   2.738  -1.766  0.00  0.00    +0.224 C 
ATOM      3  O   UNL     1       0.423   3.514  -1.401  0.00  0.00    -0.275 OA
ATOM      4  C   UNL     1      -1.344   2.940  -2.957  0.00  0.00    +0.073 C 
ATOM      5  C   UNL     1      -2.328   4.090  -2.651  0.00  0.00    -0.060 C 
ATOM      6  C   UNL     1      -3.643   2.158  -2.680  0.00  0.00    +0.050 C 
ATOM      7  C   UNL     1      -2.221   1.656  -2.958  0.00  0.00    +0.088 C 
ATOM      8  C   UNL     1      -1.705   0.881  -1.767  0.00  0.00    +0.225 C 
ATOM      9  O   UNL     1      -2.120  -0.198  -1.400  0.00  0.00    -0.275 OA
ATOM     10  C   UNL     1      -4.666   1.363  -3.441  0.00  0.00    -0.027 A 
ATOM     11  C   UNL     1      -4.874   1.122  -4.781  0.00  0.00    +0.004 A 
ATOM     12  C   UNL     1      -5.932   0.327  -5.185  0.00  0.00    +0.001 A 
ATOM     13  C   UNL     1      -6.779  -0.224  -4.240  0.00  0.00    +0.005 A 
ATOM     14  C   UNL     1      -6.574   0.015  -2.897  0.00  0.00    -0.029 A 
ATOM     15  C   UNL     1      -5.512   0.814  -2.482  0.00  0.00    +0.039 A 
ATOM     16  N   UNL     1      -5.104   1.197  -1.202  0.00  0.00    -0.286 N 
ATOM     17  C   UNL     1      -4.013   1.988  -1.232  0.00  0.00    +0.211 C 
ATOM     18  O   UNL     1      -3.441   2.469  -0.277  0.00  0.00    -0.277 OA
ATOM     19  C   UNL     1      -7.503  -0.590  -1.877  0.00  0.00    +0.045 C 
ATOM     20  C   UNL     1      -1.954   5.338  -3.453  0.00  0.00    -0.013 C 
ATOM     21  H   UNL     1      -5.553   0.926  -0.387  0.00  0.00    +0.155 HD
ATOM     22  N   UNL     1      -3.631   3.559  -3.062  0.00  0.00    +0.394 N 
ATOM     23  H   UNL     1      -3.747   3.652  -4.077  0.00  0.00    -0.083 HD
ATOM     24  H   UNL     1      -4.386   4.064  -2.583  0.00  0.00    -0.083 HD
ENDROOT
BRANCH   1  25
ATOM     25  C   UNL     1      -0.013   1.086   0.008  0.00  0.00    +0.116 C 
BRANCH  25  26
ATOM     26  C   UNL     1      -0.729   1.579   1.267  0.00  0.00    +0.019 C 
BRANCH  26  28
ATOM     27  C   UNL     1      -0.705   1.566   3.765  0.00  0.00    +0.004 C 
ATOM     28  C   UNL     1       0.011   1.072   2.506  0.00  0.00    -0.002 C 
ENDBRANCH  26  28
ENDBRANCH  25  26
ENDBRANCH   1  25
TORSDOF 3
