REMARK  Name = ZINC58185386
REMARK  7 active torsions:
REMARK  status: ('A' for Active; 'I' for Inactive)
REMARK    1  A    between atoms: C_1  and  C_2
REMARK    2  A    between atoms: C_2  and  C_24
REMARK    3  A    between atoms: N_5  and  C_9
REMARK    4  A    between atoms: C_9  and  C_10
REMARK    5  A    between atoms: C_10  and  C_12
REMARK    6  A    between atoms: C_10  and  O_23
REMARK    7  A    between atoms: C_12  and  N_13
REMARK                            x       y       z     vdW  Elec       q    Type
REMARK                         _______ _______ _______ _____ _____    ______ ____
ROOT
ATOM      1  C   UNL     1      -2.468  -2.094   1.996  0.00  0.00    +0.147 C 
ENDROOT
BRANCH   1   6
ATOM      2  C   UNL     1       0.431   1.343   0.639  0.00  0.00    +0.050 C 
ATOM      3  C   UNL     1       0.354  -0.180   0.524  0.00  0.00    +0.168 C 
ATOM      4  C   UNL     1      -1.090  -0.642   0.522  0.00  0.00    +0.254 C 
ATOM      5  O   UNL     1      -1.947  -0.362  -0.288  0.00  0.00    -0.272 OA
ATOM      6  N   UNL     1      -1.222  -1.429   1.608  0.00  0.00    -0.221 N 
ATOM      7  C   UNL     1      -0.074  -1.527   2.289  0.00  0.00    +0.310 C 
ATOM      8  O   UNL     1       0.055  -2.183   3.304  0.00  0.00    -0.252 OA
ATOM      9  N   UNL     1       0.921  -0.821   1.723  0.00  0.00    -0.279 N 
ATOM     10  H   UNL     1       1.834  -0.747   2.043  0.00  0.00    +0.152 HD
BRANCH   3  11
ATOM     11  C   UNL     1       1.067  -0.653  -0.717  0.00  0.00    +0.137 A 
ATOM     12  C   UNL     1       2.368  -0.983  -0.799  0.00  0.00    +0.047 A 
ATOM     13  C   UNL     1       2.610  -1.368  -2.138  0.00  0.00    +0.041 A 
ATOM     14  C   UNL     1       1.441  -1.250  -2.794  0.00  0.00    +0.195 A 
ATOM     15  O   UNL     1       0.509  -0.823  -1.927  0.00  0.00    -0.465 OA
ENDBRANCH   3  11
ENDBRANCH   1   6
BRANCH   1  16
ATOM     16  C   UNL     1      -2.534  -3.476   1.343  0.00  0.00    +0.116 C 
BRANCH  16  17
ATOM     17  O   UNL     1      -1.489  -4.299   1.863  0.00  0.00    -0.392 OA
ATOM     18  H   UNL     1      -1.533  -4.434   2.820  0.00  0.00    +0.210 HD
ENDBRANCH  16  17
BRANCH  16  19
ATOM     19  C   UNL     1      -3.889  -4.119   1.645  0.00  0.00    -0.045 C 
BRANCH  19  20
ATOM     20  N   UNL     1      -3.953  -5.445   1.016  0.00  0.00    +0.384 N 
ATOM     21  C   UNL     1      -3.952  -5.295  -0.448  0.00  0.00    -0.074 C 
ATOM     22  C   UNL     1      -3.710  -6.667  -1.078  0.00  0.00    +0.017 C 
ATOM     23  C   UNL     1      -4.668  -7.673  -0.493  0.00  0.00    -0.048 A 
ATOM     24  C   UNL     1      -4.856  -8.876  -1.156  0.00  0.00    +0.004 A 
ATOM     25  C   UNL     1      -5.723  -9.823  -0.649  0.00  0.00    +0.000 A 
ATOM     26  C   UNL     1      -6.406  -9.571   0.526  0.00  0.00    +0.000 A 
ATOM     27  C   UNL     1      -6.221  -8.373   1.186  0.00  0.00    +0.002 A 
ATOM     28  C   UNL     1      -5.351  -7.419   0.677  0.00  0.00    -0.061 A 
ATOM     29  C   UNL     1      -5.186  -6.123   1.425  0.00  0.00    -0.043 C 
ATOM     30  H   UNL     1      -3.156  -5.993   1.301  0.00  0.00    -0.081 HD
ENDBRANCH  19  20
ENDBRANCH  16  19
ENDBRANCH   1  16
TORSDOF 6
