REMARK  Name = ZINC39683931
REMARK  9 active torsions:
REMARK  status: ('A' for Active; 'I' for Inactive)
REMARK    1  A    between atoms: C_1  and  C_2
REMARK    2  A    between atoms: C_2  and  C_3
REMARK    3  A    between atoms: C_3  and  C_5
REMARK    4  A    between atoms: C_3  and  C_11
REMARK    5  A    between atoms: C_15  and  C_24
REMARK    6  A    between atoms: N_26  and  C_27
REMARK    7  A    between atoms: C_27  and  C_29
REMARK    8  A    between atoms: C_27  and  C_30
REMARK    9  A    between atoms: N_32  and  C_33
REMARK                            x       y       z     vdW  Elec       q    Type
REMARK                         _______ _______ _______ _____ _____    ______ ____
ROOT
ATOM      1  C   UNL     1       0.506  -1.716  -1.197  0.00  0.00    +0.223 C 
ATOM      2  O   UNL     1       1.572  -2.293  -1.164  0.00  0.00    -0.275 OA
ATOM      3  N   UNL     1      -0.639  -2.420  -1.295  0.00  0.00    -0.300 N 
ATOM      4  C   UNL     1      -2.024  -1.898  -1.355  0.00  0.00    +0.121 C 
ATOM      5  C   UNL     1      -2.738  -2.801  -2.386  0.00  0.00    +0.100 C 
ATOM      6  C   UNL     1      -1.929  -4.109  -2.388  0.00  0.00    -0.004 C 
ATOM      7  C   UNL     1      -0.796  -3.893  -1.374  0.00  0.00    +0.115 C 
ATOM      8  C   UNL     1      -1.345  -4.367  -3.774  0.00  0.00    -0.010 C 
ATOM      9  C   UNL     1      -0.593  -5.701  -3.766  0.00  0.00    -0.082 C 
ATOM     10  N   UNL     1      -1.514  -6.782  -3.391  0.00  0.00    +0.379 N 
ATOM     11  C   UNL     1      -1.998  -6.574  -2.021  0.00  0.00    -0.082 C 
ATOM     12  C   UNL     1      -2.810  -5.277  -1.956  0.00  0.00    -0.010 C 
ATOM     13  H   UNL     1      -2.297  -6.789  -4.026  0.00  0.00    -0.086 HD
ATOM     14  H   UNL     1      -1.032  -7.666  -3.446  0.00  0.00    -0.086 HD
ENDROOT
BRANCH   5  15
ATOM     15  C   UNL     1      -2.711  -2.163  -3.751  0.00  0.00    +0.219 C 
ATOM     16  O   UNL     1      -1.788  -1.442  -4.065  0.00  0.00    -0.275 OA
ATOM     17  N   UNL     1      -3.713  -2.393  -4.622  0.00  0.00    -0.304 N 
ATOM     18  H   UNL     1      -4.452  -2.969  -4.370  0.00  0.00    +0.149 HD
BRANCH  17  19
ATOM     19  C   UNL     1      -3.687  -1.772  -5.949  0.00  0.00    +0.156 C 
ATOM     20  C   UNL     1      -2.858  -2.637  -6.900  0.00  0.00    +0.038 C 
BRANCH  19  21
ATOM     21  C   UNL     1      -5.094  -1.653  -6.475  0.00  0.00    +0.233 C 
ATOM     22  O   UNL     1      -6.027  -2.047  -5.808  0.00  0.00    -0.274 OA
ATOM     23  N   UNL     1      -5.316  -1.107  -7.687  0.00  0.00    -0.317 N 
ATOM     24  C   UNL     1      -6.684  -0.992  -8.199  0.00  0.00    +0.128 C 
ATOM     25  H   UNL     1      -4.571  -0.792  -8.221  0.00  0.00    +0.148 HD
ENDBRANCH  19  21
ENDBRANCH  17  19
ENDBRANCH   5  15
BRANCH   1  26
ATOM     26  C   UNL     1       0.462  -0.211  -1.128  0.00  0.00    +0.105 C 
BRANCH  26  27
ATOM     27  C   UNL     1       1.865   0.329  -1.023  0.00  0.00    -0.036 A 
ATOM     28  C   UNL     1       2.667  -0.035   0.042  0.00  0.00    +0.004 A 
ATOM     29  C   UNL     1       3.954   0.460   0.138  0.00  0.00    +0.000 A 
ATOM     30  C   UNL     1       4.439   1.319  -0.831  0.00  0.00    +0.000 A 
ATOM     31  C   UNL     1       3.636   1.682  -1.896  0.00  0.00    +0.000 A 
ATOM     32  C   UNL     1       2.351   1.183  -1.994  0.00  0.00    +0.004 A 
ENDBRANCH  26  27
BRANCH  26  34
ATOM     33  C   UNL     1      -0.495   1.742   0.102  0.00  0.00    +0.005 C 
ATOM     34  C   UNL     1      -0.344   0.219   0.100  0.00  0.00    +0.014 C 
ENDBRANCH  26  34
ENDBRANCH   1  26
TORSDOF 6
