REMARK  Name = ZINC37943548
REMARK  5 active torsions:
REMARK  status: ('A' for Active; 'I' for Inactive)
REMARK    1  A    between atoms: C_1  and  C_2
REMARK    2  A    between atoms: C_2  and  C_3
REMARK    3  A    between atoms: C_2  and  N_4
REMARK    4  A    between atoms: N_4  and  C_5
REMARK    5  A    between atoms: C_5  and  C_15
REMARK                            x       y       z     vdW  Elec       q    Type
REMARK                         _______ _______ _______ _____ _____    ______ ____
ROOT
ATOM      1  C   UNL     1      -1.988  -0.016  -1.102  0.00  0.00    +0.010 C 
ATOM      2  C   UNL     1      -2.253   1.462  -1.395  0.00  0.00    +0.002 C 
ATOM      3  C   UNL     1      -3.259   1.582  -2.542  0.00  0.00    +0.064 C 
ATOM      4  C   UNL     1      -4.566   0.893  -2.147  0.00  0.00    +0.170 C 
ATOM      5  C   UNL     1      -4.305  -0.584  -1.847  0.00  0.00    +0.064 C 
ATOM      6  C   UNL     1      -3.297  -0.700  -0.701  0.00  0.00    +0.002 C 
ATOM      7  O   UNL     1      -5.510   1.002  -3.224  0.00  0.00    -0.346 OA
ATOM      8  C   UNL     1      -6.795   1.164  -2.576  0.00  0.00    +0.191 C 
ATOM      9  C   UNL     1      -6.420   2.026  -1.345  0.00  0.00    +0.191 C 
ATOM     10  O   UNL     1      -5.114   1.530  -0.985  0.00  0.00    -0.346 OA
ENDROOT
BRANCH   1  11
ATOM     11  C   UNL     1      -1.431  -0.680  -2.334  0.00  0.00    +0.200 C 
ATOM     12  O   UNL     1      -2.131  -1.420  -2.993  0.00  0.00    -0.278 OA
ATOM     13  N   UNL     1      -0.155  -0.453  -2.704  0.00  0.00    -0.330 N 
ATOM     14  H   UNL     1       0.426   0.080  -2.139  0.00  0.00    +0.145 HD
ATOM     15  H   UNL     1       0.182  -0.823  -3.535  0.00  0.00    +0.145 HD
ENDBRANCH   1  11
BRANCH   1  16
ATOM     16  N   UNL     1      -1.020  -0.131  -0.003  0.00  0.00    +0.390 N 
ATOM     17  H   UNL     1      -1.313   0.453   0.766  0.00  0.00    -0.084 HD
ATOM     18  H   UNL     1      -0.111   0.168  -0.324  0.00  0.00    -0.084 HD
BRANCH  16  20
ATOM     19  C   UNL     1      -0.332  -2.386  -0.666  0.00  0.00    -0.014 C 
ATOM     20  C   UNL     1      -0.948  -1.529   0.442  0.00  0.00    -0.077 C 
ATOM     21  C   UNL     1      -0.081  -1.619   1.699  0.00  0.00    -0.014 C 
ENDBRANCH  16  20
ENDBRANCH   1  16
TORSDOF 3
