REMARK  Name = ZINC44681431
REMARK  10 active torsions:
REMARK  status: ('A' for Active; 'I' for Inactive)
REMARK    1  A    between atoms: C_1  and  C_2
REMARK    2  A    between atoms: C_5  and  O_34
REMARK    3  A    between atoms: C_7  and  C_31
REMARK    4  A    between atoms: C_7  and  C_32
REMARK    5  A    between atoms: N_16  and  C_17
REMARK    6  A    between atoms: C_18  and  C_20
REMARK    7  A    between atoms: C_20  and  C_21
REMARK    8  A    between atoms: N_23  and  C_24
REMARK    9  A    between atoms: C_28  and  O_30
REMARK   10  A    between atoms: C_32  and  O_33
REMARK                            x       y       z     vdW  Elec       q    Type
REMARK                         _______ _______ _______ _____ _____    ______ ____
ROOT
ATOM      1  C   UNL     1       0.369   1.304   0.048  0.00  0.00    +0.012 C 
ATOM      2  C   UNL     1      -0.060  -0.168  -0.046  0.00  0.00    -0.020 C 
ATOM      3  C   UNL     1      -1.583  -0.231  -0.045  0.00  0.00    +0.010 C 
ATOM      4  C   UNL     1      -2.111   0.420   1.234  0.00  0.00    +0.032 C 
ATOM      5  C   UNL     1      -1.573  -0.260   2.479  0.00  0.00    +0.123 C 
ATOM      6  C   UNL     1      -0.074  -0.508   2.480  0.00  0.00    +0.021 C 
ATOM      7  C   UNL     1       0.471  -0.977   1.132  0.00  0.00    +0.011 C 
ATOM      8  C   UNL     1       0.078  -2.460   0.982  0.00  0.00    +0.049 C 
ATOM      9  C   UNL     1       0.102  -2.899  -0.438  0.00  0.00    +0.013 A 
ATOM     10  C   UNL     1       0.282  -2.138  -1.545  0.00  0.00    +0.032 A 
ATOM     11  N   UNL     1       0.243  -2.800  -2.697  0.00  0.00    -0.340 N 
ATOM     12  C   UNL     1       0.048  -4.101  -2.742  0.00  0.00    +0.136 A 
ATOM     13  S   UNL     1      -0.096  -4.524  -1.118  0.00  0.00    -0.059 S 
ATOM     14  N   UNL     1      -0.020  -4.922  -3.857  0.00  0.00    -0.328 N 
ATOM     15  C   UNL     1      -0.245  -6.361  -3.695  0.00  0.00    +0.127 C 
ATOM     16  C   UNL     1       0.532  -0.654  -1.372  0.00  0.00    +0.051 C 
ATOM     17  C   UNL     1       0.668   0.728   3.003  0.00  0.00    +0.016 C 
ATOM     18  H   UNL     1       0.082  -4.544  -4.745  0.00  0.00    +0.148 HD
ATOM     19  H   UNL     1       0.371  -2.329  -3.534  0.00  0.00    +0.167 HD
ENDROOT
BRANCH   5  20
ATOM     20  O   UNL     1      -2.276  -1.489   2.702  0.00  0.00    -0.391 OA
ATOM     21  H   UNL     1      -3.228  -1.380   2.828  0.00  0.00    +0.210 HD
ENDBRANCH   5  20
BRANCH  16  22
ATOM     22  C   UNL     1      -0.049   0.140  -2.538  0.00  0.00    +0.106 C 
BRANCH  22  23
ATOM     23  C   UNL     1       0.703  -0.197  -3.800  0.00  0.00    +0.218 C 
ATOM     24  O   UNL     1       1.705  -0.879  -3.745  0.00  0.00    -0.275 OA
ATOM     25  N   UNL     1       0.263   0.260  -4.989  0.00  0.00    -0.285 N 
ATOM     26  H   UNL     1      -0.499   0.858  -5.027  0.00  0.00    +0.155 HD
BRANCH  25  27
ATOM     27  C   UNL     1       0.906  -0.130  -6.169  0.00  0.00    +0.037 A 
ATOM     28  C   UNL     1       0.168  -0.333  -7.329  0.00  0.00    +0.023 A 
ATOM     29  C   UNL     1       0.802  -0.717  -8.494  0.00  0.00    +0.005 A 
ATOM     30  C   UNL     1       2.172  -0.901  -8.510  0.00  0.00    +0.045 A 
ATOM     31  C   UNL     1       2.914  -0.701  -7.354  0.00  0.00    +0.119 A 
ATOM     32  C   UNL     1       2.281  -0.308  -6.185  0.00  0.00    +0.068 A 
BRANCH  31  33
ATOM     33  O   UNL     1       4.260  -0.883  -7.371  0.00  0.00    -0.507 OA
ATOM     34  H   UNL     1       4.762  -0.087  -7.595  0.00  0.00    +0.292 HD
ENDBRANCH  31  33
ENDBRANCH  25  27
ENDBRANCH  22  23
ENDBRANCH  16  22
BRANCH   6  35
ATOM     35  C   UNL     1       0.200  -1.620   3.527  0.00  0.00    +0.165 C 
BRANCH  35  36
ATOM     36  O   UNL     1      -0.241  -1.182   4.814  0.00  0.00    -0.394 OA
ATOM     37  H   UNL     1      -0.100  -1.828   5.519  0.00  0.00    +0.209 HD
ENDBRANCH  35  36
ENDBRANCH   6  35
TORSDOF 7
