REMARK  Name = ZINC05345714
REMARK  8 active torsions:
REMARK  status: ('A' for Active; 'I' for Inactive)
REMARK    1  A    between atoms: C_1  and  C_2
REMARK    2  A    between atoms: C_2  and  C_4
REMARK    3  A    between atoms: C_2  and  O_31
REMARK    4  A    between atoms: N_12  and  C_15
REMARK    5  A    between atoms: C_15  and  C_16
REMARK    6  A    between atoms: C_16  and  C_17
REMARK    7  A    between atoms: C_17  and  O_18
REMARK    8  A    between atoms: O_18  and  C_19
REMARK                            x       y       z     vdW  Elec       q    Type
REMARK                         _______ _______ _______ _____ _____    ______ ____
ROOT
ATOM      1  C   UNL     1      -2.901   0.658  -0.774  0.00  0.00    -0.028 C 
ATOM      2  C   UNL     1      -3.234   0.874   0.718  0.00  0.00    +0.075 C 
ATOM      3  C   UNL     1      -2.114   1.815   1.243  0.00  0.00    +0.088 C 
ATOM      4  C   UNL     1      -1.363   0.948   2.228  0.00  0.00    +0.225 C 
ATOM      5  O   UNL     1      -0.397   1.295   2.873  0.00  0.00    -0.275 OA
ATOM      6  N   UNL     1      -1.932  -0.262   2.279  0.00  0.00    -0.242 N 
ATOM      7  C   UNL     1      -3.006  -0.417   1.470  0.00  0.00    +0.224 C 
ATOM      8  O   UNL     1      -3.677  -1.421   1.359  0.00  0.00    -0.275 OA
ATOM      9  C   UNL     1      -1.233   2.090   0.018  0.00  0.00    +0.050 C 
ATOM     10  C   UNL     1      -0.700   3.495   0.028  0.00  0.00    -0.025 A 
ATOM     11  C   UNL     1      -1.298   4.735   0.041  0.00  0.00    +0.043 A 
ATOM     12  C   UNL     1      -0.518   5.880   0.039  0.00  0.00    +0.124 A 
ATOM     13  C   UNL     1       0.863   5.773   0.024  0.00  0.00    +0.040 A 
ATOM     14  C   UNL     1       1.464   4.531   0.011  0.00  0.00    +0.026 A 
ATOM     15  C   UNL     1       0.686   3.376   0.013  0.00  0.00    +0.036 A 
ATOM     16  N   UNL     1       1.055   2.027   0.003  0.00  0.00    -0.286 N 
ATOM     17  C   UNL     1      -0.014   1.209   0.009  0.00  0.00    +0.211 C 
ATOM     18  O   UNL     1       0.002  -0.004   0.002  0.00  0.00    -0.277 OA
ATOM     19  F   UNL     1      -1.102   7.098   0.053  0.00  0.00    -0.205 F 
ATOM     20  H   UNL     1       1.974   1.718  -0.008  0.00  0.00    +0.155 HD
ATOM     21  N   UNL     1      -2.086   1.822  -1.127  0.00  0.00    +0.396 N 
ATOM     22  H   UNL     1      -2.688   2.632  -1.319  0.00  0.00    -0.083 HD
ATOM     23  H   UNL     1      -1.514   1.618  -1.955  0.00  0.00    -0.083 HD
ENDROOT
BRANCH   1  25
ATOM     24  C   UNL     1      -3.829   0.465  -3.085  0.00  0.00    +0.036 C 
ATOM     25  C   UNL     1      -4.185   0.602  -1.603  0.00  0.00    +0.098 C 
BRANCH  25  26
ATOM     26  O   UNL     1      -4.934   1.803  -1.403  0.00  0.00    -0.394 OA
ATOM     27  H   UNL     1      -4.463   2.607  -1.659  0.00  0.00    +0.210 HD
ENDBRANCH  25  26
ENDBRANCH   1  25
BRANCH   6  28
ATOM     28  C   UNL     1      -1.437  -1.334   3.146  0.00  0.00    +0.118 C 
BRANCH  28  29
ATOM     29  C   UNL     1      -2.135  -1.255   4.505  0.00  0.00    +0.047 C 
BRANCH  29  30
ATOM     30  C   UNL     1      -1.619  -2.374   5.410  0.00  0.00    +0.161 C 
BRANCH  30  31
ATOM     31  O   UNL     1      -2.271  -2.300   6.679  0.00  0.00    -0.383 OA
ATOM     32  C   UNL     1      -1.858  -3.307   7.605  0.00  0.00    +0.193 C 
ENDBRANCH  30  31
ENDBRANCH  29  30
ENDBRANCH  28  29
ENDBRANCH   6  28
TORSDOF 6
