REMARK  Name = ZINC40798937
REMARK  5 active torsions:
REMARK  status: ('A' for Active; 'I' for Inactive)
REMARK    1  A    between atoms: C_1  and  C_2
REMARK    2  A    between atoms: C_10  and  N_27
REMARK    3  A    between atoms: C_11  and  N_15
REMARK    4  A    between atoms: N_15  and  C_16
REMARK    5  A    between atoms: C_24  and  C_26
REMARK                            x       y       z     vdW  Elec       q    Type
REMARK                         _______ _______ _______ _____ _____    ______ ____
ROOT
ATOM      1  C   UNL     1       0.055   1.492  -0.178  0.00  0.00    +0.045 C 
ATOM      2  C   UNL     1       0.071  -0.011  -0.061  0.00  0.00    -0.032 A 
ATOM      3  C   UNL     1       0.099  -0.616   1.189  0.00  0.00    +0.008 A 
ATOM      4  C   UNL     1       0.113  -1.998   1.253  0.00  0.00    +0.044 A 
ATOM      5  C   UNL     1       0.098  -2.730   0.070  0.00  0.00    +0.124 A 
ATOM      6  N   UNL     1       0.072  -2.115  -1.102  0.00  0.00    -0.240 NA
ATOM      7  C   UNL     1       0.053  -0.799  -1.194  0.00  0.00    +0.116 A 
ATOM      8  N   UNL     1       0.112  -4.120   0.120  0.00  0.00    -0.283 N 
ATOM      9  C   UNL     1      -0.009  -4.859  -1.052  0.00  0.00    +0.150 A 
ATOM     10  C   UNL     1      -0.106  -6.252  -1.006  0.00  0.00    +0.106 A 
ATOM     11  C   UNL     1      -0.225  -6.944  -2.212  0.00  0.00    +0.149 A 
ATOM     12  N   UNL     1      -0.241  -6.257  -3.352  0.00  0.00    -0.219 NA
ATOM     13  C   UNL     1      -0.146  -4.943  -3.351  0.00  0.00    +0.225 A 
ATOM     14  N   UNL     1      -0.038  -4.250  -2.235  0.00  0.00    -0.219 NA
ATOM     15  H   UNL     1       0.205  -4.574   0.972  0.00  0.00    +0.155 HD
ENDROOT
BRANCH  10  16
ATOM     16  N   UNL     1      -0.084  -6.935   0.220  0.00  0.00    -0.353 N 
ATOM     17  H   UNL     1      -0.001  -6.441   1.050  0.00  0.00    +0.143 HD
ATOM     18  H   UNL     1      -0.153  -7.903   0.236  0.00  0.00    +0.143 HD
ENDBRANCH  10  16
BRANCH  11  19
ATOM     19  N   UNL     1      -0.324  -8.331  -2.223  0.00  0.00    -0.297 N 
ATOM     20  H   UNL     1      -0.399  -8.819  -1.387  0.00  0.00    +0.154 HD
BRANCH  19  21
ATOM     21  C   UNL     1      -0.317  -9.021  -3.433  0.00  0.00    +0.042 A 
ATOM     22  C   UNL     1       0.275  -8.464  -4.548  0.00  0.00    +0.024 A 
ATOM     23  C   UNL     1       0.285  -9.147  -5.760  0.00  0.00    +0.004 A 
ATOM     24  C   UNL     1      -0.285 -10.378  -5.880  0.00  0.00    +0.026 A 
ATOM     25  C   UNL     1      -0.899 -10.981  -4.770  0.00  0.00    +0.048 A 
ATOM     26  C   UNL     1      -0.910 -10.297  -3.529  0.00  0.00    +0.020 A 
ATOM     27  C   UNL     1      -1.521 -10.905  -2.419  0.00  0.00    +0.013 A 
ATOM     28  C   UNL     1      -2.077 -12.143  -2.586  0.00  0.00    +0.021 A 
ATOM     29  C   UNL     1      -2.027 -12.764  -3.831  0.00  0.00    +0.013 A 
ATOM     30  N   UNL     1      -1.465 -12.189  -4.867  0.00  0.00    -0.358 N 
ATOM     31  C   UNL     1      -2.644 -14.129  -3.995  0.00  0.00    +0.063 C 
ATOM     32  H   UNL     1      -1.450 -12.654  -5.719  0.00  0.00    +0.166 HD
ENDBRANCH  19  21
ENDBRANCH  11  19
TORSDOF 3
