REMARK  Name = ZINC66402070
REMARK  3 active torsions:
REMARK  status: ('A' for Active; 'I' for Inactive)
REMARK    1  A    between atoms: C_11  and  N_13
REMARK    2  A    between atoms: N_16  and  C_17
REMARK    3  A    between atoms: C_19  and  C_25
REMARK                            x       y       z     vdW  Elec       q    Type
REMARK                         _______ _______ _______ _____ _____    ______ ____
ROOT
ATOM      1  N   UNL     1       3.371   3.298   0.941  0.00  0.00    -0.292 N 
ATOM      2  C   UNL     1       2.794   4.450   0.547  0.00  0.00    +0.304 C 
ATOM      3  O   UNL     1       2.237   4.514  -0.532  0.00  0.00    -0.252 OA
ATOM      4  N   UNL     1       2.833   5.532   1.350  0.00  0.00    -0.265 N 
ATOM      5  H   UNL     1       3.815   3.247   1.802  0.00  0.00    +0.151 HD
ATOM      6  H   UNL     1       3.212   5.462   2.240  0.00  0.00    +0.157 HD
ENDROOT
BRANCH   1  17
ATOM      7  C   UNL     1      -0.342   1.463   0.618  0.00  0.00    +0.002 A 
ATOM      8  C   UNL     1       0.863   2.109   0.420  0.00  0.00    +0.009 A 
ATOM      9  C   UNL     1       2.034   1.381   0.288  0.00  0.00    +0.016 A 
ATOM     10  C   UNL     1       1.997  -0.001   0.358  0.00  0.00    +0.144 A 
ATOM     11  C   UNL     1       0.781  -0.649   0.556  0.00  0.00    +0.083 A 
ATOM     12  C   UNL     1      -0.383   0.083   0.685  0.00  0.00    +0.024 A 
ATOM     13 CL   UNL     1       0.728  -2.382   0.639  0.00  0.00    -0.080 Cl
ATOM     14  O   UNL     1       3.123  -0.754   0.246  0.00  0.00    -0.490 OA
ATOM     15  C   UNL     1       4.284  -0.139  -0.314  0.00  0.00    +0.231 C 
ATOM     16  C   UNL     1       4.510   1.204   0.392  0.00  0.00    +0.068 C 
ATOM     17  C   UNL     1       3.328   2.122   0.068  0.00  0.00    +0.111 C 
ENDBRANCH   1  17
BRANCH   4  18
ATOM     18  C   UNL     1       2.328   6.759   0.898  0.00  0.00    +0.100 A 
ATOM     19  C   UNL     1       1.323   7.388   1.581  0.00  0.00    +0.042 A 
ATOM     20  C   UNL     1       0.836   8.614   1.107  0.00  0.00    +0.073 A 
ATOM     21  C   UNL     1       1.359   9.164  -0.013  0.00  0.00    +0.098 A 
ATOM     22  N   UNL     1       2.357   8.540  -0.693  0.00  0.00    -0.327 N 
ATOM     23  H   UNL     1       2.720   8.950  -1.494  0.00  0.00    +0.168 HD
ATOM     24  C   UNL     1       2.854   7.364  -0.264  0.00  0.00    +0.270 A 
ATOM     25  O   UNL     1       3.754   6.819  -0.882  0.00  0.00    -0.266 OA
BRANCH  20  26
ATOM     26  C   UNL     1      -0.272   9.321   1.846  0.00  0.00    +0.419 C 
ATOM     27  F   UNL     1      -0.584  10.515   1.188  0.00  0.00    -0.166 F 
ATOM     28  F   UNL     1      -1.404   8.500   1.886  0.00  0.00    -0.166 F 
ATOM     29  F   UNL     1       0.145   9.603   3.151  0.00  0.00    -0.166 F 
ENDBRANCH  20  26
ENDBRANCH   4  18
TORSDOF 3
