REMARK  Name = ZINC35253647
REMARK  7 active torsions:
REMARK  status: ('A' for Active; 'I' for Inactive)
REMARK    1  A    between atoms: C_1  and  C_2
REMARK    2  A    between atoms: C_2  and  C_4
REMARK    3  A    between atoms: C_2  and  N_10
REMARK    4  A    between atoms: N_10  and  C_11
REMARK    5  A    between atoms: C_11  and  C_12
REMARK    6  A    between atoms: C_15  and  O_19
REMARK    7  A    between atoms: C_16  and  O_18
REMARK                            x       y       z     vdW  Elec       q    Type
REMARK                         _______ _______ _______ _____ _____    ______ ____
ROOT
ATOM      1  N   UNL     1       0.690  -0.478  -1.207  0.00  0.00    +0.386 N 
ATOM      2  H   UNL     1       0.632  -1.484  -1.254  0.00  0.00    -0.085 HD
ATOM      3  H   UNL     1       0.251  -0.077  -2.022  0.00  0.00    -0.085 HD
ENDROOT
BRANCH   1   5
ATOM      4  C   UNL     1      -0.019   1.526   0.010  0.00  0.00    -0.008 C 
ATOM      5  C   UNL     1       0.002  -0.004   0.002  0.00  0.00    -0.037 C 
BRANCH   5   6
ATOM      6  C   UNL     1      -1.412  -0.526   0.013  0.00  0.00    -0.023 A 
ATOM      7  C   UNL     1      -2.141  -0.993   1.055  0.00  0.00    +0.011 A 
ATOM      8  C   UNL     1      -3.435  -1.425   0.828  0.00  0.00    +0.028 A 
ATOM      9  C   UNL     1      -3.935  -1.368  -0.431  0.00  0.00    +0.078 A 
ATOM     10  S   UNL     1      -2.563  -0.681  -1.343  0.00  0.00    -0.083 S 
ATOM     11 CL   UNL     1      -5.505  -1.836  -1.006  0.00  0.00    -0.076 Cl
ENDBRANCH   5   6
ENDBRANCH   1   5
BRANCH   1  12
ATOM     12  C   UNL     1       2.100  -0.070  -1.159  0.00  0.00    -0.046 C 
BRANCH  12  13
ATOM     13  C   UNL     1       2.806  -0.556  -2.399  0.00  0.00    -0.061 A 
ATOM     14  C   UNL     1       3.400  -1.804  -2.410  0.00  0.00    +0.005 A 
ATOM     15  C   UNL     1       4.048  -2.255  -3.545  0.00  0.00    +0.049 A 
ATOM     16  C   UNL     1       4.103  -1.455  -4.675  0.00  0.00    +0.158 A 
ATOM     17  C   UNL     1       3.504  -0.199  -4.664  0.00  0.00    +0.158 A 
ATOM     18  C   UNL     1       2.852   0.244  -3.525  0.00  0.00    +0.051 A 
BRANCH  17  19
ATOM     19  O   UNL     1       3.555   0.590  -5.771  0.00  0.00    -0.503 OA
ATOM     20  H   UNL     1       2.815   0.460  -6.380  0.00  0.00    +0.292 HD
ENDBRANCH  17  19
BRANCH  16  21
ATOM     21  O   UNL     1       4.741  -1.896  -5.792  0.00  0.00    -0.503 OA
ATOM     22  H   UNL     1       4.171  -2.381  -6.404  0.00  0.00    +0.292 HD
ENDBRANCH  16  21
ENDBRANCH  12  13
ENDBRANCH   1  12
TORSDOF 6
