REMARK  Name = ZINC36116418
REMARK  10 active torsions:
REMARK  status: ('A' for Active; 'I' for Inactive)
REMARK    1  A    between atoms: C_1  and  C_2
REMARK    2  A    between atoms: C_5  and  N_8
REMARK    3  A    between atoms: N_11  and  C_12
REMARK    4  A    between atoms: N_11  and  C_34
REMARK    5  A    between atoms: C_12  and  C_13
REMARK    6  A    between atoms: C_23  and  C_25
REMARK    7  A    between atoms: C_25  and  O_26
REMARK    8  A    between atoms: O_26  and  C_27
REMARK    9  A    between atoms: C_34  and  C_35
REMARK   10  A    between atoms: C_34  and  C_36
REMARK                            x       y       z     vdW  Elec       q    Type
REMARK                         _______ _______ _______ _____ _____    ______ ____
ROOT
ATOM      1  C   UNL     1      -1.095  -7.323   2.761  0.00  0.00    +0.234 C 
ATOM      2  O   UNL     1      -2.022  -7.003   2.048  0.00  0.00    -0.274 OA
ATOM      3  N   UNL     1      -1.322  -8.021   3.891  0.00  0.00    -0.289 N 
ATOM      4  C   UNL     1      -0.205  -8.408   4.766  0.00  0.00    +0.114 C 
ATOM      5  C   UNL     1      -0.373  -7.683   6.110  0.00  0.00    +0.061 C 
ATOM      6  C   UNL     1      -1.809  -7.754   6.517  0.00  0.00    -0.004 A 
ATOM      7  C   UNL     1      -2.883  -8.063   5.742  0.00  0.00    -0.014 A 
ATOM      8  C   UNL     1      -4.130  -8.051   6.366  0.00  0.00    +0.013 A 
ATOM      9  C   UNL     1      -4.225  -7.747   7.680  0.00  0.00    +0.046 A 
ATOM     10  S   UNL     1      -2.517  -7.455   8.115  0.00  0.00    -0.101 S 
ATOM     11  C   UNL     1      -2.690  -8.401   4.269  0.00  0.00    +0.144 C 
ENDROOT
BRANCH   1  12
ATOM     12  C   UNL     1       0.313  -6.939   2.383  0.00  0.00    +0.205 C 
BRANCH  12  16
ATOM     13  N   UNL     1      -0.000  -4.176  -0.017  0.00  0.00    -0.269 N 
ATOM     14  C   UNL     1       0.172  -4.849   1.137  0.00  0.00    +0.307 C 
ATOM     15  O   UNL     1       0.217  -4.246   2.192  0.00  0.00    -0.252 OA
ATOM     16  N   UNL     1       0.294  -6.191   1.123  0.00  0.00    -0.274 N 
ATOM     17  H   UNL     1      -0.170  -4.660  -0.840  0.00  0.00    +0.156 HD
BRANCH  13  22
ATOM     18  C   UNL     1       0.265   1.491  -0.063  0.00  0.00    +0.044 C 
ATOM     19  C   UNL     1       0.195  -0.014  -0.051  0.00  0.00    -0.050 A 
ATOM     20  C   UNL     1       0.427  -0.725  -1.214  0.00  0.00    +0.005 A 
ATOM     21  C   UNL     1       0.363  -2.104  -1.206  0.00  0.00    +0.023 A 
ATOM     22  C   UNL     1       0.065  -2.778  -0.028  0.00  0.00    +0.035 A 
ATOM     23  C   UNL     1      -0.167  -2.061   1.138  0.00  0.00    +0.023 A 
ATOM     24  C   UNL     1      -0.097  -0.681   1.125  0.00  0.00    +0.005 A 
ENDBRANCH  13  22
BRANCH  16  25
ATOM     25  C   UNL     1       0.407  -6.903  -0.152  0.00  0.00    +0.072 C 
ATOM     26  C   UNL     1       1.783  -7.566  -0.246  0.00  0.00    +0.028 C 
ATOM     27  C   UNL     1      -0.682  -7.974  -0.237  0.00  0.00    +0.028 C 
ENDBRANCH  16  25
ENDBRANCH  12  16
ENDBRANCH   1  12
BRANCH  11  28
ATOM     28  C   UNL     1      -2.888  -9.903   4.056  0.00  0.00    +0.256 C 
BRANCH  28  29
ATOM     29  O   UNL     1      -2.039 -10.627   4.948  0.00  0.00    -0.490 OA
BRANCH  29  30
ATOM     30  C   UNL     1      -2.093 -11.983   4.887  0.00  0.00    +0.121 A 
ATOM     31  C   UNL     1      -2.942 -12.605   3.983  0.00  0.00    +0.047 A 
ATOM     32  C   UNL     1      -2.996 -13.984   3.923  0.00  0.00    +0.023 A 
ATOM     33  C   UNL     1      -2.203 -14.745   4.764  0.00  0.00    +0.041 A 
ATOM     34  C   UNL     1      -1.356 -14.127   5.666  0.00  0.00    +0.023 A 
ATOM     35  C   UNL     1      -1.295 -12.748   5.725  0.00  0.00    +0.047 A 
ATOM     36 CL   UNL     1      -2.273 -16.478   4.686  0.00  0.00    -0.084 Cl
ENDBRANCH  29  30
ENDBRANCH  28  29
ENDBRANCH  11  28
TORSDOF 7
