REMARK  Name = ZINC44943496
REMARK  6 active torsions:
REMARK  status: ('A' for Active; 'I' for Inactive)
REMARK    1  A    between atoms: C_4  and  C_7
REMARK    2  A    between atoms: C_7  and  C_8
REMARK    3  A    between atoms: C_8  and  C_10
REMARK    4  A    between atoms: C_8  and  N_16
REMARK    5  A    between atoms: C_17  and  C_19
REMARK    6  A    between atoms: C_25  and  C_27
REMARK                            x       y       z     vdW  Elec       q    Type
REMARK                         _______ _______ _______ _____ _____    ______ ____
ROOT
ATOM      1  C   UNL     1       2.113  -2.779   4.085  0.00  0.00    +0.091 C 
ATOM      2  C   UNL     1       2.474  -4.234   3.782  0.00  0.00    +0.040 C 
ATOM      3  C   UNL     1       1.679  -5.158   4.659  0.00  0.00    -0.030 C 
ATOM      4  C   UNL     1       1.067  -4.786   5.737  0.00  0.00    -0.030 C 
ATOM      5  C   UNL     1       1.058  -3.377   6.256  0.00  0.00    +0.040 C 
ATOM      6  C   UNL     1       2.177  -2.564   5.603  0.00  0.00    +0.091 C 
ENDROOT
BRANCH   6   7
ATOM      7  C   UNL     1       1.995  -1.102   5.916  0.00  0.00    +0.220 C 
ATOM      8  O   UNL     1       1.403  -0.384   5.138  0.00  0.00    -0.275 OA
ATOM      9  N   UNL     1       2.490  -0.591   7.061  0.00  0.00    -0.298 N 
ATOM     10  C   UNL     1       3.300  -1.422   7.962  0.00  0.00    +0.126 C 
ATOM     11  C   UNL     1       4.643  -0.720   8.202  0.00  0.00    +0.125 C 
ATOM     12  N   UNL     1       4.382   0.678   8.571  0.00  0.00    -0.314 N 
ATOM     13  C   UNL     1       3.571   1.510   7.670  0.00  0.00    +0.125 C 
ATOM     14  C   UNL     1       2.234   0.809   7.428  0.00  0.00    +0.126 C 
ATOM     15  C   UNL     1       4.892   1.205   9.752  0.00  0.00    +0.099 A 
ATOM     16  C   UNL     1       5.766   0.447  10.524  0.00  0.00    +0.042 A 
ATOM     17  C   UNL     1       6.267   0.983  11.696  0.00  0.00    +0.005 A 
ATOM     18  C   UNL     1       5.875   2.265  12.059  0.00  0.00    +0.018 A 
ATOM     19  C   UNL     1       5.004   2.961  11.245  0.00  0.00    +0.084 A 
ATOM     20  N   UNL     1       4.546   2.426  10.129  0.00  0.00    -0.350 N 
ATOM     21  H   UNL     1       3.939   2.939   9.573  0.00  0.00    +0.166 HD
ENDBRANCH   6   7
BRANCH   1  23
ATOM     22  N   UNL     1       3.214  -1.883   2.060  0.00  0.00    -0.308 N 
ATOM     23  C   UNL     1       3.093  -1.861   3.402  0.00  0.00    +0.218 C 
ATOM     24  O   UNL     1       3.773  -1.101   4.060  0.00  0.00    -0.275 OA
ATOM     25  H   UNL     1       2.671  -2.490   1.534  0.00  0.00    +0.149 HD
BRANCH  22  26
ATOM     26  C   UNL     1       4.167  -0.990   1.396  0.00  0.00    +0.107 C 
BRANCH  26  27
ATOM     27  C   UNL     1       5.532  -1.630   1.385  0.00  0.00    -0.027 A 
ATOM     28  C   UNL     1       5.658  -2.985   1.138  0.00  0.00    +0.005 A 
ATOM     29  C   UNL     1       6.909  -3.572   1.128  0.00  0.00    +0.000 A 
ATOM     30  C   UNL     1       8.034  -2.804   1.365  0.00  0.00    +0.000 A 
ATOM     31  C   UNL     1       7.908  -1.450   1.612  0.00  0.00    +0.000 A 
ATOM     32  C   UNL     1       6.657  -0.862   1.617  0.00  0.00    +0.005 A 
ENDBRANCH  26  27
BRANCH  26  33
ATOM     33  C   UNL     1       3.712  -0.737  -0.043  0.00  0.00    +0.062 C 
BRANCH  33  37
ATOM     34  C   UNL     1       0.007   1.389  -0.012  0.00  0.00    +0.000 A 
ATOM     35  C   UNL     1       1.202   2.083  -0.022  0.00  0.00    +0.000 A 
ATOM     36  C   UNL     1       2.401   1.395  -0.032  0.00  0.00    +0.004 A 
ATOM     37  C   UNL     1       2.405   0.013  -0.031  0.00  0.00    -0.045 A 
ATOM     38  C   UNL     1       1.209  -0.682  -0.020  0.00  0.00    +0.004 A 
ATOM     39  C   UNL     1       0.010   0.006  -0.012  0.00  0.00    +0.000 A 
ENDBRANCH  33  37
ENDBRANCH  26  33
ENDBRANCH  22  26
ENDBRANCH   1  23
TORSDOF 6
