REMARK  Name = ZINC12382290
REMARK  14 active torsions:
REMARK  status: ('A' for Active; 'I' for Inactive)
REMARK    1  A    between atoms: C_1  and  C_2
REMARK    2  A    between atoms: C_2  and  C_3
REMARK    3  A    between atoms: C_2  and  C_4
REMARK    4  A    between atoms: C_4  and  N_54
REMARK    5  A    between atoms: C_5  and  C_6
REMARK    6  A    between atoms: C_5  and  N_54
REMARK    7  A    between atoms: C_8  and  O_26
REMARK    8  A    between atoms: C_9  and  O_13
REMARK    9  A    between atoms: O_13  and  C_14
REMARK   10  A    between atoms: C_14  and  C_15
REMARK   11  A    between atoms: N_17  and  C_18
REMARK   12  A    between atoms: C_23  and  O_24
REMARK   13  A    between atoms: O_24  and  C_25
REMARK   14  A    between atoms: O_26  and  C_27
REMARK                            x       y       z     vdW  Elec       q    Type
REMARK                         _______ _______ _______ _____ _____    ______ ____
ROOT
ATOM      1  C   UNL     1      -0.688   1.612   1.249  0.00  0.00    -0.060 A 
ATOM      2  C   UNL     1      -0.338   2.820   1.824  0.00  0.00    +0.051 A 
ATOM      3  C   UNL     1      -0.995   3.262   2.961  0.00  0.00    +0.163 A 
ATOM      4  C   UNL     1      -2.000   2.483   3.528  0.00  0.00    +0.176 A 
ATOM      5  C   UNL     1      -2.342   1.272   2.949  0.00  0.00    +0.059 A 
ATOM      6  C   UNL     1      -1.686   0.839   1.811  0.00  0.00    +0.020 A 
ATOM      7  I   UNL     1      -3.855   0.096   3.797  0.00  0.00    -0.040 I 
ENDROOT
BRANCH   3   8
ATOM      8  O   UNL     1      -0.655   4.452   3.525  0.00  0.00    -0.491 OA
ATOM      9  C   UNL     1       0.385   5.198   2.890  0.00  0.00    +0.277 C 
ENDBRANCH   3   8
BRANCH   1  10
ATOM     10  C   UNL     1       0.024   1.136   0.009  0.00  0.00    -0.047 C 
BRANCH  10  11
ATOM     11  N   UNL     1      -0.695   1.629  -1.181  0.00  0.00    +0.382 N 
ATOM     12  H   UNL     1      -1.655   1.267  -1.170  0.00  0.00    -0.085 HD
ATOM     13  H   UNL     1      -0.715   2.655  -1.163  0.00  0.00    -0.085 HD
BRANCH  11  14
ATOM     14  C   UNL     1      -0.018   1.177  -2.412  0.00  0.00    -0.079 C 
BRANCH  14  16
ATOM     15  C   UNL     1      -0.023   1.344  -4.904  0.00  0.00    +0.005 C 
ATOM     16  C   UNL     1      -0.785   1.702  -3.627  0.00  0.00    -0.034 C 
ATOM     17  C   UNL     1      -2.175   1.065  -3.667  0.00  0.00    +0.005 C 
ENDBRANCH  14  16
ENDBRANCH  11  14
ENDBRANCH  10  11
ENDBRANCH   1  10
BRANCH   4  18
ATOM     18  O   UNL     1      -2.644   2.911   4.646  0.00  0.00    -0.478 OA
BRANCH  18  19
ATOM     19  C   UNL     1      -2.087   2.524   5.904  0.00  0.00    +0.325 C 
BRANCH  19  20
ATOM     20  C   UNL     1      -2.929   3.085   7.021  0.00  0.00    +0.255 C 
ATOM     21  O   UNL     1      -3.910   3.751   6.765  0.00  0.00    -0.272 OA
ATOM     22  N   UNL     1      -2.592   2.848   8.304  0.00  0.00    -0.280 N 
ATOM     23  H   UNL     1      -1.855   2.251   8.509  0.00  0.00    +0.155 HD
BRANCH  22  24
ATOM     24  C   UNL     1      -3.305   3.463   9.341  0.00  0.00    +0.076 A 
ATOM     25  C   UNL     1      -3.974   4.657   9.112  0.00  0.00    +0.027 A 
ATOM     26  C   UNL     1      -4.681   5.259  10.135  0.00  0.00    +0.002 A 
ATOM     27  C   UNL     1      -4.715   4.681  11.391  0.00  0.00    +0.004 A 
ATOM     28  C   UNL     1      -4.045   3.495  11.628  0.00  0.00    +0.047 A 
ATOM     29  C   UNL     1      -3.338   2.882  10.606  0.00  0.00    +0.141 A 
BRANCH  29  30
ATOM     30  O   UNL     1      -2.679   1.716  10.838  0.00  0.00    -0.493 OA
ATOM     31  C   UNL     1      -2.758   1.178  12.160  0.00  0.00    +0.277 C 
ENDBRANCH  29  30
ENDBRANCH  22  24
ENDBRANCH  19  20
ENDBRANCH  18  19
ENDBRANCH   4  18
TORSDOF 10
