REMARK  Name = ZINC38545691
REMARK  12 active torsions:
REMARK  status: ('A' for Active; 'I' for Inactive)
REMARK    1  A    between atoms: C_1  and  C_2
REMARK    2  A    between atoms: C_7  and  C_9
REMARK    3  A    between atoms: C_7  and  C_10
REMARK    4  A    between atoms: N_11  and  C_13
REMARK    5  A    between atoms: C_21  and  N_37
REMARK    6  A    between atoms: C_27  and  O_35
REMARK    7  A    between atoms: C_28  and  O_33
REMARK    8  A    between atoms: C_29  and  O_31
REMARK    9  A    between atoms: O_31  and  C_32
REMARK   10  A    between atoms: O_33  and  C_34
REMARK   11  A    between atoms: O_35  and  C_36
REMARK   12  A    between atoms: N_37  and  C_38
REMARK                            x       y       z     vdW  Elec       q    Type
REMARK                         _______ _______ _______ _____ _____    ______ ____
ROOT
ATOM      1  C   UNL     1      -2.462  -3.187  -0.437  0.00  0.00    +0.077 A 
ATOM      2  C   UNL     1      -2.123  -4.276  -1.183  0.00  0.00    +0.027 A 
ATOM      3  C   UNL     1      -2.930  -5.186  -1.757  0.00  0.00    +0.011 A 
ATOM      4  C   UNL     1      -4.292  -5.349  -1.767  0.00  0.00    -0.012 A 
ATOM      5  C   UNL     1      -5.221  -4.554  -1.097  0.00  0.00    -0.050 A 
ATOM      6  C   UNL     1      -4.933  -3.441  -0.401  0.00  0.00    +0.055 A 
ATOM      7  C   UNL     1      -3.761  -2.805  -0.109  0.00  0.00    +0.200 A 
ATOM      8  O   UNL     1      -3.866  -1.760   0.519  0.00  0.00    -0.286 OA
ATOM      9  C   UNL     1      -6.679  -4.967  -1.130  0.00  0.00    -0.040 C 
ATOM     10  C   UNL     1      -7.345  -4.563  -2.429  0.00  0.00    -0.007 C 
ATOM     11  C   UNL     1      -6.459  -4.894  -3.627  0.00  0.00    +0.035 C 
ATOM     12  C   UNL     1      -5.878  -6.276  -3.464  0.00  0.00    -0.033 A 
ATOM     13  C   UNL     1      -4.828  -6.485  -2.575  0.00  0.00    +0.031 A 
ATOM     14  C   UNL     1      -4.272  -7.759  -2.430  0.00  0.00    +0.173 A 
ATOM     15  C   UNL     1      -4.781  -8.816  -3.174  0.00  0.00    +0.204 A 
ATOM     16  C   UNL     1      -5.836  -8.600  -4.053  0.00  0.00    +0.165 A 
ATOM     17  C   UNL     1      -6.382  -7.330  -4.196  0.00  0.00    +0.054 A 
ENDROOT
BRANCH   1  27
ATOM     18  C   UNL     1      -0.071   0.838   1.306  0.00  0.00    +0.013 C 
ATOM     19  C   UNL     1      -0.150  -0.691   1.175  0.00  0.00    -0.014 C 
ATOM     20  C   UNL     1       0.661  -1.222  -0.039  0.00  0.00    +0.030 C 
ATOM     21  C   UNL     1       0.012  -2.621  -0.191  0.00  0.00    +0.075 C 
ATOM     22  C   UNL     1       0.566  -3.501   0.927  0.00  0.00    +0.028 C 
ATOM     23  C   UNL     1       0.357  -2.930   2.318  0.00  0.00    -0.033 C 
ATOM     24  C   UNL     1       0.362  -1.416   2.418  0.00  0.00    +0.014 C 
ATOM     25  C   UNL     1      -0.936  -3.495   2.923  0.00  0.00    +0.011 C 
ATOM     26  C   UNL     1       1.517  -3.451   3.203  0.00  0.00    +0.011 C 
ATOM     27  N   UNL     1      -1.429  -2.397   0.039  0.00  0.00    -0.323 N 
ATOM     28  C   UNL     1      -1.580  -1.180   0.852  0.00  0.00    +0.112 C 
ENDBRANCH   1  27
BRANCH   9  29
ATOM     29  N   UNL     1      -7.383  -4.326  -0.012  0.00  0.00    +0.382 N 
ATOM     30  C   UNL     1      -8.757  -4.841   0.061  0.00  0.00    -0.100 C 
ATOM     31  H   UNL     1      -6.902  -4.530   0.851  0.00  0.00    -0.085 HD
ATOM     32  H   UNL     1      -7.406  -3.328  -0.156  0.00  0.00    -0.085 HD
ENDBRANCH   9  29
BRANCH  16  33
ATOM     33  O   UNL     1      -6.336  -9.636  -4.777  0.00  0.00    -0.491 OA
ATOM     34  C   UNL     1      -7.420  -9.346  -5.661  0.00  0.00    +0.277 C 
ENDBRANCH  16  33
BRANCH  15  35
ATOM     35  O   UNL     1      -4.247 -10.060  -3.043  0.00  0.00    -0.488 OA
ATOM     36  C   UNL     1      -3.167 -10.399  -3.917  0.00  0.00    +0.277 C 
ENDBRANCH  15  35
BRANCH  14  37
ATOM     37  O   UNL     1      -3.241  -7.962  -1.568  0.00  0.00    -0.491 OA
ATOM     38  C   UNL     1      -3.572  -8.420  -0.256  0.00  0.00    +0.277 C 
ENDBRANCH  14  37
TORSDOF 5
