REMARK  Name = ZINC56159829
REMARK  10 active torsions:
REMARK  status: ('A' for Active; 'I' for Inactive)
REMARK    1  A    between atoms: C_1  and  C_2
REMARK    2  A    between atoms: C_2  and  C_4
REMARK    3  A    between atoms: C_2  and  N_17
REMARK    4  A    between atoms: C_7  and  N_10
REMARK    5  A    between atoms: N_13  and  C_14
REMARK    6  A    between atoms: N_17  and  C_18
REMARK    7  A    between atoms: C_18  and  C_20
REMARK    8  A    between atoms: C_18  and  C_21
REMARK    9  A    between atoms: N_23  and  C_24
REMARK   10  A    between atoms: C_29  and  C_30
REMARK                            x       y       z     vdW  Elec       q    Type
REMARK                         _______ _______ _______ _____ _____    ______ ____
ROOT
ATOM      1  C   UNL     1      -0.230   1.349  -0.178  0.00  0.00    -0.009 C 
ATOM      2  C   UNL     1       0.052  -0.151  -0.287  0.00  0.00    -0.043 C 
ENDROOT
BRANCH   2   3
ATOM      3  C   UNL     1       0.880  -0.418  -1.517  0.00  0.00    -0.062 A 
ATOM      4  C   UNL     1       2.246  -0.203  -1.490  0.00  0.00    +0.004 A 
ATOM      5  C   UNL     1       3.007  -0.447  -2.616  0.00  0.00    +0.023 A 
ATOM      6  C   UNL     1       2.400  -0.909  -3.777  0.00  0.00    +0.035 A 
ATOM      7  C   UNL     1       1.028  -1.124  -3.801  0.00  0.00    +0.023 A 
ATOM      8  C   UNL     1       0.273  -0.883  -2.669  0.00  0.00    +0.004 A 
BRANCH   6   9
ATOM      9  N   UNL     1       3.169  -1.156  -4.920  0.00  0.00    -0.269 N 
ATOM     10  C   UNL     1       4.420  -1.643  -4.798  0.00  0.00    +0.304 C 
ATOM     11  O   UNL     1       4.912  -1.785  -3.696  0.00  0.00    -0.253 OA
ATOM     12  N   UNL     1       5.125  -1.971  -5.899  0.00  0.00    -0.296 N 
ATOM     13  H   UNL     1       2.801  -0.978  -5.799  0.00  0.00    +0.156 HD
ATOM     14  H   UNL     1       4.732  -1.858  -6.778  0.00  0.00    +0.151 HD
BRANCH  12  15
ATOM     15  C   UNL     1       6.485  -2.500  -5.766  0.00  0.00    +0.075 C 
ATOM     16  C   UNL     1       7.550  -1.956  -6.721  0.00  0.00    +0.024 C 
ATOM     17  C   UNL     1       7.015  -3.378  -6.901  0.00  0.00    +0.024 C 
ENDBRANCH  12  15
ENDBRANCH   6   9
ENDBRANCH   2   3
BRANCH   2  18
ATOM     18  N   UNL     1       0.787  -0.599   0.904  0.00  0.00    +0.391 N 
ATOM     19  H   UNL     1       1.695  -0.160   0.924  0.00  0.00    -0.084 HD
ATOM     20  H   UNL     1       0.272  -0.343   1.733  0.00  0.00    -0.084 HD
BRANCH  18  21
ATOM     21  C   UNL     1       0.949  -2.058   0.860  0.00  0.00    +0.014 C 
ATOM     22  C   UNL     1      -0.423  -2.727   0.970  0.00  0.00    -0.004 C 
BRANCH  21  23
ATOM     23  C   UNL     1       1.818  -2.503   2.008  0.00  0.00    +0.203 C 
ATOM     24  O   UNL     1       2.259  -1.684   2.786  0.00  0.00    -0.277 OA
ATOM     25  N   UNL     1       2.105  -3.810   2.169  0.00  0.00    -0.286 N 
ATOM     26  H   UNL     1       1.806  -4.457   1.511  0.00  0.00    +0.155 HD
BRANCH  25  27
ATOM     27  C   UNL     1       2.830  -4.232   3.282  0.00  0.00    +0.051 A 
ATOM     28  C   UNL     1       3.708  -3.362   3.913  0.00  0.00    +0.024 A 
ATOM     29  C   UNL     1       4.426  -3.782   5.015  0.00  0.00    +0.002 A 
ATOM     30  C   UNL     1       4.276  -5.071   5.500  0.00  0.00    +0.001 A 
ATOM     31  C   UNL     1       3.409  -5.949   4.886  0.00  0.00    +0.021 A 
ATOM     32  C   UNL     1       2.672  -5.536   3.773  0.00  0.00    +0.073 A 
BRANCH  32  33
ATOM     33  C   UNL     1       1.764  -6.441   3.135  0.00  0.00    +0.101 C 
ATOM     34  N   UNL     1       1.045  -7.160   2.628  0.00  0.00    -0.191 NA
ENDBRANCH  32  33
ENDBRANCH  25  27
ENDBRANCH  21  23
ENDBRANCH  18  21
ENDBRANCH   2  18
TORSDOF 8
