REMARK  Name = ZINC33685900
REMARK  7 active torsions:
REMARK  status: ('A' for Active; 'I' for Inactive)
REMARK    1  A    between atoms: C_1  and  C_2
REMARK    2  A    between atoms: C_3  and  C_30
REMARK    3  A    between atoms: C_4  and  C_13
REMARK    4  A    between atoms: C_16  and  N_19
REMARK    5  A    between atoms: C_20  and  C_22
REMARK    6  A    between atoms: C_23  and  C_24
REMARK    7  A    between atoms: N_32  and  C_33
REMARK                            x       y       z     vdW  Elec       q    Type
REMARK                         _______ _______ _______ _____ _____    ______ ____
ROOT
ATOM      1  C   UNL     1       4.972   2.091  -2.997  0.00  0.00    +0.064 C 
ATOM      2  C   UNL     1       4.333   1.915  -1.643  0.00  0.00    +0.025 C 
ATOM      3  C   UNL     1       3.378   0.960  -1.470  0.00  0.00    +0.058 C 
ATOM      4  C   UNL     1       2.700   0.830  -0.128  0.00  0.00    +0.142 C 
ATOM      5  N   UNL     1       3.620   1.331   0.912  0.00  0.00    -0.300 N 
ATOM      6  C   UNL     1       3.709   0.591   2.158  0.00  0.00    +0.109 C 
ATOM      7  C   UNL     1       4.072   1.399   3.381  0.00  0.00    +0.030 C 
ATOM      8  C   UNL     1       5.335   2.229   3.158  0.00  0.00    +0.078 C 
ATOM      9  S   UNL     1       4.963   3.488   1.905  0.00  0.00    -0.092 S 
ATOM     10  C   UNL     1       4.380   2.427   0.621  0.00  0.00    +0.135 C 
ATOM     11  N   UNL     1       4.711   2.696  -0.634  0.00  0.00    -0.341 N 
ATOM     12  H   UNL     1       5.314   3.586  -0.865  0.00  0.00    +0.167 HD
ENDROOT
BRANCH   4  13
ATOM     13  C   UNL     1       1.433   1.646  -0.118  0.00  0.00    -0.022 A 
ATOM     14  C   UNL     1       0.211   1.023  -0.293  0.00  0.00    +0.007 A 
ATOM     15  C   UNL     1      -0.952   1.768  -0.291  0.00  0.00    +0.023 A 
ATOM     16  C   UNL     1      -0.893   3.143  -0.102  0.00  0.00    +0.034 A 
ATOM     17  C   UNL     1       0.336   3.765   0.074  0.00  0.00    +0.023 A 
ATOM     18  C   UNL     1       1.496   3.015   0.065  0.00  0.00    +0.007 A 
BRANCH  16  19
ATOM     19  N   UNL     1      -2.069   3.900  -0.094  0.00  0.00    -0.282 N 
ATOM     20  C   UNL     1      -2.065   5.157  -0.581  0.00  0.00    +0.241 C 
ATOM     21  O   UNL     1      -1.063   5.600  -1.112  0.00  0.00    -0.270 OA
ATOM     22  H   UNL     1      -2.997   3.470   0.310  0.00  0.00    +0.155 HD
BRANCH  20  23
ATOM     23  C   UNL     1      -3.265   5.988  -0.471  0.00  0.00    +0.068 C 
ATOM     24  C   UNL     1      -3.261   7.245  -0.959  0.00  0.00    +0.013 C 
BRANCH  24  25
ATOM     25  C   UNL     1      -4.467   8.081  -0.848  0.00  0.00    -0.025 A 
ATOM     26  C   UNL     1      -5.622   7.573  -0.244  0.00  0.00    +0.008 A 
ATOM     27  C   UNL     1      -6.746   8.364  -0.140  0.00  0.00    +0.001 A 
ATOM     28  C   UNL     1      -6.738   9.654  -0.642  0.00  0.00    +0.000 A 
ATOM     29  C   UNL     1      -5.601  10.162  -1.246  0.00  0.00    +0.001 A 
ATOM     30  C   UNL     1      -4.467   9.386  -1.352  0.00  0.00    +0.008 A 
ENDBRANCH  24  25
ENDBRANCH  20  23
ENDBRANCH  16  19
ENDBRANCH   4  13
BRANCH   3  31
ATOM     31  C   UNL     1       3.027   0.105  -2.530  0.00  0.00    +0.248 C 
ATOM     32  O   UNL     1       3.578   0.216  -3.611  0.00  0.00    -0.270 OA
ATOM     33  N   UNL     1       2.081  -0.838  -2.350  0.00  0.00    -0.282 N 
ATOM     34  H   UNL     1       1.530  -0.890  -1.399  0.00  0.00    +0.155 HD
BRANCH  33  35
ATOM     35  C   UNL     1       1.799  -1.750  -3.372  0.00  0.00    +0.034 A 
ATOM     36  C   UNL     1       1.468  -3.063  -3.062  0.00  0.00    +0.023 A 
ATOM     37  C   UNL     1       1.185  -3.959  -4.073  0.00  0.00    +0.002 A 
ATOM     38  C   UNL     1       1.242  -3.555  -5.394  0.00  0.00    +0.000 A 
ATOM     39  C   UNL     1       1.577  -2.250  -5.707  0.00  0.00    +0.002 A 
ATOM     40  C   UNL     1       1.856  -1.347  -4.700  0.00  0.00    +0.023 A 
ENDBRANCH  33  35
ENDBRANCH   3  31
TORSDOF 6
