REMARK  Name = ZINC43247012
REMARK  9 active torsions:
REMARK  status: ('A' for Active; 'I' for Inactive)
REMARK    1  A    between atoms: C_1  and  C_2
REMARK    2  A    between atoms: C_2  and  C_3
REMARK    3  A    between atoms: C_3  and  C_5
REMARK    4  A    between atoms: C_3  and  N_22
REMARK    5  A    between atoms: C_5  and  C_7
REMARK    6  A    between atoms: C_5  and  S_13
REMARK    7  A    between atoms: C_10  and  C_12
REMARK    8  A    between atoms: S_13  and  C_14
REMARK    9  A    between atoms: C_18  and  N_20
REMARK                            x       y       z     vdW  Elec       q    Type
REMARK                         _______ _______ _______ _____ _____    ______ ____
ROOT
ATOM      1  C   UNL     1       0.867  -2.053  -1.181  0.00  0.00    +0.076 C 
ENDROOT
BRANCH   1   2
ATOM      2  C   UNL     1       1.721  -2.459  -0.009  0.00  0.00    +0.002 A 
ATOM      3  C   UNL     1       1.393  -3.220   1.063  0.00  0.00    +0.012 A 
ATOM      4  C   UNL     1       2.351  -3.467   2.029  0.00  0.00    +0.011 A 
ATOM      5  C   UNL     1       3.591  -2.939   1.875  0.00  0.00    -0.013 A 
ATOM      6  S   UNL     1       3.431  -2.068   0.325  0.00  0.00    -0.097 S 
ATOM      7  C   UNL     1       4.792  -3.061   2.776  0.00  0.00    +0.051 C 
ENDBRANCH   1   2
BRANCH   1   8
ATOM      8  C   UNL     1       0.779  -0.526  -1.245  0.00  0.00    -0.057 C 
BRANCH   8   9
ATOM      9  N   UNL     1       0.037  -0.128  -2.448  0.00  0.00    +0.381 N 
ATOM     10  H   UNL     1       0.046   0.878  -2.531  0.00  0.00    -0.090 HD
ATOM     11  H   UNL     1       0.471  -0.536  -3.262  0.00  0.00    -0.090 HD
ATOM     12  H   UNL     1      -0.916  -0.451  -2.377  0.00  0.00    -0.090 HD
ENDBRANCH   8   9
BRANCH   8  14
ATOM     13  C   UNL     1       0.078   1.525  -0.003  0.00  0.00    +0.002 C 
ATOM     14  C   UNL     1       0.055  -0.005  -0.002  0.00  0.00    -0.018 C 
ENDBRANCH   8  14
ENDBRANCH   1   8
BRANCH   1  15
ATOM     15  S   UNL     1       1.605  -2.680  -2.715  0.00  0.00    -0.079 S 
BRANCH  15  16
ATOM     16  C   UNL     1       1.413  -4.428  -2.596  0.00  0.00    +0.192 A 
ATOM     17  N   UNL     1       0.904  -4.947  -1.489  0.00  0.00    -0.207 NA
ATOM     18  C   UNL     1       0.744  -6.263  -1.364  0.00  0.00    +0.122 A 
ATOM     19  C   UNL     1       1.119  -7.093  -2.416  0.00  0.00    +0.086 A 
ATOM     20  C   UNL     1       1.651  -6.511  -3.563  0.00  0.00    +0.122 A 
ATOM     21  N   UNL     1       1.777  -5.188  -3.619  0.00  0.00    -0.207 NA
ATOM     22  N   UNL     1       0.210  -6.798  -0.203  0.00  0.00    -0.343 N 
ATOM     23  H   UNL     1      -0.049  -6.213   0.527  0.00  0.00    +0.144 HD
ATOM     24  H   UNL     1       0.096  -7.758  -0.118  0.00  0.00    +0.144 HD
BRANCH  20  25
ATOM     25  N   UNL     1       2.039  -7.300  -4.635  0.00  0.00    -0.343 N 
ATOM     26  H   UNL     1       1.941  -8.264  -4.589  0.00  0.00    +0.144 HD
ATOM     27  H   UNL     1       2.409  -6.887  -5.432  0.00  0.00    +0.144 HD
ENDBRANCH  20  25
ENDBRANCH  15  16
ENDBRANCH   1  15
TORSDOF 7
