REMARK  Name = ZINC52094699
REMARK  9 active torsions:
REMARK  status: ('A' for Active; 'I' for Inactive)
REMARK    1  A    between atoms: C_1  and  C_2
REMARK    2  A    between atoms: C_2  and  C_3
REMARK    3  A    between atoms: C_3  and  N_4
REMARK    4  A    between atoms: N_4  and  C_5
REMARK    5  A    between atoms: C_5  and  C_7
REMARK    6  A    between atoms: C_5  and  C_20
REMARK    7  A    between atoms: C_20  and  C_21
REMARK    8  A    between atoms: C_20  and  C_22
REMARK    9  A    between atoms: C_20  and  C_23
REMARK                            x       y       z     vdW  Elec       q    Type
REMARK                         _______ _______ _______ _____ _____    ______ ____
ROOT
ATOM      1  C   UNL     1      -2.730  -3.904   0.017  0.00  0.00    -0.045 A 
ATOM      2  C   UNL     1      -1.566  -4.487   0.477  0.00  0.00    +0.031 A 
ATOM      3  C   UNL     1      -1.458  -5.869   0.525  0.00  0.00    +0.067 A 
ATOM      4  C   UNL     1      -2.527  -6.665   0.106  0.00  0.00    +0.068 A 
ATOM      5  C   UNL     1      -3.692  -6.071  -0.354  0.00  0.00    +0.043 A 
ATOM      6  C   UNL     1      -3.792  -4.693  -0.393  0.00  0.00    +0.022 A 
ATOM      7 BR   UNL     1      -5.384  -3.881  -1.013  0.00  0.00    -0.050 Br
ATOM      8  N   UNL     1      -2.129  -7.990   0.268  0.00  0.00    -0.306 N 
ATOM      9  H   UNL     1      -2.663  -8.772   0.060  0.00  0.00    +0.170 HD
ATOM     10  C   UNL     1      -0.876  -8.000   0.761  0.00  0.00    +0.325 A 
ATOM     11  O   UNL     1      -0.232  -9.000   1.018  0.00  0.00    -0.247 OA
ATOM     12  N   UNL     1      -0.444  -6.735   0.927  0.00  0.00    -0.306 N 
ATOM     13  H   UNL     1       0.425  -6.473   1.268  0.00  0.00    +0.170 HD
ENDROOT
BRANCH   1  14
ATOM     14  C   UNL     1      -2.847  -2.402  -0.035  0.00  0.00    -0.034 C 
BRANCH  14  15
ATOM     15  C   UNL     1      -3.524  -1.899   1.242  0.00  0.00    -0.046 C 
ATOM     16  C   UNL     1      -3.536  -0.369   1.245  0.00  0.00    +0.009 C 
ATOM     17  C   UNL     1      -4.962  -2.421   1.297  0.00  0.00    +0.009 C 
ATOM     18  C   UNL     1      -2.752  -2.405   2.462  0.00  0.00    +0.009 C 
ENDBRANCH  14  15
BRANCH  14  19
ATOM     19  N   UNL     1      -1.508  -1.810  -0.144  0.00  0.00    +0.384 N 
ATOM     20  H   UNL     1      -0.926  -2.151   0.606  0.00  0.00    -0.085 HD
ATOM     21  H   UNL     1      -1.578  -0.805  -0.085  0.00  0.00    -0.085 HD
BRANCH  19  22
ATOM     22  C   UNL     1      -0.911  -2.183  -1.434  0.00  0.00    -0.082 C 
BRANCH  22  24
ATOM     23  C   UNL     1       1.052  -1.857  -2.945  0.00  0.00    +0.002 C 
ATOM     24  C   UNL     1       0.431  -1.468  -1.601  0.00  0.00    -0.022 C 
ENDBRANCH  22  24
ENDBRANCH  19  22
ENDBRANCH  14  19
ENDBRANCH   1  14
TORSDOF 5
