REMARK  Name = ZINC31959726
REMARK  9 active torsions:
REMARK  status: ('A' for Active; 'I' for Inactive)
REMARK    1  A    between atoms: C_1  and  C_2
REMARK    2  A    between atoms: C_2  and  C_3
REMARK    3  A    between atoms: C_2  and  C_4
REMARK    4  A    between atoms: C_4  and  O_5
REMARK    5  A    between atoms: O_5  and  C_6
REMARK    6  A    between atoms: C_11  and  C_12
REMARK    7  A    between atoms: N_17  and  C_18
REMARK    8  A    between atoms: C_18  and  C_20
REMARK    9  A    between atoms: C_20  and  N_21
REMARK                            x       y       z     vdW  Elec       q    Type
REMARK                         _______ _______ _______ _____ _____    ______ ____
ROOT
ATOM      1  C   UNL     1      -1.435  -4.773  -0.358  0.00  0.00    +0.058 A 
ATOM      2  C   UNL     1      -0.225  -4.178  -0.460  0.00  0.00    +0.074 A 
ATOM      3  S   UNL     1       0.869  -5.581  -0.572  0.00  0.00    -0.060 S 
ATOM      4  C   UNL     1      -0.275  -6.810  -0.482  0.00  0.00    +0.163 A 
ATOM      5  N   UNL     1      -1.452  -6.139  -0.364  0.00  0.00    -0.335 N 
ATOM      6  N   UNL     1      -0.075  -8.128  -0.512  0.00  0.00    -0.158 NA
ATOM      7  H   UNL     1      -2.290  -6.622  -0.290  0.00  0.00    +0.168 HD
ENDROOT
BRANCH   1  13
ATOM      8  C   UNL     1      -2.619  -2.591  -0.102  0.00  0.00    +0.130 A 
ATOM      9  C   UNL     1      -3.790  -1.859   0.003  0.00  0.00    +0.046 A 
ATOM     10  C   UNL     1      -5.013  -2.502  -0.023  0.00  0.00    +0.004 A 
ATOM     11  C   UNL     1      -5.077  -3.878  -0.153  0.00  0.00    +0.001 A 
ATOM     12  C   UNL     1      -3.919  -4.621  -0.259  0.00  0.00    +0.013 A 
ATOM     13  C   UNL     1      -2.679  -3.983  -0.239  0.00  0.00    +0.040 A 
BRANCH   8  14
ATOM     14  O   UNL     1      -1.416  -1.960  -0.077  0.00  0.00    -0.491 OA
BRANCH  14  15
ATOM     15  C   UNL     1      -1.431  -0.539   0.066  0.00  0.00    +0.232 C 
BRANCH  15  17
ATOM     16  C   UNL     1      -0.014   1.519   0.101  0.00  0.00    +0.010 C 
ATOM     17  C   UNL     1       0.005  -0.011   0.073  0.00  0.00    +0.020 C 
ATOM     18  C   UNL     1       0.734  -0.534   1.312  0.00  0.00    +0.010 C 
ENDBRANCH  15  17
ENDBRANCH  14  15
ENDBRANCH   8  14
ENDBRANCH   1  13
BRANCH   6  19
ATOM     19  C   UNL     1       1.156  -8.610  -0.626  0.00  0.00    +0.221 C 
ATOM     20  O   UNL     1       2.103  -7.850  -0.703  0.00  0.00    -0.276 OA
BRANCH  19  21
ATOM     21  C   UNL     1       1.382 -10.100  -0.661  0.00  0.00    +0.013 C 
BRANCH  21  22
ATOM     22  N   UNL     1       2.820 -10.374  -0.791  0.00  0.00    +0.384 N 
ATOM     23  H   UNL     1       2.971 -11.372  -0.815  0.00  0.00    -0.089 HD
ATOM     24  H   UNL     1       3.165  -9.962  -1.645  0.00  0.00    -0.089 HD
ATOM     25  H   UNL     1       3.310  -9.978  -0.004  0.00  0.00    -0.089 HD
ENDBRANCH  21  22
ENDBRANCH  19  21
ENDBRANCH   6  19
TORSDOF 7
