REMARK  Name = ZINC62727922
REMARK  9 active torsions:
REMARK  status: ('A' for Active; 'I' for Inactive)
REMARK    1  A    between atoms: C_1  and  C_2
REMARK    2  A    between atoms: C_2  and  C_3
REMARK    3  A    between atoms: C_2  and  C_4
REMARK    4  A    between atoms: C_2  and  N_5
REMARK    5  A    between atoms: N_5  and  C_6
REMARK    6  A    between atoms: C_6  and  C_7
REMARK    7  A    between atoms: C_10  and  O_14
REMARK    8  A    between atoms: O_14  and  C_15
REMARK    9  A    between atoms: C_15  and  C_16
REMARK                            x       y       z     vdW  Elec       q    Type
REMARK                         _______ _______ _______ _____ _____    ______ ____
ROOT
ATOM      1  C   UNL     1       2.773  -0.455  -2.457  0.00  0.00    -0.063 A 
ATOM      2  C   UNL     1       3.456  -1.657  -2.436  0.00  0.00    +0.005 A 
ATOM      3  C   UNL     1       4.104  -2.105  -3.571  0.00  0.00    +0.047 A 
ATOM      4  C   UNL     1       4.069  -1.348  -4.733  0.00  0.00    +0.135 A 
ATOM      5  C   UNL     1       3.382  -0.142  -4.752  0.00  0.00    +0.060 A 
ATOM      6  C   UNL     1       2.731   0.299  -3.615  0.00  0.00    +0.020 A 
ATOM      7 BR   UNL     1       3.332   0.893  -6.333  0.00  0.00    -0.047 Br
ENDROOT
BRANCH   1   8
ATOM      8  C   UNL     1       2.068   0.031  -1.217  0.00  0.00    -0.046 C 
BRANCH   8   9
ATOM      9  N   UNL     1       0.690  -0.478  -1.207  0.00  0.00    +0.385 N 
ATOM     10  H   UNL     1       0.703  -1.487  -1.212  0.00  0.00    -0.085 HD
ATOM     11  H   UNL     1       0.202  -0.144  -2.024  0.00  0.00    -0.085 HD
BRANCH   9  13
ATOM     12  C   UNL     1      -0.019   1.526   0.010  0.00  0.00    -0.011 C 
ATOM     13  C   UNL     1       0.002  -0.004   0.002  0.00  0.00    -0.077 C 
ATOM     14  C   UNL     1       0.742  -0.511   1.242  0.00  0.00    -0.011 C 
ATOM     15  C   UNL     1      -1.433  -0.534   0.013  0.00  0.00    -0.011 C 
ENDBRANCH   9  13
ENDBRANCH   8   9
ENDBRANCH   1   8
BRANCH   4  16
ATOM     16  O   UNL     1       4.706  -1.787  -5.850  0.00  0.00    -0.482 OA
BRANCH  16  17
ATOM     17  C   UNL     1       5.393  -3.036  -5.758  0.00  0.00    +0.325 C 
BRANCH  17  18
ATOM     18  C   UNL     1       6.034  -3.357  -7.083  0.00  0.00    +0.258 C 
ATOM     19  O   UNL     1       5.914  -2.591  -8.015  0.00  0.00    -0.272 OA
ATOM     20  N   UNL     1       6.740  -4.495  -7.233  0.00  0.00    -0.238 N 
ATOM     21  C   UNL     1       7.313  -4.782  -8.418  0.00  0.00    +0.303 C 
ATOM     22  O   UNL     1       7.194  -4.014  -9.353  0.00  0.00    -0.253 OA
ATOM     23  N   UNL     1       8.020  -5.920  -8.568  0.00  0.00    -0.313 N 
ATOM     24  H   UNL     1       6.836  -5.108  -6.487  0.00  0.00    +0.159 HD
ATOM     25  H   UNL     1       8.115  -6.533  -7.822  0.00  0.00    +0.146 HD
ATOM     26  H   UNL     1       8.432  -6.126  -9.421  0.00  0.00    +0.146 HD
ENDBRANCH  17  18
ENDBRANCH  16  17
ENDBRANCH   4  16
TORSDOF 6
