REMARK  Name = ZINC37006601
REMARK  13 active torsions:
REMARK  status: ('A' for Active; 'I' for Inactive)
REMARK    1  A    between atoms: C_1  and  C_2
REMARK    2  A    between atoms: C_7  and  C_8
REMARK    3  A    between atoms: C_8  and  N_9
REMARK    4  A    between atoms: C_17  and  O_40
REMARK    5  A    between atoms: C_22  and  C_23
REMARK    6  A    between atoms: C_22  and  C_24
REMARK    7  A    between atoms: N_26  and  C_27
REMARK    8  A    between atoms: C_27  and  C_28
REMARK    9  A    between atoms: C_28  and  C_29
REMARK   10  A    between atoms: C_29  and  N_30
REMARK   11  A    between atoms: C_32  and  C_39
REMARK   12  A    between atoms: C_35  and  C_38
REMARK   13  A    between atoms: O_40  and  C_41
REMARK                            x       y       z     vdW  Elec       q    Type
REMARK                         _______ _______ _______ _____ _____    ______ ____
ROOT
ATOM      1  N   UNL     1      -1.296   0.921   2.620  0.00  0.00    -0.276 N 
ATOM      2  C   UNL     1      -1.628   2.128   2.105  0.00  0.00    +0.264 C 
ATOM      3  O   UNL     1      -0.944   2.673   1.259  0.00  0.00    -0.268 OA
ATOM      4  C   UNL     1      -2.861   2.747   2.622  0.00  0.00    +0.106 A 
ATOM      5  C   UNL     1      -3.533   3.832   2.184  0.00  0.00    +0.041 A 
ATOM      6  C   UNL     1      -4.656   3.994   3.014  0.00  0.00    +0.001 A 
ATOM      7  C   UNL     1      -5.687   4.947   3.008  0.00  0.00    +0.013 A 
ATOM      8  C   UNL     1      -6.655   4.822   3.969  0.00  0.00    +0.046 A 
ATOM      9  C   UNL     1      -6.630   3.801   4.915  0.00  0.00    +0.122 A 
ATOM     10  C   UNL     1      -5.623   2.847   4.945  0.00  0.00    +0.072 A 
ATOM     11  C   UNL     1      -4.623   2.950   3.979  0.00  0.00    +0.053 A 
ATOM     12  N   UNL     1      -3.518   2.206   3.732  0.00  0.00    -0.334 N 
ATOM     13  C   UNL     1      -2.989   1.032   4.435  0.00  0.00    +0.157 C 
ATOM     14  C   UNL     1      -2.224   0.153   3.442  0.00  0.00    +0.129 C 
ATOM     15  C   UNL     1      -1.437  -0.904   4.220  0.00  0.00    +0.043 C 
ENDROOT
BRANCH  14  16
ATOM     16  C   UNL     1      -3.211  -0.544   2.541  0.00  0.00    +0.238 C 
ATOM     17  O   UNL     1      -4.355  -0.709   2.907  0.00  0.00    -0.273 OA
ATOM     18  N   UNL     1      -2.821  -0.985   1.328  0.00  0.00    -0.314 N 
ATOM     19  H   UNL     1      -1.891  -0.918   1.063  0.00  0.00    +0.149 HD
BRANCH  18  20
ATOM     20  C   UNL     1      -3.804  -1.565   0.409  0.00  0.00    +0.102 C 
BRANCH  20  21
ATOM     21  C   UNL     1      -3.106  -1.982  -0.887  0.00  0.00    +0.000 C 
BRANCH  21  22
ATOM     22  C   UNL     1      -4.132  -2.588  -1.847  0.00  0.00    -0.077 C 
BRANCH  22  23
ATOM     23  N   UNL     1      -3.462  -2.988  -3.091  0.00  0.00    +0.380 N 
ATOM     24  C   UNL     1      -2.941  -1.795  -3.770  0.00  0.00    -0.076 C 
ATOM     25  C   UNL     1      -2.172  -2.213  -5.025  0.00  0.00    -0.031 C 
ATOM     26  C   UNL     1      -3.115  -2.966  -5.967  0.00  0.00    +0.003 C 
ATOM     27  C   UNL     1      -3.710  -4.167  -5.225  0.00  0.00    -0.031 C 
ATOM     28  C   UNL     1      -4.422  -3.676  -3.962  0.00  0.00    -0.076 C 
ATOM     29  C   UNL     1      -4.713  -4.882  -6.133  0.00  0.00    +0.005 C 
ATOM     30  C   UNL     1      -1.007  -3.123  -4.631  0.00  0.00    +0.005 C 
ATOM     31  H   UNL     1      -2.698  -3.611  -2.876  0.00  0.00    -0.082 HD
ENDBRANCH  22  23
ENDBRANCH  21  22
ENDBRANCH  20  21
ENDBRANCH  18  20
ENDBRANCH  14  16
BRANCH   9  32
ATOM     32  O   UNL     1      -7.624   3.738   5.839  0.00  0.00    -0.495 OA
ATOM     33  C   UNL     1      -8.639   4.741   5.770  0.00  0.00    +0.277 C 
ENDBRANCH   9  32
BRANCH   1  34
ATOM     34  C   UNL     1       0.031   0.367   2.338  0.00  0.00    +0.144 C 
BRANCH  34  41
ATOM     35  C   UNL     1       2.805  -0.426   2.192  0.00  0.00    +0.044 C 
ATOM     36  C   UNL     1       2.342   0.497   3.290  0.00  0.00    -0.046 A 
ATOM     37  C   UNL     1       3.245   0.969   4.224  0.00  0.00    +0.003 A 
ATOM     38  C   UNL     1       2.821   1.815   5.230  0.00  0.00    +0.000 A 
ATOM     39  C   UNL     1       1.492   2.191   5.303  0.00  0.00    +0.000 A 
ATOM     40  C   UNL     1       0.589   1.720   4.369  0.00  0.00    +0.005 A 
ATOM     41  C   UNL     1       1.014   0.877   3.360  0.00  0.00    -0.027 A 
ENDBRANCH  34  41
ENDBRANCH   1  34
TORSDOF 8
