REMARK  Name = ZINC46280697
REMARK  11 active torsions:
REMARK  status: ('A' for Active; 'I' for Inactive)
REMARK    1  A    between atoms: C_1  and  C_2
REMARK    2  A    between atoms: C_2  and  N_3
REMARK    3  A    between atoms: N_3  and  C_4
REMARK    4  A    between atoms: N_3  and  C_6
REMARK    5  A    between atoms: C_4  and  C_5
REMARK    6  A    between atoms: C_6  and  C_8
REMARK    7  A    between atoms: C_6  and  C_9
REMARK    8  A    between atoms: C_9  and  N_10
REMARK    9  A    between atoms: N_13  and  N_14
REMARK   10  A    between atoms: C_15  and  C_17
REMARK   11  A    between atoms: N_26  and  C_28
REMARK                            x       y       z     vdW  Elec       q    Type
REMARK                         _______ _______ _______ _____ _____    ______ ____
ROOT
ATOM      1  N   UNL     1      -2.923  -0.131   1.567  0.00  0.00    -0.228 N 
ATOM      2  C   UNL     1      -3.573   0.580   2.510  0.00  0.00    +0.281 C 
ATOM      3  O   UNL     1      -4.750   0.367   2.728  0.00  0.00    -0.267 OA
ATOM      4  H   UNL     1      -1.984   0.039   1.394  0.00  0.00    +0.173 HD
ENDROOT
BRANCH   2   5
ATOM      5  C   UNL     1      -2.856   1.618   3.277  0.00  0.00    +0.155 A 
ATOM      6  C   UNL     1      -3.556   2.395   4.313  0.00  0.00    +0.020 A 
ATOM      7  C   UNL     1      -4.899   2.203   4.620  0.00  0.00    +0.011 A 
ATOM      8  C   UNL     1      -5.485   2.971   5.603  0.00  0.00    +0.001 A 
ATOM      9  C   UNL     1      -4.751   3.932   6.287  0.00  0.00    +0.001 A 
ATOM     10  C   UNL     1      -3.419   4.138   5.998  0.00  0.00    +0.014 A 
ATOM     11  C   UNL     1      -2.809   3.373   5.009  0.00  0.00    +0.050 A 
ATOM     12  C   UNL     1      -1.396   3.527   4.638  0.00  0.00    +0.275 A 
ATOM     13  O   UNL     1      -0.691   4.349   5.196  0.00  0.00    -0.266 OA
ATOM     14  N   UNL     1      -0.897   2.737   3.665  0.00  0.00    -0.231 N 
ATOM     15  N   UNL     1      -1.587   1.854   3.049  0.00  0.00    -0.163 NA
ATOM     16  C   UNL     1       0.513   2.896   3.298  0.00  0.00    +0.176 C 
ENDBRANCH   2   5
BRANCH   1  20
ATOM     17  N   UNL     1      -1.648  -1.590  -0.345  0.00  0.00    -0.300 N 
ATOM     18  C   UNL     1      -2.952  -1.826  -0.103  0.00  0.00    +0.316 C 
ATOM     19  O   UNL     1      -3.543  -2.681  -0.736  0.00  0.00    -0.251 OA
ATOM     20  N   UNL     1      -3.603  -1.115   0.839  0.00  0.00    -0.218 N 
ATOM     21  H   UNL     1      -1.177  -0.908   0.160  0.00  0.00    +0.150 HD
ATOM     22  H   UNL     1      -4.542  -1.285   1.013  0.00  0.00    +0.174 HD
BRANCH  17  23
ATOM     23  C   UNL     1      -0.941  -2.363  -1.369  0.00  0.00    +0.090 C 
BRANCH  23  24
ATOM     24  C   UNL     1       0.540  -1.978  -1.367  0.00  0.00    -0.054 C 
ATOM     25  C   UNL     1       1.265  -2.734  -2.482  0.00  0.00    -0.012 C 
BRANCH  24  26
ATOM     26  N   UNL     1       0.671  -0.532  -1.589  0.00  0.00    +0.382 N 
ATOM     27  H   UNL     1       0.114  -0.036  -0.910  0.00  0.00    -0.081 HD
BRANCH  26  29
ATOM     28  C   UNL     1       2.523  -0.343   0.002  0.00  0.00    -0.017 C 
ATOM     29  C   UNL     1       2.080  -0.141  -1.448  0.00  0.00    -0.082 C 
ENDBRANCH  26  29
BRANCH  26  30
ATOM     30  C   UNL     1       0.204  -0.201  -2.942  0.00  0.00    -0.082 C 
ATOM     31  C   UNL     1       0.194   1.318  -3.120  0.00  0.00    -0.017 C 
ENDBRANCH  26  30
ENDBRANCH  24  26
ENDBRANCH  23  24
ENDBRANCH  17  23
ENDBRANCH   1  20
TORSDOF 7
