REMARK  Name = ZINC66939691
REMARK  11 active torsions:
REMARK  status: ('A' for Active; 'I' for Inactive)
REMARK    1  A    between atoms: C_1  and  C_2
REMARK    2  A    between atoms: C_4  and  O_26
REMARK    3  A    between atoms: C_5  and  O_24
REMARK    4  A    between atoms: C_7  and  C_8
REMARK    5  A    between atoms: C_8  and  C_10
REMARK    6  A    between atoms: C_8  and  N_11
REMARK    7  A    between atoms: N_11  and  C_12
REMARK    8  A    between atoms: C_12  and  C_14
REMARK    9  A    between atoms: C_12  and  C_21
REMARK   10  A    between atoms: O_24  and  C_25
REMARK   11  A    between atoms: O_26  and  C_27
REMARK                            x       y       z     vdW  Elec       q    Type
REMARK                         _______ _______ _______ _____ _____    ______ ____
ROOT
ATOM      1  N   UNL     1      -0.426  -0.842   3.580  0.00  0.00    +0.394 N 
ATOM      2  H   UNL     1      -1.326  -1.230   3.340  0.00  0.00    -0.083 HD
ATOM      3  H   UNL     1       0.241  -1.589   3.700  0.00  0.00    -0.083 HD
ENDROOT
BRANCH   1   4
ATOM      4  C   UNL     1       0.025   0.050   2.503  0.00  0.00    -0.042 C 
ATOM      5  C   UNL     1       1.442   0.540   2.808  0.00  0.00    -0.009 C 
BRANCH   4  12
ATOM      6  C   UNL     1      -0.018   1.503   0.010  0.00  0.00    +0.044 C 
ATOM      7  C   UNL     1       0.002  -0.004   0.002  0.00  0.00    -0.045 A 
ATOM      8  C   UNL     1       0.006  -0.687  -1.200  0.00  0.00    +0.053 A 
ATOM      9  C   UNL     1       0.025  -2.072  -1.210  0.00  0.00    +0.162 A 
ATOM     10  C   UNL     1       0.040  -2.773  -0.007  0.00  0.00    +0.162 A 
ATOM     11  C   UNL     1       0.036  -2.083   1.194  0.00  0.00    +0.051 A 
ATOM     12  C   UNL     1       0.023  -0.700   1.196  0.00  0.00    -0.055 A 
BRANCH  10  13
ATOM     13  O   UNL     1       0.058  -4.133  -0.011  0.00  0.00    -0.491 OA
ATOM     14  C   UNL     1       0.073  -4.785   1.260  0.00  0.00    +0.277 C 
ENDBRANCH  10  13
BRANCH   9  15
ATOM     15  O   UNL     1       0.028  -2.746  -2.391  0.00  0.00    -0.491 OA
ATOM     16  C   UNL     1       0.011  -1.961  -3.585  0.00  0.00    +0.277 C 
ENDBRANCH   9  15
ENDBRANCH   4  12
ENDBRANCH   1   4
BRANCH   1  17
ATOM     17  C   UNL     1      -0.539  -0.081   4.831  0.00  0.00    +0.047 C 
BRANCH  17  18
ATOM     18  C   UNL     1      -0.883  -1.018   5.960  0.00  0.00    -0.053 A 
ATOM     19  C   UNL     1      -1.785  -2.045   5.755  0.00  0.00    +0.005 A 
ATOM     20  C   UNL     1      -2.100  -2.905   6.789  0.00  0.00    +0.038 A 
ATOM     21  C   UNL     1      -1.513  -2.738   8.032  0.00  0.00    +0.123 A 
ATOM     22  C   UNL     1      -0.609  -1.709   8.236  0.00  0.00    +0.038 A 
ATOM     23  C   UNL     1      -0.291  -0.853   7.199  0.00  0.00    +0.005 A 
ATOM     24  F   UNL     1      -1.821  -3.579   9.044  0.00  0.00    -0.205 F 
ENDBRANCH  17  18
BRANCH  17  25
ATOM     25  C   UNL     1      -1.623   0.957   4.692  0.00  0.00    +0.201 C 
ATOM     26  O   UNL     1      -2.241   1.053   3.653  0.00  0.00    -0.277 OA
ATOM     27  N   UNL     1      -1.906   1.778   5.723  0.00  0.00    -0.330 N 
ATOM     28  H   UNL     1      -1.411   1.702   6.554  0.00  0.00    +0.145 HD
ATOM     29  H   UNL     1      -2.603   2.446   5.633  0.00  0.00    +0.145 HD
ENDBRANCH  17  25
ENDBRANCH   1  17
TORSDOF 7
