REMARK  Name = ZINC59879183
REMARK  11 active torsions:
REMARK  status: ('A' for Active; 'I' for Inactive)
REMARK    1  A    between atoms: C_1  and  C_2
REMARK    2  A    between atoms: C_2  and  C_4
REMARK    3  A    between atoms: C_2  and  S_13
REMARK    4  A    between atoms: N_6  and  N_7
REMARK    5  A    between atoms: C_8  and  C_10
REMARK    6  A    between atoms: C_10  and  C_11
REMARK    7  A    between atoms: C_10  and  C_12
REMARK    8  A    between atoms: S_13  and  C_14
REMARK    9  A    between atoms: N_19  and  N_20
REMARK   10  A    between atoms: C_21  and  C_22
REMARK   11  A    between atoms: C_25  and  O_28
REMARK                            x       y       z     vdW  Elec       q    Type
REMARK                         _______ _______ _______ _____ _____    ______ ____
ROOT
ATOM      1  C   UNL     1      -2.335  -0.110   1.573  0.00  0.00    +0.211 A 
ATOM      2  N   UNL     1      -3.568  -0.353   2.031  0.00  0.00    -0.186 NA
ATOM      3  C   UNL     1      -3.709   0.179   3.227  0.00  0.00    +0.232 A 
ATOM      4  N   UNL     1      -2.546   0.780   3.556  0.00  0.00    -0.245 N 
ATOM      5  N   UNL     1      -1.673   0.575   2.475  0.00  0.00    -0.144 NA
ATOM      6  N   UNL     1      -4.849   0.130   4.008  0.00  0.00    -0.205 N 
ATOM      7  H   UNL     1      -4.857   0.554   4.881  0.00  0.00    +0.177 HD
ATOM      8  H   UNL     1      -2.351   1.256   4.378  0.00  0.00    +0.192 HD
ENDROOT
BRANCH   6   9
ATOM      9  N   UNL     1      -5.992  -0.531   3.540  0.00  0.00    -0.188 NA
ATOM     10  C   UNL     1      -7.062  -0.576   4.274  0.00  0.00    +0.138 C 
BRANCH  10  11
ATOM     11  C   UNL     1      -8.264  -1.272   3.781  0.00  0.00    -0.005 A 
ATOM     12  C   UNL     1      -8.253  -1.889   2.527  0.00  0.00    +0.013 A 
ATOM     13  C   UNL     1      -9.380  -2.538   2.071  0.00  0.00    +0.046 A 
ATOM     14  C   UNL     1     -10.525  -2.581   2.855  0.00  0.00    +0.117 A 
ATOM     15  C   UNL     1     -10.541  -1.969   4.102  0.00  0.00    +0.046 A 
ATOM     16  C   UNL     1      -9.417  -1.323   4.569  0.00  0.00    +0.013 A 
BRANCH  14  17
ATOM     17  O   UNL     1     -11.633  -3.222   2.401  0.00  0.00    -0.507 OA
ATOM     18  H   UNL     1     -11.672  -4.158   2.641  0.00  0.00    +0.292 HD
ENDBRANCH  14  17
ENDBRANCH  10  11
ENDBRANCH   6   9
BRANCH   1  19
ATOM     19  S   UNL     1      -1.700  -0.632   0.015  0.00  0.00    -0.072 S 
BRANCH  19  21
ATOM     20  C   UNL     1      -0.019   1.526   0.010  0.00  0.00    +0.029 C 
ATOM     21  C   UNL     1       0.002  -0.004   0.002  0.00  0.00    +0.138 C 
BRANCH  21  22
ATOM     22  C   UNL     1       0.707  -0.490  -1.238  0.00  0.00    +0.242 C 
ATOM     23  O   UNL     1       0.066  -0.782  -2.225  0.00  0.00    -0.273 OA
ATOM     24  N   UNL     1       2.051  -0.601  -1.250  0.00  0.00    -0.233 N 
ATOM     25  H   UNL     1       2.563  -0.367  -0.460  0.00  0.00    +0.173 HD
BRANCH  24  26
ATOM     26  N   UNL     1       2.706  -1.052  -2.402  0.00  0.00    -0.234 N 
ATOM     27  C   UNL     1       4.050  -1.163  -2.414  0.00  0.00    +0.232 C 
ATOM     28  O   UNL     1       4.691  -0.871  -1.426  0.00  0.00    -0.274 OA
ATOM     29  H   UNL     1       2.194  -1.286  -3.192  0.00  0.00    +0.173 HD
BRANCH  27  30
ATOM     30  C   UNL     1       4.755  -1.649  -3.654  0.00  0.00    +0.070 C 
ATOM     31  C   UNL     1       6.264  -1.681  -3.402  0.00  0.00    +0.017 C 
ATOM     32  C   UNL     1       4.265  -3.056  -4.000  0.00  0.00    +0.017 C 
ENDBRANCH  27  30
ENDBRANCH  24  26
ENDBRANCH  21  22
ENDBRANCH  19  21
ENDBRANCH   1  19
TORSDOF 8
