REMARK  Name = ZINC49789951
REMARK  12 active torsions:
REMARK  status: ('A' for Active; 'I' for Inactive)
REMARK    1  A    between atoms: C_1  and  N_2
REMARK    2  A    between atoms: N_2  and  C_3
REMARK    3  A    between atoms: N_2  and  C_4
REMARK    4  A    between atoms: C_4  and  C_6
REMARK    5  A    between atoms: C_4  and  C_20
REMARK    6  A    between atoms: C_6  and  N_7
REMARK    7  A    between atoms: N_10  and  N_11
REMARK    8  A    between atoms: N_11  and  C_12
REMARK    9  A    between atoms: C_12  and  N_14
REMARK   10  A    between atoms: N_14  and  C_15
REMARK   11  A    between atoms: C_25  and  O_26
REMARK   12  A    between atoms: O_26  and  C_27
REMARK                            x       y       z     vdW  Elec       q    Type
REMARK                         _______ _______ _______ _____ _____    ______ ____
ROOT
ATOM      1  N   UNL     1      -0.964  -2.611   0.830  0.00  0.00    -0.299 N 
ATOM      2  C   UNL     1      -1.053  -3.951   0.934  0.00  0.00    +0.316 C 
ATOM      3  O   UNL     1      -1.722  -4.580   0.136  0.00  0.00    -0.251 OA
ATOM      4  N   UNL     1      -0.402  -4.596   1.922  0.00  0.00    -0.219 N 
ATOM      5  H   UNL     1      -0.430  -2.109   1.466  0.00  0.00    +0.150 HD
ATOM      6  H   UNL     1      -0.467  -5.561   1.997  0.00  0.00    +0.174 HD
ENDROOT
BRANCH   4   7
ATOM      7  N   UNL     1       0.368  -3.872   2.842  0.00  0.00    -0.245 N 
ATOM      8  H   UNL     1       0.433  -2.907   2.767  0.00  0.00    +0.172 HD
BRANCH   7   9
ATOM      9  C   UNL     1       1.019  -4.516   3.830  0.00  0.00    +0.147 C 
ATOM     10  S   UNL     1       1.960  -3.631   4.954  0.00  0.00    -0.017 S 
BRANCH   9  11
ATOM     11  N   UNL     1       0.930  -5.857   3.934  0.00  0.00    -0.323 N 
ATOM     12  H   UNL     1       0.397  -6.358   3.298  0.00  0.00    +0.148 HD
BRANCH  11  13
ATOM     13  C   UNL     1       1.638  -6.557   5.009  0.00  0.00    +0.072 C 
ATOM     14  C   UNL     1       3.071  -6.906   4.558  0.00  0.00    +0.022 C 
ATOM     15  C   UNL     1       3.340  -8.296   5.186  0.00  0.00    +0.002 C 
ATOM     16  C   UNL     1       1.970  -9.005   5.045  0.00  0.00    +0.002 C 
ATOM     17  C   UNL     1       0.937  -7.892   5.319  0.00  0.00    +0.022 C 
ENDBRANCH  11  13
ENDBRANCH   9  11
ENDBRANCH   7   9
ENDBRANCH   4   7
BRANCH   1  18
ATOM     18  C   UNL     1      -1.671  -1.910  -0.245  0.00  0.00    +0.095 C 
BRANCH  18  19
ATOM     19  C   UNL     1      -1.510  -0.400  -0.062  0.00  0.00    -0.017 C 
BRANCH  19  20
ATOM     20  C   UNL     1      -0.062  -0.024  -0.246  0.00  0.00    -0.018 A 
ATOM     21  C   UNL     1       0.770   0.082   0.852  0.00  0.00    +0.005 A 
ATOM     22  C   UNL     1       2.098   0.427   0.683  0.00  0.00    +0.000 A 
ATOM     23  C   UNL     1       2.597   0.667  -0.584  0.00  0.00    +0.004 A 
ATOM     24  C   UNL     1       1.770   0.563  -1.685  0.00  0.00    +0.046 A 
ATOM     25  C   UNL     1       0.438   0.211  -1.519  0.00  0.00    +0.122 A 
BRANCH  25  26
ATOM     26  O   UNL     1      -0.377   0.102  -2.601  0.00  0.00    -0.495 OA
ATOM     27  C   UNL     1       0.205   0.358  -3.881  0.00  0.00    +0.277 C 
ENDBRANCH  25  26
ENDBRANCH  19  20
BRANCH  19  29
ATOM     28  C   UNL     1      -1.832   1.436   1.449  0.00  0.00    -0.096 C 
ATOM     29  N   UNL     1      -1.946  -0.020   1.288  0.00  0.00    +0.382 N 
ATOM     30  C   UNL     1      -3.344  -0.426   1.483  0.00  0.00    -0.096 C 
ATOM     31  H   UNL     1      -1.364  -0.480   1.972  0.00  0.00    -0.082 HD
ENDBRANCH  19  29
ENDBRANCH  18  19
ENDBRANCH   1  18
TORSDOF 9
