REMARK  Name = ZINC58834888
REMARK  9 active torsions:
REMARK  status: ('A' for Active; 'I' for Inactive)
REMARK    1  A    between atoms: C_2  and  N_26
REMARK    2  A    between atoms: C_4  and  S_8
REMARK    3  A    between atoms: S_8  and  C_9
REMARK    4  A    between atoms: C_9  and  C_10
REMARK    5  A    between atoms: C_13  and  C_16
REMARK    6  A    between atoms: N_14  and  N_15
REMARK    7  A    between atoms: C_16  and  S_17
REMARK    8  A    between atoms: S_17  and  C_18
REMARK    9  A    between atoms: C_20  and  N_25
REMARK                            x       y       z     vdW  Elec       q    Type
REMARK                         _______ _______ _______ _____ _____    ______ ____
ROOT
ATOM      1  C   UNL     1       4.519  -3.526  -0.060  0.00  0.00    +0.161 A 
ATOM      2  N   UNL     1       5.136  -3.973  -1.120  0.00  0.00    -0.132 NA
ATOM      3  N   UNL     1       6.132  -4.705  -0.764  0.00  0.00    -0.132 NA
ATOM      4  C   UNL     1       6.195  -4.758   0.538  0.00  0.00    +0.161 A 
ATOM      5  N   UNL     1       5.177  -4.007   1.022  0.00  0.00    -0.235 N 
ENDROOT
BRANCH   5   6
ATOM      6  N   UNL     1       4.873  -3.782   2.335  0.00  0.00    -0.295 N 
ATOM      7  H   UNL     1       4.236  -4.482   2.684  0.00  0.00    +0.163 HD
ATOM      8  H   UNL     1       5.709  -3.742   2.898  0.00  0.00    +0.163 HD
ENDBRANCH   5   6
BRANCH   1   9
ATOM      9  C   UNL     1       3.304  -2.635  -0.044  0.00  0.00    +0.155 C 
BRANCH   9  10
ATOM     10  S   UNL     1       3.828  -0.898  -0.039  0.00  0.00    -0.080 S 
BRANCH  10  14
ATOM     11  C   UNL     1      -0.017   1.384   0.010  0.00  0.00    +0.113 A 
ATOM     12  C   UNL     1       0.002  -0.004   0.002  0.00  0.00    +0.124 A 
ATOM     13  N   UNL     1       1.172  -0.652  -0.013  0.00  0.00    -0.209 NA
ATOM     14  C   UNL     1       2.314   0.004  -0.020  0.00  0.00    +0.171 A 
ATOM     15  N   UNL     1       2.349   1.366  -0.013  0.00  0.00    -0.302 N 
ATOM     16  C   UNL     1       1.200   2.073   0.002  0.00  0.00    +0.254 A 
ATOM     17  O   UNL     1       1.222   3.294   0.008  0.00  0.00    -0.268 OA
ATOM     18  H   UNL     1       3.202   1.828  -0.018  0.00  0.00    +0.171 HD
BRANCH  12  19
ATOM     19  N   UNL     1      -1.182  -0.713   0.010  0.00  0.00    -0.343 N 
ATOM     20  H   UNL     1      -2.030  -0.241   0.021  0.00  0.00    +0.144 HD
ATOM     21  H   UNL     1      -1.167  -1.683   0.005  0.00  0.00    +0.144 HD
ENDBRANCH  12  19
ENDBRANCH  10  14
ENDBRANCH   9  10
ENDBRANCH   1   9
BRANCH   4  22
ATOM     22  C   UNL     1       7.215  -5.511   1.353  0.00  0.00    +0.155 C 
BRANCH  22  23
ATOM     23  S   UNL     1       8.636  -4.433   1.687  0.00  0.00    -0.080 S 
BRANCH  23  24
ATOM     24  C   UNL     1       9.724  -5.445   2.635  0.00  0.00    +0.171 A 
ATOM     25  N   UNL     1       9.375  -6.684   2.913  0.00  0.00    -0.209 NA
ATOM     26  C   UNL     1      10.173  -7.484   3.629  0.00  0.00    +0.124 A 
ATOM     27  C   UNL     1      11.392  -7.006   4.090  0.00  0.00    +0.113 A 
ATOM     28  C   UNL     1      11.756  -5.690   3.790  0.00  0.00    +0.254 A 
ATOM     29  N   UNL     1      10.912  -4.931   3.060  0.00  0.00    -0.302 N 
ATOM     30  O   UNL     1      12.820  -5.236   4.179  0.00  0.00    -0.268 OA
ATOM     31  H   UNL     1      11.151  -4.017   2.840  0.00  0.00    +0.171 HD
BRANCH  26  32
ATOM     32  N   UNL     1       9.786  -8.779   3.909  0.00  0.00    -0.343 N 
ATOM     33  H   UNL     1       8.933  -9.111   3.586  0.00  0.00    +0.144 HD
ATOM     34  H   UNL     1      10.366  -9.357   4.428  0.00  0.00    +0.144 HD
ENDBRANCH  26  32
ENDBRANCH  23  24
ENDBRANCH  22  23
ENDBRANCH   4  22
TORSDOF 9
