REMARK  Name = ZINC64227746
REMARK  7 active torsions:
REMARK  status: ('A' for Active; 'I' for Inactive)
REMARK    1  A    between atoms: C_7  and  C_10
REMARK    2  A    between atoms: C_10  and  C_11
REMARK    3  A    between atoms: C_11  and  C_13
REMARK    4  A    between atoms: C_11  and  N_23
REMARK    5  A    between atoms: C_19  and  C_21
REMARK    6  A    between atoms: C_21  and  O_22
REMARK    7  A    between atoms: C_24  and  O_35
REMARK                            x       y       z     vdW  Elec       q    Type
REMARK                         _______ _______ _______ _____ _____    ______ ____
ROOT
ATOM      1  C   UNL     1       0.456  -3.653  -1.461  0.00  0.00    +0.170 C 
ENDROOT
BRANCH   1   2
ATOM      2  N   UNL     1      -0.260  -2.701  -2.314  0.00  0.00    -0.244 N 
ATOM      3  C   UNL     1       0.416  -2.133  -3.481  0.00  0.00    +0.300 C 
ATOM      4  N   UNL     1      -0.549  -1.887  -4.558  0.00  0.00    -0.303 N 
ATOM      5  C   UNL     1      -1.778  -1.318  -4.240  0.00  0.00    +0.042 A 
ATOM      6  C   UNL     1      -2.476  -0.538  -5.146  0.00  0.00    +0.024 A 
ATOM      7  C   UNL     1      -3.699  -0.003  -4.789  0.00  0.00    +0.002 A 
ATOM      8  C   UNL     1      -4.232  -0.242  -3.532  0.00  0.00    +0.001 A 
ATOM      9  C   UNL     1      -3.547  -1.014  -2.616  0.00  0.00    +0.015 A 
ATOM     10  C   UNL     1      -2.311  -1.555  -2.961  0.00  0.00    +0.058 A 
ATOM     11  C   UNL     1      -1.531  -2.369  -2.013  0.00  0.00    +0.252 C 
ATOM     12  O   UNL     1      -2.029  -2.735  -0.966  0.00  0.00    -0.270 OA
ATOM     13  H   UNL     1      -0.334  -2.117  -5.476  0.00  0.00    +0.150 HD
BRANCH   3  14
ATOM     14  O   UNL     1       1.034  -0.898  -3.114  0.00  0.00    -0.359 OA
ATOM     15  H   UNL     1       1.503  -0.462  -3.839  0.00  0.00    +0.213 HD
ENDBRANCH   3  14
ENDBRANCH   1   2
BRANCH   1  16
ATOM     16  C   UNL     1      -0.279  -4.968  -1.449  0.00  0.00    +0.237 C 
ATOM     17  O   UNL     1      -1.458  -5.007  -1.733  0.00  0.00    -0.274 OA
ATOM     18  N   UNL     1       0.373  -6.102  -1.122  0.00  0.00    -0.295 N 
ATOM     19  C   UNL     1       1.767  -6.186  -0.652  0.00  0.00    +0.108 C 
ATOM     20  C   UNL     1       1.837  -7.510   0.149  0.00  0.00    +0.021 C 
ATOM     21  C   UNL     1       0.907  -8.429  -0.686  0.00  0.00    +0.026 C 
ATOM     22  C   UNL     1      -0.192  -7.459  -1.169  0.00  0.00    +0.101 C 
BRANCH  22  23
ATOM     23  C   UNL     1      -0.595  -7.805  -2.603  0.00  0.00    +0.178 C 
BRANCH  23  24
ATOM     24  O   UNL     1       0.572  -7.857  -3.427  0.00  0.00    -0.393 OA
ATOM     25  H   UNL     1       0.391  -8.073  -4.352  0.00  0.00    +0.209 HD
ENDBRANCH  23  24
ENDBRANCH  22  23
ENDBRANCH   1  16
BRANCH   1  26
ATOM     26  C   UNL     1       0.537  -3.101  -0.036  0.00  0.00    +0.065 C 
BRANCH  26  33
ATOM     27  C   UNL     1      -0.457   1.370  -0.307  0.00  0.00    +0.001 A 
ATOM     28  C   UNL     1       0.671   2.201  -0.259  0.00  0.00    +0.002 A 
ATOM     29  C   UNL     1       1.926   1.720  -0.143  0.00  0.00    +0.026 A 
ATOM     30  C   UNL     1       2.154   0.318  -0.064  0.00  0.00    +0.043 A 
ATOM     31  N   UNL     1       3.257  -0.382   0.049  0.00  0.00    -0.380 N 
ATOM     32  C   UNL     1       2.905  -1.806   0.085  0.00  0.00    +0.144 C 
ATOM     33  C   UNL     1       1.398  -1.864  -0.025  0.00  0.00    -0.039 C 
ATOM     34  C   UNL     1       0.979  -0.581  -0.113  0.00  0.00    -0.001 A 
ATOM     35  C   UNL     1      -0.352   0.024  -0.239  0.00  0.00    +0.010 A 
ATOM     36  H   UNL     1       4.155  -0.019   0.100  0.00  0.00    +0.160 HD
ENDBRANCH  26  33
ENDBRANCH   1  26
TORSDOF 7
