REMARK  Name = ZINC04769474
REMARK  10 active torsions:
REMARK  status: ('A' for Active; 'I' for Inactive)
REMARK    1  A    between atoms: C_1  and  O_2
REMARK    2  A    between atoms: O_2  and  C_3
REMARK    3  A    between atoms: C_5  and  C_10
REMARK    4  A    between atoms: C_8  and  O_9
REMARK    5  A    between atoms: C_14  and  O_29
REMARK    6  A    between atoms: C_15  and  O_27
REMARK    7  A    between atoms: C_19  and  C_25
REMARK    8  A    between atoms: C_21  and  C_23
REMARK    9  A    between atoms: C_23  and  O_24
REMARK   10  A    between atoms: O_27  and  C_28
REMARK                            x       y       z     vdW  Elec       q    Type
REMARK                         _______ _______ _______ _____ _____    ______ ____
ROOT
ATOM      1  C   UNL     1       2.522   3.731  -0.127  0.00  0.00    +0.055 C 
ATOM      2  C   UNL     1       3.395   3.494   1.078  0.00  0.00    -0.033 A 
ATOM      3  C   UNL     1       4.765   3.666   0.926  0.00  0.00    +0.053 A 
ATOM      4  C   UNL     1       5.621   3.471   1.994  0.00  0.00    +0.159 A 
ATOM      5  C   UNL     1       5.104   3.098   3.231  0.00  0.00    +0.162 A 
ATOM      6  C   UNL     1       3.740   2.925   3.377  0.00  0.00    +0.053 A 
ATOM      7  C   UNL     1       2.884   3.120   2.301  0.00  0.00    -0.039 A 
ATOM      8  C   UNL     1       1.411   2.902   2.531  0.00  0.00    +0.050 C 
ATOM      9  C   UNL     1       0.591   3.557   1.422  0.00  0.00    +0.113 C 
ATOM     10  C   UNL     1       1.148   3.094   0.070  0.00  0.00    +0.040 C 
ENDROOT
BRANCH   1  13
ATOM     11  C   UNL     1       2.062   7.416   0.562  0.00  0.00    +0.162 A 
ATOM     12  C   UNL     1       2.209   6.052   0.752  0.00  0.00    +0.053 A 
ATOM     13  C   UNL     1       2.358   5.214  -0.337  0.00  0.00    -0.036 A 
ATOM     14  C   UNL     1       2.350   5.733  -1.618  0.00  0.00    +0.008 A 
ATOM     15  C   UNL     1       2.200   7.093  -1.816  0.00  0.00    +0.049 A 
ATOM     16  C   UNL     1       2.055   7.939  -0.728  0.00  0.00    +0.158 A 
BRANCH  11  18
ATOM     17  C   UNL     1       1.937   7.637   2.926  0.00  0.00    +0.277 C 
ATOM     18  O   UNL     1       1.921   8.243   1.632  0.00  0.00    -0.491 OA
ENDBRANCH  11  18
BRANCH  16  19
ATOM     19  O   UNL     1       1.907   9.277  -0.921  0.00  0.00    -0.503 OA
ATOM     20  H   UNL     1       0.988   9.562  -1.013  0.00  0.00    +0.292 HD
ENDBRANCH  16  19
ENDBRANCH   1  13
BRANCH   9  21
ATOM     21  C   UNL     1      -0.853   3.142   1.544  0.00  0.00    +0.360 C 
ATOM     22  O   UNL     1      -1.386   2.537   0.645  0.00  0.00    -0.246 OA
ATOM     23  O   UNL     1      -1.546   3.444   2.653  0.00  0.00    -0.246 OA
ENDBRANCH   9  21
BRANCH   5  24
ATOM     24  O   UNL     1       5.935   2.905   4.290  0.00  0.00    -0.491 OA
ATOM     25  C   UNL     1       5.331   2.524   5.528  0.00  0.00    +0.277 C 
ENDBRANCH   5  24
BRANCH   4  26
ATOM     26  O   UNL     1       6.961   3.641   1.836  0.00  0.00    -0.503 OA
ATOM     27  H   UNL     1       7.431   2.839   1.568  0.00  0.00    +0.292 HD
ENDBRANCH   4  26
BRANCH  10  28
ATOM     28  C   UNL     1       1.280   1.570   0.062  0.00  0.00    +0.161 C 
BRANCH  28  29
ATOM     29  O   UNL     1      -0.019   0.979   0.131  0.00  0.00    -0.395 OA
ATOM     30  H   UNL     1      -0.012   0.012   0.129  0.00  0.00    +0.209 HD
ENDBRANCH  28  29
ENDBRANCH  10  28
TORSDOF 8
