REMARK  Name = ZINC04689457
REMARK  12 active torsions:
REMARK  status: ('A' for Active; 'I' for Inactive)
REMARK    1  A    between atoms: C_1  and  C_2
REMARK    2  A    between atoms: C_2  and  O_3
REMARK    3  A    between atoms: O_3  and  C_4
REMARK    4  A    between atoms: C_4  and  C_6
REMARK    5  A    between atoms: C_7  and  C_22
REMARK    6  A    between atoms: C_12  and  C_14
REMARK    7  A    between atoms: C_16  and  C_21
REMARK    8  A    between atoms: C_19  and  C_20
REMARK    9  A    between atoms: C_22  and  N_23
REMARK   10  A    between atoms: N_23  and  C_24
REMARK   11  A    between atoms: C_24  and  C_25
REMARK   12  A    between atoms: C_28  and  C_31
REMARK                            x       y       z     vdW  Elec       q    Type
REMARK                         _______ _______ _______ _____ _____    ______ ____
ROOT
ATOM      1  C   UNL     1       1.761  -2.806  -2.199  0.00  0.00    +0.076 C 
ATOM      2  C   UNL     1       1.818  -4.126  -2.479  0.00  0.00    +0.007 C 
ATOM      3  N   UNL     1       2.204  -4.569  -3.712  0.00  0.00    -0.274 N 
ATOM      4  C   UNL     1       2.550  -3.756  -4.718  0.00  0.00    +0.304 C 
ATOM      5  O   UNL     1       2.881  -4.243  -5.781  0.00  0.00    -0.252 OA
ATOM      6  N   UNL     1       2.543  -2.414  -4.591  0.00  0.00    -0.288 N 
ATOM      7  C   UNL     1       2.135  -1.835  -3.300  0.00  0.00    +0.144 C 
ATOM      8  H   UNL     1       2.230  -5.526  -3.868  0.00  0.00    +0.156 HD
ATOM      9  H   UNL     1       2.798  -1.843  -5.333  0.00  0.00    +0.151 HD
ENDROOT
BRANCH   7  10
ATOM     10  C   UNL     1       3.271  -0.980  -2.799  0.00  0.00    -0.019 A 
ATOM     11  C   UNL     1       4.579  -1.363  -3.033  0.00  0.00    +0.009 A 
ATOM     12  C   UNL     1       5.620  -0.579  -2.574  0.00  0.00    -0.050 A 
ATOM     13  C   UNL     1       5.355   0.588  -1.882  0.00  0.00    +0.003 A 
ATOM     14  C   UNL     1       4.047   0.971  -1.649  0.00  0.00    +0.004 A 
ATOM     15  C   UNL     1       3.005   0.189  -2.112  0.00  0.00    -0.045 A 
ATOM     16  C   UNL     1       1.580   0.610  -1.863  0.00  0.00    +0.044 C 
ATOM     17  C   UNL     1       7.046  -0.997  -2.827  0.00  0.00    +0.044 C 
ENDBRANCH   7  10
BRANCH   1  18
ATOM     18  C   UNL     1       1.360  -2.347  -0.923  0.00  0.00    +0.339 C 
ATOM     19  O   UNL     1       0.227  -1.938  -0.751  0.00  0.00    -0.245 OA
BRANCH  18  20
ATOM     20  O   UNL     1       2.235  -2.361   0.105  0.00  0.00    -0.462 OA
BRANCH  20  22
ATOM     21  C   UNL     1       2.834  -2.144   2.436  0.00  0.00    +0.048 C 
ATOM     22  C   UNL     1       1.742  -1.950   1.382  0.00  0.00    +0.229 C 
ENDBRANCH  20  22
ENDBRANCH  18  20
ENDBRANCH   1  18
BRANCH   2  23
ATOM     23  C   UNL     1       1.449  -5.127  -1.415  0.00  0.00    -0.030 C 
BRANCH  23  24
ATOM     24  N   UNL     1       0.234  -5.846  -1.818  0.00  0.00    +0.385 N 
ATOM     25  H   UNL     1      -0.522  -5.188  -1.937  0.00  0.00    -0.085 HD
ATOM     26  H   UNL     1       0.401  -6.327  -2.689  0.00  0.00    -0.085 HD
BRANCH  24  27
ATOM     27  C   UNL     1      -0.126  -6.821  -0.780  0.00  0.00    -0.046 C 
BRANCH  27  28
ATOM     28  C   UNL     1      -1.373  -7.559  -1.194  0.00  0.00    -0.064 A 
ATOM     29  C   UNL     1      -2.616  -7.066  -0.843  0.00  0.00    +0.002 A 
ATOM     30  C   UNL     1      -3.760  -7.743  -1.222  0.00  0.00    +0.003 A 
ATOM     31  C   UNL     1      -3.661  -8.912  -1.954  0.00  0.00    -0.050 A 
ATOM     32  C   UNL     1      -2.418  -9.404  -2.306  0.00  0.00    +0.003 A 
ATOM     33  C   UNL     1      -1.274  -8.725  -1.930  0.00  0.00    +0.002 A 
ATOM     34  C   UNL     1      -4.909  -9.650  -2.367  0.00  0.00    +0.044 C 
ENDBRANCH  27  28
ENDBRANCH  24  27
ENDBRANCH  23  24
ENDBRANCH   2  23
TORSDOF 8
