REMARK  Name = ZINC59045607
REMARK  8 active torsions:
REMARK  status: ('A' for Active; 'I' for Inactive)
REMARK    1  A    between atoms: C_1  and  C_2
REMARK    2  A    between atoms: C_7  and  N_8
REMARK    3  A    between atoms: C_9  and  C_11
REMARK    4  A    between atoms: C_11  and  S_12
REMARK    5  A    between atoms: S_12  and  C_13
REMARK    6  A    between atoms: C_16  and  C_19
REMARK    7  A    between atoms: N_17  and  N_18
REMARK    8  A    between atoms: C_24  and  O_25
REMARK                            x       y       z     vdW  Elec       q    Type
REMARK                         _______ _______ _______ _____ _____    ______ ____
ROOT
ATOM      1  C   UNL     1      -0.378  -0.124   7.695  0.00  0.00    +0.209 A 
ATOM      2  N   UNL     1      -0.424   1.189   7.703  0.00  0.00    -0.121 NA
ATOM      3  N   UNL     1      -0.526   1.620   8.909  0.00  0.00    -0.127 NA
ATOM      4  C   UNL     1      -0.551   0.609   9.746  0.00  0.00    +0.185 A 
ATOM      5  N   UNL     1      -0.462  -0.540   8.994  0.00  0.00    -0.224 N 
ENDROOT
BRANCH   4   6
ATOM      6  C   UNL     1      -0.659   0.689  11.218  0.00  0.00    +0.062 A 
ATOM      7  C   UNL     1       0.225  -0.027  12.026  0.00  0.00    +0.015 A 
ATOM      8  C   UNL     1       0.119   0.052  13.399  0.00  0.00    +0.001 A 
ATOM      9  C   UNL     1      -0.862   0.838  13.979  0.00  0.00    +0.004 A 
ATOM     10  C   UNL     1      -1.743   1.552  13.189  0.00  0.00    +0.046 A 
ATOM     11  C   UNL     1      -1.646   1.488  11.808  0.00  0.00    +0.128 A 
BRANCH  11  12
ATOM     12  O   UNL     1      -2.507   2.194  11.031  0.00  0.00    -0.506 OA
ATOM     13  H   UNL     1      -3.314   1.713  10.802  0.00  0.00    +0.292 HD
ENDBRANCH  11  12
ENDBRANCH   4   6
BRANCH   5  14
ATOM     14  N   UNL     1      -0.457  -1.827   9.451  0.00  0.00    -0.295 N 
ATOM     15  H   UNL     1       0.486  -2.166   9.566  0.00  0.00    +0.163 HD
ATOM     16  H   UNL     1      -0.978  -1.908  10.311  0.00  0.00    +0.163 HD
ENDBRANCH   5  14
BRANCH   1  17
ATOM     17  S   UNL     1      -0.240  -1.157   6.274  0.00  0.00    -0.075 S 
BRANCH  17  18
ATOM     18  C   UNL     1      -0.171   0.011   4.888  0.00  0.00    +0.173 C 
BRANCH  18  20
ATOM     19  N   UNL     1       0.017  -0.087   2.423  0.00  0.00    -0.284 N 
ATOM     20  C   UNL     1      -0.051  -0.752   3.594  0.00  0.00    +0.227 C 
ATOM     21  O   UNL     1      -0.015  -1.964   3.606  0.00  0.00    -0.275 OA
ATOM     22  H   UNL     1       0.048   0.882   2.417  0.00  0.00    +0.155 HD
BRANCH  19  29
ATOM     23  C   UNL     1      -1.291   1.055   0.170  0.00  0.00    +0.045 C 
ATOM     24  C   UNL     1      -0.585  -0.274   0.092  0.00  0.00    -0.029 A 
ATOM     25  C   UNL     1      -0.555  -0.972  -1.100  0.00  0.00    +0.008 A 
ATOM     26  C   UNL     1       0.092  -2.192  -1.173  0.00  0.00    +0.039 A 
ATOM     27  C   UNL     1       0.713  -2.717  -0.052  0.00  0.00    +0.125 A 
ATOM     28  C   UNL     1       0.685  -2.023   1.144  0.00  0.00    +0.062 A 
ATOM     29  C   UNL     1       0.041  -0.795   1.217  0.00  0.00    +0.039 A 
ATOM     30  F   UNL     1       1.344  -3.909  -0.126  0.00  0.00    -0.205 F 
ENDBRANCH  19  29
ENDBRANCH  18  20
ENDBRANCH  17  18
ENDBRANCH   1  17
TORSDOF 7
