REMARK  Name = ZINC64237625
REMARK  10 active torsions:
REMARK  status: ('A' for Active; 'I' for Inactive)
REMARK    1  A    between atoms: C_1  and  C_2
REMARK    2  A    between atoms: C_5  and  C_8
REMARK    3  A    between atoms: C_8  and  C_9
REMARK    4  A    between atoms: C_8  and  N_25
REMARK    5  A    between atoms: C_9  and  N_10
REMARK    6  A    between atoms: N_13  and  N_14
REMARK    7  A    between atoms: C_15  and  C_17
REMARK    8  A    between atoms: C_17  and  N_18
REMARK    9  A    between atoms: C_19  and  C_24
REMARK   10  A    between atoms: C_21  and  C_23
REMARK                            x       y       z     vdW  Elec       q    Type
REMARK                         _______ _______ _______ _____ _____    ______ ____
ROOT
ATOM      1  N   UNL     1       1.463  -6.250   0.252  0.00  0.00    -0.299 N 
ATOM      2  C   UNL     1       2.619  -6.918   0.429  0.00  0.00    +0.316 C 
ATOM      3  O   UNL     1       3.678  -6.321   0.399  0.00  0.00    -0.251 OA
ATOM      4  N   UNL     1       2.603  -8.250   0.639  0.00  0.00    -0.218 N 
ATOM      5  H   UNL     1       0.618  -6.726   0.276  0.00  0.00    +0.150 HD
ATOM      6  H   UNL     1       3.435  -8.731   0.766  0.00  0.00    +0.174 HD
ENDROOT
BRANCH   4   7
ATOM      7  N   UNL     1       1.383  -8.938   0.673  0.00  0.00    -0.232 N 
ATOM      8  C   UNL     1       1.366 -10.269   0.883  0.00  0.00    +0.251 C 
ATOM      9  O   UNL     1       2.407 -10.871   1.042  0.00  0.00    -0.272 OA
ATOM     10  H   UNL     1       0.550  -8.457   0.546  0.00  0.00    +0.173 HD
BRANCH   8  11
ATOM     11  C   UNL     1       0.054 -11.010   0.920  0.00  0.00    +0.240 C 
BRANCH  11  12
ATOM     12  N   UNL     1       0.304 -12.433   1.161  0.00  0.00    -0.259 N 
ATOM     13  C   UNL     1       0.510 -13.374   0.215  0.00  0.00    +0.037 A 
ATOM     14  C   UNL     1       0.701 -14.557   0.845  0.00  0.00    +0.047 A 
ATOM     15  C   UNL     1       0.608 -14.331   2.222  0.00  0.00    +0.060 A 
ATOM     16  N   UNL     1       0.376 -13.057   2.413  0.00  0.00    -0.176 NA
ATOM     17  C   UNL     1       0.757 -15.373   3.300  0.00  0.00    +0.067 C 
ATOM     18  C   UNL     1       0.524 -13.148  -1.275  0.00  0.00    +0.065 C 
ENDBRANCH  11  12
ENDBRANCH   8  11
ENDBRANCH   4   7
BRANCH   1  19
ATOM     19  C   UNL     1       1.481  -4.803   0.025  0.00  0.00    +0.095 C 
BRANCH  19  20
ATOM     20  C   UNL     1       0.061  -4.315  -0.273  0.00  0.00    -0.020 C 
BRANCH  20  25
ATOM     21  C   UNL     1      -1.752  -6.590  -5.266  0.00  0.00    +0.044 C 
ATOM     22  C   UNL     1      -1.279  -5.997  -3.964  0.00  0.00    -0.050 A 
ATOM     23  C   UNL     1      -1.683  -6.552  -2.765  0.00  0.00    +0.003 A 
ATOM     24  C   UNL     1      -1.249  -6.008  -1.570  0.00  0.00    +0.002 A 
ATOM     25  C   UNL     1      -0.411  -4.909  -1.575  0.00  0.00    -0.059 A 
ATOM     26  C   UNL     1      -0.006  -4.354  -2.775  0.00  0.00    +0.002 A 
ATOM     27  C   UNL     1      -0.437  -4.901  -3.970  0.00  0.00    +0.003 A 
ENDBRANCH  20  25
BRANCH  20  28
ATOM     28  N   UNL     1       0.058  -2.850  -0.373  0.00  0.00    +0.385 N 
ATOM     29  C   UNL     1      -1.317  -2.359  -0.649  0.00  0.00    -0.078 C 
ATOM     30  C   UNL     1      -1.269  -0.885  -0.172  0.00  0.00    -0.020 C 
ATOM     31  C   UNL     1      -0.373  -0.957   1.086  0.00  0.00    -0.020 C 
ATOM     32  C   UNL     1       0.449  -2.249   0.920  0.00  0.00    -0.078 C 
ATOM     33  H   UNL     1       0.688  -2.549  -1.101  0.00  0.00    -0.081 HD
ENDBRANCH  20  28
ENDBRANCH  19  20
ENDBRANCH   1  19
TORSDOF 7
