REMARK  Name = ZINC09041421
REMARK  1 active torsions:
REMARK  status: ('A' for Active; 'I' for Inactive)
REMARK    1  A    between atoms: C_11  and  C_15
REMARK                            x       y       z     vdW  Elec       q    Type
REMARK                         _______ _______ _______ _____ _____    ______ ____
ROOT
ATOM      1  C   UNL     1      -1.745  -6.093  -2.087  0.00  0.00    +0.001 A 
ATOM      2  C   UNL     1      -1.476  -6.309  -0.745  0.00  0.00    +0.002 A 
ATOM      3  C   UNL     1      -0.674  -5.456  -0.006  0.00  0.00    +0.026 A 
ATOM      4  C   UNL     1      -0.141  -4.355  -0.673  0.00  0.00    +0.047 A 
ATOM      5  C   UNL     1      -0.420  -4.139  -2.048  0.00  0.00    +0.003 A 
ATOM      6  C   UNL     1      -1.233  -5.018  -2.770  0.00  0.00    +0.010 A 
ATOM      7  C   UNL     1       0.282  -2.928  -2.409  0.00  0.00    -0.022 A 
ATOM      8  C   UNL     1       0.918  -2.487  -1.300  0.00  0.00    +0.007 A 
ATOM      9  N   UNL     1       0.669  -3.337  -0.257  0.00  0.00    -0.359 N 
ATOM     10  H   UNL     1       1.016  -3.233   0.643  0.00  0.00    +0.166 HD
ATOM     11  C   UNL     1       1.763  -1.236  -1.277  0.00  0.00    -0.007 C 
ATOM     12  C   UNL     1       1.524  -1.235  -3.696  0.00  0.00    -0.077 C 
ATOM     13  C   UNL     1       0.350  -2.224  -3.741  0.00  0.00    +0.018 C 
ATOM     14  N   UNL     1       1.436  -0.420  -2.467  0.00  0.00    +0.385 N 
ATOM     15  H   UNL     1       2.099   0.362  -2.533  0.00  0.00    -0.085 HD
ATOM     16  H   UNL     1       0.482  -0.052  -2.373  0.00  0.00    -0.085 HD
ENDROOT
BRANCH  11  17
ATOM     17  C   UNL     1       1.455  -0.430  -0.014  0.00  0.00    +0.099 C 
ATOM     18  C   UNL     1       2.220   0.874  -0.014  0.00  0.00    -0.016 A 
ATOM     19  C   UNL     1       3.564   1.171  -0.026  0.00  0.00    +0.006 A 
ATOM     20  C   UNL     1       3.979   2.491  -0.024  0.00  0.00    +0.000 A 
ATOM     21  C   UNL     1       3.042   3.507  -0.009  0.00  0.00    +0.002 A 
ATOM     22  C   UNL     1       1.694   3.212   0.002  0.00  0.00    +0.023 A 
ATOM     23  C   UNL     1       1.268   1.885   0.000  0.00  0.00    +0.037 A 
ATOM     24  N   UNL     1      -0.016   1.339   0.009  0.00  0.00    -0.285 N 
ATOM     25  C   UNL     1       0.002  -0.004   0.002  0.00  0.00    +0.223 C 
ATOM     26  O   UNL     1      -0.964  -0.738   0.008  0.00  0.00    -0.275 OA
ATOM     27  H   UNL     1      -0.829   1.869   0.016  0.00  0.00    +0.155 HD
ENDBRANCH  11  17
TORSDOF 1
