REMARK  Name = ZINC20684633
REMARK  6 active torsions:
REMARK  status: ('A' for Active; 'I' for Inactive)
REMARK    1  A    between atoms: C_1  and  C_2
REMARK    2  A    between atoms: C_2  and  N_3
REMARK    3  A    between atoms: C_14  and  C_16
REMARK    4  A    between atoms: C_27  and  S_32
REMARK    5  A    between atoms: S_32  and  N_35
REMARK    6  A    between atoms: N_38  and  C_41
REMARK                            x       y       z     vdW  Elec       q    Type
REMARK                         _______ _______ _______ _____ _____    ______ ____
ROOT
ATOM      1  C   UNL     1      -0.018   1.513   0.010  0.00  0.00    +0.105 C 
ATOM      2  C   UNL     1      -0.046  -0.004   0.031  0.00  0.00    +0.029 C 
ATOM      3  C   UNL     1       0.794  -0.560   1.204  0.00  0.00    +0.033 C 
ATOM      4  C   UNL     1       1.241  -1.920   0.678  0.00  0.00    -0.030 C 
ATOM      5  C   UNL     1       1.178  -1.953  -0.630  0.00  0.00    -0.023 C 
ATOM      6  C   UNL     1       0.695  -0.615  -1.173  0.00  0.00    +0.049 C 
ATOM      7  C   UNL     1       1.913   0.180  -1.559  0.00  0.00    -0.018 A 
ATOM      8  C   UNL     1       2.765  -0.355  -2.516  0.00  0.00    +0.034 A 
ATOM      9  C   UNL     1       3.898   0.330  -2.905  0.00  0.00    +0.106 A 
ATOM     10  C   UNL     1       4.198   1.558  -2.346  0.00  0.00    +0.030 A 
ATOM     11  C   UNL     1       3.357   2.100  -1.394  0.00  0.00    +0.025 A 
ATOM     12  C   UNL     1       2.215   1.411  -1.003  0.00  0.00    +0.031 A 
ATOM     13  N   UNL     1       1.372   1.979  -0.027  0.00  0.00    -0.336 N 
ATOM     14  H   UNL     1       1.716   2.741   0.688  0.00  0.00    +0.147 HD
ENDROOT
BRANCH   1  26
ATOM     15  N   UNL     1      -2.535   3.362  -4.695  0.00  0.00    -0.340 N 
ATOM     16  C   UNL     1      -1.482   3.338  -5.593  0.00  0.00    +0.050 A 
ATOM     17  C   UNL     1      -1.394   3.668  -6.942  0.00  0.00    +0.026 A 
ATOM     18  C   UNL     1      -0.193   3.546  -7.605  0.00  0.00    +0.002 A 
ATOM     19  C   UNL     1       0.937   3.094  -6.940  0.00  0.00    +0.001 A 
ATOM     20  C   UNL     1       0.870   2.762  -5.604  0.00  0.00    +0.010 A 
ATOM     21  C   UNL     1      -0.339   2.881  -4.921  0.00  0.00    +0.008 A 
ATOM     22  C   UNL     1      -0.748   2.618  -3.530  0.00  0.00    +0.008 A 
ATOM     23  C   UNL     1      -2.113   2.933  -3.450  0.00  0.00    +0.050 A 
ATOM     24  C   UNL     1      -2.778   2.779  -2.237  0.00  0.00    +0.027 A 
ATOM     25  C   UNL     1      -2.097   2.322  -1.130  0.00  0.00    +0.007 A 
ATOM     26  C   UNL     1      -0.748   2.011  -1.210  0.00  0.00    -0.026 A 
ATOM     27  C   UNL     1      -0.070   2.163  -2.401  0.00  0.00    +0.016 A 
BRANCH  15  29
ATOM     28  C   UNL     1      -4.043   5.286  -4.775  0.00  0.00    +0.027 C 
ATOM     29  C   UNL     1      -3.901   3.782  -5.018  0.00  0.00    +0.119 C 
ENDBRANCH  15  29
ENDBRANCH   1  26
BRANCH   9  30
ATOM     30  S   UNL     1       4.969  -0.365  -4.121  0.00  0.00    +0.061 S 
ATOM     31  O   UNL     1       4.182  -1.268  -4.886  0.00  0.00    -0.153 OA
ATOM     32  O   UNL     1       5.672   0.720  -4.710  0.00  0.00    -0.153 OA
BRANCH  30  33
ATOM     33  N   UNL     1       6.093  -1.278  -3.318  0.00  0.00    -0.180 NA
ATOM     34  C   UNL     1       7.363  -0.689  -2.869  0.00  0.00    +0.091 C 
ATOM     35  C   UNL     1       7.549  -1.022  -1.380  0.00  0.00    -0.062 C 
ATOM     36  N   UNL     1       7.438  -2.475  -1.191  0.00  0.00    +0.380 N 
ATOM     37  C   UNL     1       6.098  -2.958  -1.551  0.00  0.00    -0.062 C 
ATOM     38  C   UNL     1       5.850  -2.703  -3.042  0.00  0.00    +0.091 C 
ATOM     39  C   UNL     1       7.782  -2.854   0.185  0.00  0.00    -0.096 C 
ATOM     40  H   UNL     1       8.160  -2.956  -1.867  0.00  0.00    -0.082 HD
ENDBRANCH  30  33
ENDBRANCH   9  30
TORSDOF 4
