REMARK  Name = ZINC06587196
REMARK  8 active torsions:
REMARK  status: ('A' for Active; 'I' for Inactive)
REMARK    1  A    between atoms: C_1  and  C_2
REMARK    2  A    between atoms: C_2  and  C_20
REMARK    3  A    between atoms: C_4  and  N_11
REMARK    4  A    between atoms: C_7  and  C_9
REMARK    5  A    between atoms: C_7  and  C_10
REMARK    6  A    between atoms: N_14  and  C_15
REMARK    7  A    between atoms: C_20  and  N_21
REMARK    8  A    between atoms: N_24  and  C_25
REMARK                            x       y       z     vdW  Elec       q    Type
REMARK                         _______ _______ _______ _____ _____    ______ ____
ROOT
ATOM      1  C   UNL     1      -0.019   1.527   0.010  0.00  0.00    +0.013 C 
ATOM      2  C   UNL     1       0.002  -0.004   0.002  0.00  0.00    -0.014 C 
ATOM      3  C   UNL     1      -1.418  -0.544  -0.123  0.00  0.00    +0.030 C 
ATOM      4  C   UNL     1      -2.191  -0.343   1.179  0.00  0.00    +0.075 C 
ATOM      5  C   UNL     1      -1.490  -1.119   2.293  0.00  0.00    +0.028 C 
ATOM      6  C   UNL     1      -0.073  -0.599   2.505  0.00  0.00    -0.033 C 
ATOM      7  C   UNL     1       0.729  -0.548   1.218  0.00  0.00    +0.014 C 
ATOM      8  C   UNL     1       0.641  -1.570   3.472  0.00  0.00    +0.011 C 
ATOM      9  C   UNL     1      -0.114   0.773   3.185  0.00  0.00    +0.011 C 
ENDROOT
BRANCH   4  10
ATOM     10  N   UNL     1      -3.554  -0.865   1.014  0.00  0.00    -0.297 N 
ATOM     11  C   UNL     1      -4.556  -0.385   1.776  0.00  0.00    +0.300 C 
ATOM     12  O   UNL     1      -4.332   0.480   2.601  0.00  0.00    -0.253 OA
ATOM     13  N   UNL     1      -5.807  -0.864   1.625  0.00  0.00    -0.297 N 
ATOM     14  H   UNL     1      -3.733  -1.556   0.357  0.00  0.00    +0.151 HD
ATOM     15  H   UNL     1      -5.986  -1.554   0.968  0.00  0.00    +0.151 HD
BRANCH  13  16
ATOM     16  C   UNL     1      -6.896  -0.342   2.454  0.00  0.00    +0.074 C 
ATOM     17  C   UNL     1      -6.985  -1.137   3.773  0.00  0.00    +0.022 C 
ATOM     18  C   UNL     1      -8.505  -1.235   4.056  0.00  0.00    +0.002 C 
ATOM     19  C   UNL     1      -9.104  -1.436   2.641  0.00  0.00    +0.002 C 
ATOM     20  C   UNL     1      -8.243  -0.531   1.734  0.00  0.00    +0.022 C 
ENDBRANCH  13  16
ENDBRANCH   4  10
BRANCH   2  21
ATOM     21  C   UNL     1       0.782  -0.446  -1.256  0.00  0.00    +0.112 C 
BRANCH  21  22
ATOM     22  N   UNL     1       0.110   0.066  -2.453  0.00  0.00    -0.299 N 
ATOM     23  C   UNL     1       0.615  -0.197  -3.674  0.00  0.00    +0.300 C 
ATOM     24  O   UNL     1       1.629  -0.859  -3.783  0.00  0.00    -0.253 OA
ATOM     25  N   UNL     1      -0.004   0.274  -4.775  0.00  0.00    -0.297 N 
ATOM     26  H   UNL     1      -0.699   0.594  -2.366  0.00  0.00    +0.150 HD
ATOM     27  H   UNL     1      -0.813   0.802  -4.688  0.00  0.00    +0.151 HD
BRANCH  25  28
ATOM     28  C   UNL     1       0.546  -0.012  -6.103  0.00  0.00    +0.074 C 
ATOM     29  C   UNL     1       1.581   1.065  -6.489  0.00  0.00    +0.022 C 
ATOM     30  C   UNL     1       1.363   1.272  -8.009  0.00  0.00    +0.002 C 
ATOM     31  C   UNL     1      -0.175   1.165  -8.152  0.00  0.00    +0.002 C 
ATOM     32  C   UNL     1      -0.571   0.052  -7.160  0.00  0.00    +0.022 C 
ENDBRANCH  25  28
ENDBRANCH  21  22
ENDBRANCH   2  21
TORSDOF 5
