REMARK  Name = ZINC63511529
REMARK  8 active torsions:
REMARK  status: ('A' for Active; 'I' for Inactive)
REMARK    1  A    between atoms: C_1  and  C_2
REMARK    2  A    between atoms: C_5  and  N_9
REMARK    3  A    between atoms: C_6  and  C_8
REMARK    4  A    between atoms: C_13  and  C_15
REMARK    5  A    between atoms: C_15  and  N_16
REMARK    6  A    between atoms: N_16  and  C_17
REMARK    7  A    between atoms: C_17  and  C_22
REMARK    8  A    between atoms: C_24  and  C_27
REMARK                            x       y       z     vdW  Elec       q    Type
REMARK                         _______ _______ _______ _____ _____    ______ ____
ROOT
ATOM      1  N   UNL     1       0.059  -4.170  -0.021  0.00  0.00    -0.269 N 
ATOM      2  C   UNL     1      -0.040  -4.839  -1.187  0.00  0.00    +0.310 C 
ATOM      3  O   UNL     1      -0.054  -4.229  -2.238  0.00  0.00    -0.252 OA
ATOM      4  N   UNL     1      -0.124  -6.184  -1.187  0.00  0.00    -0.241 N 
ATOM      5  C   UNL     1      -0.223  -6.853  -2.353  0.00  0.00    +0.203 C 
ATOM      6  O   UNL     1      -0.237  -6.244  -3.401  0.00  0.00    -0.277 OA
ATOM      7  H   UNL     1       0.135  -4.658   0.814  0.00  0.00    +0.156 HD
ATOM      8  H   UNL     1      -0.113  -6.671  -0.348  0.00  0.00    +0.159 HD
ENDROOT
BRANCH   1  13
ATOM      9  C   UNL     1       0.025   1.503   0.005  0.00  0.00    +0.044 C 
ATOM     10  C   UNL     1       0.034  -0.004  -0.002  0.00  0.00    -0.050 A 
ATOM     11  C   UNL     1       0.632  -0.685  -1.046  0.00  0.00    +0.005 A 
ATOM     12  C   UNL     1       0.641  -2.066  -1.055  0.00  0.00    +0.024 A 
ATOM     13  C   UNL     1       0.051  -2.771  -0.014  0.00  0.00    +0.038 A 
ATOM     14  C   UNL     1      -0.548  -2.083   1.033  0.00  0.00    -0.029 A 
ATOM     15  C   UNL     1      -0.551  -0.702   1.039  0.00  0.00    +0.008 A 
ATOM     16  C   UNL     1      -1.191  -2.843   2.165  0.00  0.00    +0.045 C 
ENDBRANCH   1  13
BRANCH   5  17
ATOM     17  C   UNL     1      -0.317  -8.357  -2.353  0.00  0.00    +0.017 C 
BRANCH  17  18
ATOM     18  N   UNL     1      -0.415  -8.841  -3.737  0.00  0.00    +0.393 N 
ATOM     19  H   UNL     1      -1.238  -8.453  -4.171  0.00  0.00    -0.084 HD
ATOM     20  H   UNL     1       0.404  -8.555  -4.252  0.00  0.00    -0.084 HD
BRANCH  18  21
ATOM     21  C   UNL     1      -0.506 -10.307  -3.737  0.00  0.00    -0.003 C 
ATOM     22  C   UNL     1      -1.792 -10.757  -3.013  0.00  0.00    -0.005 C 
ATOM     23  C   UNL     1      -2.818 -10.963  -4.154  0.00  0.00    -0.001 C 
ATOM     24  C   UNL     1      -1.955 -11.577  -5.284  0.00  0.00    -0.001 C 
ATOM     25  C   UNL     1      -0.610 -10.829  -5.181  0.00  0.00    -0.005 C 
BRANCH  21  26
ATOM     26  C   UNL     1       0.703 -10.899  -3.059  0.00  0.00    +0.161 A 
ATOM     27  N   UNL     1       1.076 -10.671  -1.795  0.00  0.00    -0.198 NA
ATOM     28  C   UNL     1       2.165 -11.335  -1.523  0.00  0.00    +0.224 A 
ATOM     29  O   UNL     1       2.525 -12.017  -2.618  0.00  0.00    -0.338 OA
ATOM     30  N   UNL     1       1.551 -11.721  -3.608  0.00  0.00    -0.063 NA
ATOM     31  C   UNL     1       2.892 -11.336  -0.203  0.00  0.00    +0.112 C 
ENDBRANCH  21  26
ENDBRANCH  18  21
ENDBRANCH  17  18
ENDBRANCH   5  17
TORSDOF 5
