REMARK  Name = ZINC32428188
REMARK  11 active torsions:
REMARK  status: ('A' for Active; 'I' for Inactive)
REMARK    1  A    between atoms: C_1  and  C_2
REMARK    2  A    between atoms: C_2  and  O_3
REMARK    3  A    between atoms: O_3  and  C_4
REMARK    4  A    between atoms: C_7  and  N_10
REMARK    5  A    between atoms: N_10  and  S_11
REMARK    6  A    between atoms: S_11  and  C_14
REMARK    7  A    between atoms: C_17  and  C_20
REMARK    8  A    between atoms: N_22  and  C_23
REMARK    9  A    between atoms: C_23  and  C_24
REMARK   10  A    between atoms: C_24  and  C_26
REMARK   11  A    between atoms: C_24  and  N_27
REMARK                            x       y       z     vdW  Elec       q    Type
REMARK                         _______ _______ _______ _____ _____    ______ ____
ROOT
ATOM      1  C   UNL     1       1.519   2.282   0.035  0.00  0.00    +0.109 A 
ATOM      2  C   UNL     1       2.239   2.391   1.211  0.00  0.00    +0.029 A 
ATOM      3  C   UNL     1       3.528   2.883   1.191  0.00  0.00    +0.015 A 
ATOM      4  C   UNL     1       4.101   3.281  -0.018  0.00  0.00    +0.037 A 
ATOM      5  C   UNL     1       3.366   3.174  -1.200  0.00  0.00    +0.015 A 
ATOM      6  C   UNL     1       2.080   2.675  -1.166  0.00  0.00    +0.029 A 
ENDROOT
BRANCH   4   7
ATOM      7  C   UNL     1       5.479   3.815  -0.046  0.00  0.00    +0.244 C 
ATOM      8  O   UNL     1       5.976   4.160  -1.101  0.00  0.00    -0.270 OA
ATOM      9  N   UNL     1       6.186   3.917   1.097  0.00  0.00    -0.313 N 
ATOM     10  H   UNL     1       5.737   3.605   2.051  0.00  0.00    +0.149 HD
BRANCH   9  11
ATOM     11  C   UNL     1       7.552   4.446   1.068  0.00  0.00    +0.089 C 
BRANCH  11  12
ATOM     12  C   UNL     1       8.124   4.456   2.487  0.00  0.00    -0.054 C 
ATOM     13  C   UNL     1       9.591   4.890   2.443  0.00  0.00    -0.012 C 
BRANCH  12  14
ATOM     14  N   UNL     1       8.029   3.108   3.064  0.00  0.00    +0.385 N 
ATOM     15  C   UNL     1       8.571   3.080   4.430  0.00  0.00    -0.073 C 
ATOM     16  C   UNL     1       8.086   1.798   5.129  0.00  0.00    +0.024 C 
ATOM     17  C   UNL     1       8.296   0.659   4.185  0.00  0.00    -0.011 A 
ATOM     18  C   UNL     1       8.566   0.746   2.853  0.00  0.00    -0.054 A 
ATOM     19  C   UNL     1       8.727  -0.459   2.171  0.00  0.00    +0.009 A 
ATOM     20  C   UNL     1       8.609  -1.633   2.834  0.00  0.00    +0.045 A 
ATOM     21  S   UNL     1       8.260  -1.083   4.498  0.00  0.00    -0.101 S 
ATOM     22  C   UNL     1       8.675   2.117   2.194  0.00  0.00    -0.042 C 
ATOM     23  H   UNL     1       6.966   2.836   3.130  0.00  0.00    -0.081 HD
ENDBRANCH  12  14
ENDBRANCH  11  12
ENDBRANCH   9  11
ENDBRANCH   4   7
BRANCH   1  24
ATOM     24  S   UNL     1      -0.124   1.646   0.069  0.00  0.00    +0.072 S 
ATOM     25  O   UNL     1      -0.819   2.258  -1.009  0.00  0.00    -0.150 OA
ATOM     26  O   UNL     1      -0.570   1.744   1.415  0.00  0.00    -0.150 OA
BRANCH  24  27
ATOM     27  N   UNL     1      -0.032   0.031  -0.283  0.00  0.00    -0.216 N 
ATOM     28  H   UNL     1      -0.505  -0.361  -1.195  0.00  0.00    +0.174 HD
BRANCH  27  32
ATOM     29  C   UNL     1       1.993  -2.550   2.289  0.00  0.00    +0.121 A 
ATOM     30  C   UNL     1       0.738  -2.070   2.635  0.00  0.00    +0.047 A 
ATOM     31  C   UNL     1       0.067  -1.215   1.783  0.00  0.00    +0.028 A 
ATOM     32  C   UNL     1       0.648  -0.836   0.581  0.00  0.00    +0.048 A 
ATOM     33  C   UNL     1       1.901  -1.321   0.233  0.00  0.00    +0.028 A 
ATOM     34  C   UNL     1       2.574  -2.171   1.088  0.00  0.00    +0.047 A 
BRANCH  29  35
ATOM     35  O   UNL     1       2.653  -3.393   3.128  0.00  0.00    -0.492 OA
BRANCH  35  37
ATOM     36  C   UNL     1       4.524  -4.780   3.773  0.00  0.00    +0.048 C 
ATOM     37  C   UNL     1       3.941  -3.849   2.708  0.00  0.00    +0.225 C 
ENDBRANCH  35  37
ENDBRANCH  29  35
ENDBRANCH  27  32
ENDBRANCH  24  27
ENDBRANCH   1  24
TORSDOF 9
