REMARK  Name = ZINC40825346
REMARK  11 active torsions:
REMARK  status: ('A' for Active; 'I' for Inactive)
REMARK    1  A    between atoms: C_1  and  C_2
REMARK    2  A    between atoms: C_6  and  C_7
REMARK    3  A    between atoms: N_9  and  C_10
REMARK    4  A    between atoms: C_12  and  C_18
REMARK    5  A    between atoms: C_12  and  C_19
REMARK    6  A    between atoms: C_14  and  C_16
REMARK    7  A    between atoms: C_14  and  C_17
REMARK    8  A    between atoms: N_24  and  N_25
REMARK    9  A    between atoms: N_25  and  C_26
REMARK   10  A    between atoms: C_26  and  N_28
REMARK   11  A    between atoms: N_28  and  C_29
REMARK                            x       y       z     vdW  Elec       q    Type
REMARK                         _______ _______ _______ _____ _____    ______ ____
ROOT
ATOM      1  C   UNL     1       0.569   1.676  -0.086  0.00  0.00    +0.048 C 
ATOM      2  C   UNL     1       0.464   0.175  -0.004  0.00  0.00    +0.009 A 
ATOM      3  C   UNL     1       0.151  -0.703  -1.049  0.00  0.00    +0.042 A 
ATOM      4  C   UNL     1       0.164  -1.978  -0.534  0.00  0.00    +0.115 A 
ATOM      5  O   UNL     1       0.471  -1.896   0.759  0.00  0.00    -0.454 OA
ATOM      6  C   UNL     1       0.662  -0.602   1.103  0.00  0.00    +0.193 A 
ATOM      7  C   UNL     1      -0.134  -3.201  -1.364  0.00  0.00    +0.075 C 
ATOM      8  C   UNL     1      -0.916  -2.789  -2.614  0.00  0.00    +0.014 C 
ATOM      9  C   UNL     1      -0.185  -1.672  -3.365  0.00  0.00    +0.058 C 
ATOM     10  C   UNL     1      -0.152  -0.440  -2.473  0.00  0.00    +0.070 C 
ATOM     11  N   UNL     1      -0.374   0.755  -2.928  0.00  0.00    -0.185 NA
ENDROOT
BRANCH   6  12
ATOM     12  C   UNL     1       1.018  -0.115   2.440  0.00  0.00    +0.280 C 
ATOM     13  O   UNL     1       1.162   1.078   2.634  0.00  0.00    -0.267 OA
ATOM     14  N   UNL     1       1.186  -0.988   3.453  0.00  0.00    -0.306 N 
ATOM     15  H   UNL     1       1.071  -1.938   3.298  0.00  0.00    +0.149 HD
BRANCH  14  16
ATOM     16  C   UNL     1       1.542  -0.499   4.791  0.00  0.00    +0.071 C 
ATOM     17  C   UNL     1       3.063  -0.370   4.891  0.00  0.00    +0.009 C 
ATOM     18  C   UNL     1       3.451   0.126   6.283  0.00  0.00    -0.072 C 
ATOM     19  N   UNL     1       2.892  -0.708   7.337  0.00  0.00    +0.386 N 
ATOM     20  C   UNL     1       1.487  -1.070   7.238  0.00  0.00    -0.072 C 
ATOM     21  C   UNL     1       1.077  -1.512   5.837  0.00  0.00    +0.009 C 
ATOM     22  C   UNL     1       0.575   0.063   7.716  0.00  0.00    -0.010 C 
ATOM     23  C   UNL     1       1.249  -2.270   8.186  0.00  0.00    -0.010 C 
ATOM     24  C   UNL     1       3.067   1.596   6.447  0.00  0.00    -0.010 C 
ATOM     25  C   UNL     1       4.991   0.040   6.388  0.00  0.00    -0.010 C 
ATOM     26  H   UNL     1       3.443  -1.568   7.392  0.00  0.00    -0.084 HD
ATOM     27  H   UNL     1       3.041  -0.236   8.233  0.00  0.00    -0.084 HD
ENDBRANCH  14  16
ENDBRANCH   6  12
BRANCH  11  28
ATOM     28  N   UNL     1      -0.657   0.946  -4.287  0.00  0.00    -0.218 N 
ATOM     29  H   UNL     1      -0.687   0.184  -4.888  0.00  0.00    +0.176 HD
BRANCH  28  30
ATOM     30  C   UNL     1      -0.888   2.186  -4.759  0.00  0.00    +0.154 C 
ATOM     31  S   UNL     1      -1.234   2.420  -6.420  0.00  0.00    -0.017 S 
BRANCH  30  32
ATOM     32  N   UNL     1      -0.847   3.244  -3.925  0.00  0.00    -0.296 N 
ATOM     33  H   UNL     1      -0.570   3.123  -3.003  0.00  0.00    +0.154 HD
BRANCH  32  34
ATOM     34  C   UNL     1      -1.203   4.514  -4.388  0.00  0.00    +0.033 A 
ATOM     35  C   UNL     1      -2.297   4.667  -5.230  0.00  0.00    +0.023 A 
ATOM     36  C   UNL     1      -2.646   5.923  -5.686  0.00  0.00    +0.002 A 
ATOM     37  C   UNL     1      -1.908   7.029  -5.304  0.00  0.00    +0.000 A 
ATOM     38  C   UNL     1      -0.818   6.880  -4.466  0.00  0.00    +0.002 A 
ATOM     39  C   UNL     1      -0.467   5.628  -4.002  0.00  0.00    +0.023 A 
ENDBRANCH  32  34
ENDBRANCH  30  32
ENDBRANCH  28  30
ENDBRANCH  11  28
TORSDOF 6
