REMARK  Name = ZINC16948547
REMARK  11 active torsions:
REMARK  status: ('A' for Active; 'I' for Inactive)
REMARK    1  A    between atoms: C_1  and  N_2
REMARK    2  A    between atoms: C_3  and  C_5
REMARK    3  A    between atoms: N_10  and  N_11
REMARK    4  A    between atoms: C_12  and  C_13
REMARK    5  A    between atoms: C_13  and  C_15
REMARK    6  A    between atoms: C_13  and  O_23
REMARK    7  A    between atoms: C_15  and  C_17
REMARK    8  A    between atoms: C_15  and  O_22
REMARK    9  A    between atoms: C_17  and  C_19
REMARK   10  A    between atoms: C_17  and  O_21
REMARK   11  A    between atoms: C_19  and  O_20
REMARK                            x       y       z     vdW  Elec       q    Type
REMARK                         _______ _______ _______ _____ _____    ______ ____
ROOT
ATOM      1  N   UNL     1       1.081   2.158   0.003  0.00  0.00    -0.191 NA
ATOM      2  C   UNL     1      -0.018   1.503   0.010  0.00  0.00    +0.137 C 
ENDROOT
BRANCH   1   8
ATOM      3  C   UNL     1       3.674   6.089   0.000  0.00  0.00    +0.135 A 
ATOM      4  C   UNL     1       4.753   5.241  -0.015  0.00  0.00    +0.081 A 
ATOM      5  S   UNL     1       3.930   3.654  -0.016  0.00  0.00    -0.058 S 
ATOM      6  C   UNL     1       2.252   4.267   0.004  0.00  0.00    +0.178 A 
ATOM      7  N   UNL     1       2.444   5.572   0.003  0.00  0.00    -0.219 NA
ATOM      8  N   UNL     1       1.062   3.559   0.011  0.00  0.00    -0.215 N 
ATOM      9  H   UNL     1       0.216   4.032   0.022  0.00  0.00    +0.176 HD
BRANCH   3  12
ATOM     10  C   UNL     1       2.998   9.823   0.028  0.00  0.00    +0.128 C 
ATOM     11  N   UNL     1       2.803   8.371   0.022  0.00  0.00    -0.313 N 
ATOM     12  C   UNL     1       3.870   7.548   0.006  0.00  0.00    +0.263 C 
ATOM     13  O   UNL     1       4.995   8.010  -0.002  0.00  0.00    -0.269 OA
ATOM     14  H   UNL     1       1.906   8.002   0.028  0.00  0.00    +0.149 HD
ENDBRANCH   3  12
ENDBRANCH   1   8
BRANCH   2  15
ATOM     15  C   UNL     1       0.002  -0.004   0.002  0.00  0.00    +0.188 C 
BRANCH  15  16
ATOM     16  O   UNL     1       1.356  -0.462  -0.013  0.00  0.00    -0.384 OA
ATOM     17  H   UNL     1       1.877  -0.174   0.748  0.00  0.00    +0.210 HD
ENDBRANCH  15  16
BRANCH  15  18
ATOM     18  C   UNL     1      -0.700  -0.530   1.255  0.00  0.00    +0.179 C 
BRANCH  18  19
ATOM     19  O   UNL     1      -2.054  -0.073   1.271  0.00  0.00    -0.386 OA
ATOM     20  H   UNL     1      -2.575  -0.361   0.509  0.00  0.00    +0.210 HD
ENDBRANCH  18  19
BRANCH  18  21
ATOM     21  C   UNL     1      -0.679  -2.060   1.247  0.00  0.00    +0.171 C 
BRANCH  21  22
ATOM     22  O   UNL     1       0.674  -2.518   1.231  0.00  0.00    -0.387 OA
ATOM     23  H   UNL     1       1.196  -2.230   1.993  0.00  0.00    +0.210 HD
ENDBRANCH  21  22
BRANCH  21  24
ATOM     24  C   UNL     1      -1.382  -2.587   2.500  0.00  0.00    +0.189 C 
BRANCH  24  25
ATOM     25  O   UNL     1      -1.466  -4.012   2.436  0.00  0.00    -0.392 OA
ATOM     26  H   UNL     1      -1.900  -4.415   3.200  0.00  0.00    +0.210 HD
ENDBRANCH  24  25
ENDBRANCH  21  24
ENDBRANCH  18  21
ENDBRANCH  15  18
ENDBRANCH   2  15
TORSDOF 10
