REMARK  Name = ZINC34760425
REMARK  11 active torsions:
REMARK  status: ('A' for Active; 'I' for Inactive)
REMARK    1  A    between atoms: C_1  and  C_2
REMARK    2  A    between atoms: C_3  and  C_36
REMARK    3  A    between atoms: C_7  and  N_24
REMARK    4  A    between atoms: C_9  and  S_11
REMARK    5  A    between atoms: S_11  and  C_12
REMARK    6  A    between atoms: C_12  and  C_13
REMARK    7  A    between atoms: N_15  and  C_16
REMARK    8  A    between atoms: C_19  and  O_22
REMARK    9  A    between atoms: O_22  and  C_23
REMARK   10  A    between atoms: N_27  and  C_30
REMARK   11  A    between atoms: C_30  and  C_31
REMARK                            x       y       z     vdW  Elec       q    Type
REMARK                         _______ _______ _______ _____ _____    ______ ____
ROOT
ATOM      1  C   UNL     1      -0.064   1.612   0.134  0.00  0.00    +0.045 C 
ATOM      2  C   UNL     1      -0.060   0.107   0.062  0.00  0.00    -0.028 A 
ATOM      3  C   UNL     1      -0.190  -0.516  -1.118  0.00  0.00    -0.008 A 
ATOM      4  S   UNL     1      -0.126  -2.245  -0.686  0.00  0.00    -0.073 S 
ATOM      5  C   UNL     1       0.074  -2.084   1.069  0.00  0.00    +0.115 A 
ATOM      6  C   UNL     1       0.091  -0.686   1.271  0.00  0.00    +0.051 A 
ATOM      7  C   UNL     1       0.248  -0.264   2.620  0.00  0.00    +0.134 A 
ATOM      8  N   UNL     1       0.369  -1.173   3.573  0.00  0.00    -0.206 NA
ATOM      9  C   UNL     1       0.349  -2.475   3.313  0.00  0.00    +0.191 A 
ATOM     10  N   UNL     1       0.197  -2.927   2.075  0.00  0.00    -0.214 NA
ATOM     11  C   UNL     1      -0.352   0.099  -2.484  0.00  0.00    +0.052 C 
ENDROOT
BRANCH   7  12
ATOM     12  N   UNL     1       0.273   1.083   2.932  0.00  0.00    -0.318 N 
ATOM     13  C   UNL     1      -0.945   1.781   3.369  0.00  0.00    +0.088 C 
ATOM     14  C   UNL     1      -0.629   2.548   4.658  0.00  0.00    -0.059 C 
ATOM     15  N   UNL     1       0.525   3.427   4.433  0.00  0.00    +0.387 N 
ATOM     16  C   UNL     1       1.720   2.621   4.150  0.00  0.00    -0.059 C 
ATOM     17  C   UNL     1       1.522   1.856   2.842  0.00  0.00    +0.088 C 
ATOM     18  H   UNL     1       0.337   4.034   3.649  0.00  0.00    -0.081 HD
BRANCH  15  19
ATOM     19  C   UNL     1       0.759   4.242   5.632  0.00  0.00    +0.019 C 
BRANCH  19  20
ATOM     20  C   UNL     1       1.864   5.230   5.361  0.00  0.00    +0.199 C 
ATOM     21  O   UNL     1       2.404   5.253   4.275  0.00  0.00    -0.278 OA
ATOM     22  N   UNL     1       2.253   6.088   6.325  0.00  0.00    -0.300 N 
ATOM     23  C   UNL     1       2.097   6.581   7.696  0.00  0.00    +0.126 C 
ATOM     24  C   UNL     1       3.134   7.181   6.744  0.00  0.00    +0.126 C 
ENDBRANCH  19  20
ENDBRANCH  15  19
ENDBRANCH   7  12
BRANCH   9  25
ATOM     25  S   UNL     1       0.517  -3.624   4.638  0.00  0.00    -0.077 S 
BRANCH  25  26
ATOM     26  C   UNL     1       0.435  -5.245   3.827  0.00  0.00    +0.173 C 
BRANCH  26  27
ATOM     27  C   UNL     1       0.567  -6.332   4.862  0.00  0.00    +0.227 C 
ATOM     28  O   UNL     1       0.704  -6.042   6.032  0.00  0.00    -0.275 OA
ATOM     29  N   UNL     1       0.534  -7.626   4.488  0.00  0.00    -0.285 N 
ATOM     30  H   UNL     1       0.510  -7.858   3.547  0.00  0.00    +0.155 HD
BRANCH  29  31
ATOM     31  C   UNL     1       0.534  -8.636   5.459  0.00  0.00    +0.034 A 
ATOM     32  C   UNL     1       1.036  -9.894   5.153  0.00  0.00    +0.027 A 
ATOM     33  C   UNL     1       1.036 -10.889   6.111  0.00  0.00    +0.047 A 
ATOM     34  C   UNL     1       0.534 -10.632   7.378  0.00  0.00    +0.120 A 
ATOM     35  C   UNL     1       0.032  -9.376   7.685  0.00  0.00    +0.047 A 
ATOM     36  C   UNL     1       0.037  -8.378   6.730  0.00  0.00    +0.027 A 
BRANCH  34  37
ATOM     37  O   UNL     1       0.534 -11.612   8.321  0.00  0.00    -0.495 OA
ATOM     38  C   UNL     1       0.003 -11.278   9.604  0.00  0.00    +0.277 C 
ENDBRANCH  34  37
ENDBRANCH  29  31
ENDBRANCH  26  27
ENDBRANCH  25  26
ENDBRANCH   9  25
TORSDOF 8
