REMARK  Name = ZINC15053779
REMARK  5 active torsions:
REMARK  status: ('A' for Active; 'I' for Inactive)
REMARK    1  A    between atoms: C_1  and  C_2
REMARK    2  A    between atoms: C_7  and  C_8
REMARK    3  A    between atoms: N_12  and  C_16
REMARK    4  A    between atoms: C_19  and  S_22
REMARK    5  A    between atoms: S_22  and  N_25
REMARK                            x       y       z     vdW  Elec       q    Type
REMARK                         _______ _______ _______ _____ _____    ______ ____
ROOT
ATOM      1  C   UNL     1       0.251   0.002   2.511  0.00  0.00    +0.028 C 
ATOM      2  C   UNL     1       0.060  -0.681   3.666  0.00  0.00    +0.078 C 
ATOM      3  C   UNL     1      -0.052  -0.171   5.048  0.00  0.00    +0.263 C 
ATOM      4  O   UNL     1       0.023   1.018   5.295  0.00  0.00    -0.269 OA
ATOM      5  N   UNL     1      -0.239  -1.066   6.004  0.00  0.00    -0.215 N 
ATOM      6  C   UNL     1      -0.321  -2.412   5.699  0.00  0.00    +0.165 C 
ATOM      7  N   UNL     1      -0.501  -3.417   6.511  0.00  0.00    -0.279 NA
ATOM      8  S   UNL     1      -0.131  -2.439   3.925  0.00  0.00    -0.049 S 
ATOM      9  H   UNL     1      -0.540  -4.321   6.162  0.00  0.00    +0.189 HD
ENDROOT
BRANCH   1  16
ATOM     10  C   UNL     1      -0.078   1.389  -0.008  0.00  0.00    +0.044 C 
ATOM     11  C   UNL     1       0.298  -0.070   0.025  0.00  0.00    -0.043 A 
ATOM     12  C   UNL     1       0.496  -0.760  -1.152  0.00  0.00    +0.004 A 
ATOM     13  C   UNL     1       0.842  -2.099  -1.124  0.00  0.00    +0.000 A 
ATOM     14  C   UNL     1       0.992  -2.758   0.084  0.00  0.00    +0.001 A 
ATOM     15  C   UNL     1       0.798  -2.083   1.270  0.00  0.00    +0.008 A 
ATOM     16  C   UNL     1       0.454  -0.727   1.251  0.00  0.00    -0.021 A 
ENDBRANCH   1  16
BRANCH   5  17
ATOM     17  C   UNL     1      -0.353  -0.646   7.336  0.00  0.00    +0.044 A 
ATOM     18  C   UNL     1      -1.494   0.023   7.758  0.00  0.00    +0.026 A 
ATOM     19  C   UNL     1      -1.604   0.435   9.072  0.00  0.00    +0.030 A 
ATOM     20  C   UNL     1      -0.580   0.183   9.966  0.00  0.00    +0.105 A 
ATOM     21  C   UNL     1       0.558  -0.483   9.547  0.00  0.00    +0.030 A 
ATOM     22  C   UNL     1       0.671  -0.903   8.237  0.00  0.00    +0.026 A 
BRANCH  20  23
ATOM     23  S   UNL     1      -0.724   0.711  11.640  0.00  0.00    +0.056 S 
ATOM     24  O   UNL     1       0.600   0.837  12.142  0.00  0.00    -0.153 OA
ATOM     25  O   UNL     1      -1.647   1.791  11.648  0.00  0.00    -0.153 OA
BRANCH  23  26
ATOM     26  N   UNL     1      -1.434  -0.525  12.484  0.00  0.00    -0.204 NA
ATOM     27  H   UNL     1      -1.229  -0.651  13.423  0.00  0.00    +0.144 HD
ATOM     28  H   UNL     1      -2.055  -1.122  12.038  0.00  0.00    +0.144 HD
ENDBRANCH  23  26
ENDBRANCH  20  23
ENDBRANCH   5  17
TORSDOF 4
