REMARK  Name = ZINC67584536
REMARK  12 active torsions:
REMARK  status: ('A' for Active; 'I' for Inactive)
REMARK    1  A    between atoms: C_1  and  C_2
REMARK    2  A    between atoms: C_2  and  C_3
REMARK    3  A    between atoms: C_3  and  C_4
REMARK    4  A    between atoms: N_6  and  C_7
REMARK    5  A    between atoms: C_11  and  N_14
REMARK    6  A    between atoms: C_12  and  C_13
REMARK    7  A    between atoms: N_17  and  C_18
REMARK    8  A    between atoms: C_18  and  C_19
REMARK    9  A    between atoms: C_19  and  C_21
REMARK   10  A    between atoms: C_19  and  N_26
REMARK   11  A    between atoms: N_26  and  C_27
REMARK   12  A    between atoms: N_26  and  C_28
REMARK                            x       y       z     vdW  Elec       q    Type
REMARK                         _______ _______ _______ _____ _____    ______ ____
ROOT
ATOM      1  N   UNL     1       2.230  -6.758   4.476  0.00  0.00    -0.269 N 
ATOM      2  C   UNL     1       2.271  -8.105   4.462  0.00  0.00    +0.304 C 
ATOM      3  O   UNL     1       1.771  -8.719   3.540  0.00  0.00    -0.253 OA
ATOM      4  N   UNL     1       2.867  -8.771   5.471  0.00  0.00    -0.300 N 
ATOM      5  H   UNL     1       2.568  -6.270   5.243  0.00  0.00    +0.156 HD
ATOM      6  H   UNL     1       3.266  -8.281   6.207  0.00  0.00    +0.150 HD
ENDROOT
BRANCH   1  11
ATOM      7  C   UNL     1       1.710  -4.155   1.925  0.00  0.00    +0.038 A 
ATOM      8  C   UNL     1       0.642  -4.694   1.218  0.00  0.00    +0.024 A 
ATOM      9  C   UNL     1       0.107  -5.911   1.594  0.00  0.00    +0.004 A 
ATOM     10  C   UNL     1       0.632  -6.596   2.672  0.00  0.00    +0.024 A 
ATOM     11  C   UNL     1       1.700  -6.063   3.383  0.00  0.00    +0.039 A 
ATOM     12  C   UNL     1       2.243  -4.843   3.005  0.00  0.00    -0.008 A 
ATOM     13  C   UNL     1       3.405  -4.265   3.770  0.00  0.00    +0.047 C 
BRANCH   7  16
ATOM     14  C   UNL     1       2.121  -2.492   0.274  0.00  0.00    +0.217 C 
ATOM     15  O   UNL     1       1.628  -3.217  -0.564  0.00  0.00    -0.275 OA
ATOM     16  N   UNL     1       2.251  -2.922   1.545  0.00  0.00    -0.285 N 
ATOM     17  H   UNL     1       2.720  -2.377   2.196  0.00  0.00    +0.155 HD
BRANCH  14  18
ATOM     18  C   UNL     1       2.588  -1.111  -0.106  0.00  0.00    +0.096 C 
BRANCH  18  20
ATOM     19  C   UNL     1       2.801   0.527  -1.980  0.00  0.00    +0.004 C 
ATOM     20  C   UNL     1       2.326  -0.875  -1.595  0.00  0.00    +0.006 C 
ENDBRANCH  18  20
ENDBRANCH  14  18
ENDBRANCH   7  16
ENDBRANCH   1  11
BRANCH   4  21
ATOM     21  C   UNL     1       2.912 -10.235   5.457  0.00  0.00    +0.095 C 
BRANCH  21  22
ATOM     22  C   UNL     1       3.527 -10.740   6.764  0.00  0.00    -0.014 C 
BRANCH  22  23
ATOM     23  C   UNL     1       4.931 -10.210   6.896  0.00  0.00    -0.022 A 
ATOM     24  C   UNL     1       5.383  -9.163   7.628  0.00  0.00    +0.009 A 
ATOM     25  C   UNL     1       6.730  -8.855   7.598  0.00  0.00    +0.008 A 
ATOM     26  C   UNL     1       7.560  -9.609   6.836  0.00  0.00    +0.045 A 
ATOM     27  S   UNL     1       6.433 -10.803   6.134  0.00  0.00    -0.103 S 
ENDBRANCH  22  23
BRANCH  22  28
ATOM     28  N   UNL     1       3.557 -12.209   6.756  0.00  0.00    +0.382 N 
ATOM     29  C   UNL     1       4.038 -12.695   8.055  0.00  0.00    -0.096 C 
ATOM     30  C   UNL     1       2.203 -12.725   6.511  0.00  0.00    -0.096 C 
ATOM     31  H   UNL     1       4.176 -12.529   6.026  0.00  0.00    -0.082 HD
ENDBRANCH  22  28
ENDBRANCH  21  22
ENDBRANCH   4  21
TORSDOF 8
