REMARK  Name = ZINC43772534
REMARK  5 active torsions:
REMARK  status: ('A' for Active; 'I' for Inactive)
REMARK    1  A    between atoms: C_2  and  C_12
REMARK    2  A    between atoms: C_5  and  C_10
REMARK    3  A    between atoms: C_7  and  O_9
REMARK    4  A    between atoms: C_10  and  O_11
REMARK    5  A    between atoms: C_12  and  N_13
REMARK                            x       y       z     vdW  Elec       q    Type
REMARK                         _______ _______ _______ _____ _____    ______ ____
ROOT
ATOM      1  N   UNL     1       3.100   3.603   0.748  0.00  0.00    -0.274 N 
ATOM      2  C   UNL     1       4.143   3.175   1.543  0.00  0.00    +0.170 A 
ATOM      3  C   UNL     1       5.287   3.822   1.094  0.00  0.00    +0.151 A 
ATOM      4  C   UNL     1       6.509   3.568   1.734  0.00  0.00    +0.278 A 
ATOM      5  O   UNL     1       7.534   4.120   1.366  0.00  0.00    -0.265 OA
ATOM      6  N   UNL     1       6.526   2.699   2.769  0.00  0.00    -0.294 N 
ATOM      7  H   UNL     1       7.359   2.508   3.227  0.00  0.00    +0.172 HD
ATOM      8  C   UNL     1       5.375   2.091   3.169  0.00  0.00    +0.195 A 
ATOM      9  N   UNL     1       4.226   2.325   2.573  0.00  0.00    -0.196 NA
ATOM     10  N   UNL     1       5.415   1.212   4.222  0.00  0.00    -0.329 N 
ATOM     11  N   UNL     1       4.903   4.636   0.025  0.00  0.00    -0.300 N 
ATOM     12  C   UNL     1       3.578   4.474  -0.161  0.00  0.00    +0.329 A 
ATOM     13  O   UNL     1       2.915   5.032  -1.015  0.00  0.00    -0.246 OA
ATOM     14  H   UNL     1       6.256   1.030   4.670  0.00  0.00    +0.145 HD
ATOM     15  H   UNL     1       4.603   0.771   4.517  0.00  0.00    +0.145 HD
ATOM     16  H   UNL     1       5.486   5.211  -0.493  0.00  0.00    +0.171 HD
ENDROOT
BRANCH   1  17
ATOM     17  C   UNL     1       1.704   3.175   0.868  0.00  0.00    +0.160 C 
BRANCH  17  19
ATOM     18  C   UNL     1      -0.019   1.541   0.011  0.00  0.00    +0.067 C 
ATOM     19  C   UNL     1       1.474   1.937  -0.002  0.00  0.00    +0.141 C 
ATOM     20  O   UNL     1       2.163   0.795   0.553  0.00  0.00    -0.367 OA
ATOM     21  C   UNL     1       1.506  -0.359  -0.014  0.00  0.00    +0.172 C 
ATOM     22  C   UNL     1       0.002  -0.004   0.002  0.00  0.00    +0.148 C 
BRANCH  22  23
ATOM     23  O   UNL     1      -0.644  -0.507  -1.169  0.00  0.00    -0.389 OA
ATOM     24  H   UNL     1      -1.577  -0.262  -1.240  0.00  0.00    +0.210 HD
ENDBRANCH  22  23
BRANCH  21  25
ATOM     25  C   UNL     1       1.772  -1.599   0.842  0.00  0.00    +0.190 C 
BRANCH  25  26
ATOM     26  O   UNL     1       3.159  -1.933   0.777  0.00  0.00    -0.392 OA
ATOM     27  H   UNL     1       3.401  -2.712   1.298  0.00  0.00    +0.210 HD
ENDBRANCH  25  26
ENDBRANCH  21  25
ENDBRANCH  17  19
ENDBRANCH   1  17
TORSDOF 5
