REMARK  Name = ZINC59039712
REMARK  10 active torsions:
REMARK  status: ('A' for Active; 'I' for Inactive)
REMARK    1  A    between atoms: C_1  and  C_2
REMARK    2  A    between atoms: C_2  and  O_3
REMARK    3  A    between atoms: O_3  and  C_4
REMARK    4  A    between atoms: C_6  and  C_11
REMARK    5  A    between atoms: C_9  and  O_10
REMARK    6  A    between atoms: N_12  and  N_13
REMARK    7  A    between atoms: C_16  and  S_19
REMARK    8  A    between atoms: S_19  and  C_20
REMARK    9  A    between atoms: C_20  and  C_21
REMARK   10  A    between atoms: N_23  and  C_24
REMARK                            x       y       z     vdW  Elec       q    Type
REMARK                         _______ _______ _______ _____ _____    ______ ____
ROOT
ATOM      1  N   UNL     1      -0.623  -7.119   1.258  0.00  0.00    -0.205 N 
ATOM      2  C   UNL     1      -0.515  -8.487   1.086  0.00  0.00    +0.232 A 
ATOM      3  N   UNL     1       0.065  -9.096   0.074  0.00  0.00    -0.186 NA
ATOM      4  C   UNL     1      -0.019 -10.421   0.238  0.00  0.00    +0.211 A 
ATOM      5  N   UNL     1      -0.653 -10.672   1.359  0.00  0.00    -0.144 NA
ATOM      6  N   UNL     1      -0.981  -9.432   1.931  0.00  0.00    -0.245 N 
ATOM      7  H   UNL     1      -1.067  -6.762   2.044  0.00  0.00    +0.177 HD
ATOM      8  H   UNL     1      -1.450  -9.284   2.766  0.00  0.00    +0.192 HD
ENDROOT
BRANCH   1  10
ATOM      9  C   UNL     1      -0.193  -4.964   0.459  0.00  0.00    +0.138 C 
ATOM     10  N   UNL     1      -0.092  -6.248   0.298  0.00  0.00    -0.188 NA
BRANCH   9  13
ATOM     11  C   UNL     1       0.785  -1.811  -1.330  0.00  0.00    +0.162 A 
ATOM     12  C   UNL     1       0.258  -2.665  -0.379  0.00  0.00    +0.059 A 
ATOM     13  C   UNL     1       0.366  -4.048  -0.551  0.00  0.00    -0.002 A 
ATOM     14  C   UNL     1       1.006  -4.559  -1.683  0.00  0.00    +0.013 A 
ATOM     15  C   UNL     1       1.528  -3.701  -2.627  0.00  0.00    +0.050 A 
ATOM     16  C   UNL     1       1.416  -2.328  -2.459  0.00  0.00    +0.158 A 
BRANCH  16  17
ATOM     17  O   UNL     1       1.928  -1.486  -3.395  0.00  0.00    -0.503 OA
ATOM     18  H   UNL     1       2.849  -1.235  -3.237  0.00  0.00    +0.292 HD
ENDBRANCH  16  17
BRANCH  11  19
ATOM     19  O   UNL     1       0.681  -0.465  -1.166  0.00  0.00    -0.489 OA
BRANCH  19  21
ATOM     20  C   UNL     1       0.002   1.526   0.025  0.00  0.00    +0.048 C 
ATOM     21  C   UNL     1       0.021  -0.004   0.015  0.00  0.00    +0.226 C 
ENDBRANCH  19  21
ENDBRANCH  11  19
ENDBRANCH   9  13
ENDBRANCH   1  10
BRANCH   4  22
ATOM     22  S   UNL     1       0.620 -11.632  -0.870  0.00  0.00    -0.075 S 
BRANCH  22  23
ATOM     23  C   UNL     1       0.189 -13.212  -0.090  0.00  0.00    +0.173 C 
BRANCH  23  24
ATOM     24  C   UNL     1       0.684 -14.348  -0.948  0.00  0.00    +0.227 C 
ATOM     25  O   UNL     1       1.270 -14.115  -1.983  0.00  0.00    -0.275 OA
ATOM     26  N   UNL     1       0.475 -15.623  -0.564  0.00  0.00    -0.285 N 
ATOM     27  H   UNL     1       0.067 -15.810   0.296  0.00  0.00    +0.155 HD
BRANCH  26  28
ATOM     28  C   UNL     1       0.849 -16.677  -1.405  0.00  0.00    +0.033 A 
ATOM     29  C   UNL     1       0.079 -17.832  -1.457  0.00  0.00    +0.024 A 
ATOM     30  C   UNL     1       0.450 -18.870  -2.288  0.00  0.00    +0.017 A 
ATOM     31  C   UNL     1       1.587 -18.761  -3.069  0.00  0.00    +0.018 A 
ATOM     32  C   UNL     1       2.355 -17.612  -3.020  0.00  0.00    +0.017 A 
ATOM     33  C   UNL     1       1.986 -16.568  -2.194  0.00  0.00    +0.024 A 
ATOM     34 BR   UNL     1       2.091 -20.186  -4.206  0.00  0.00    -0.050 Br
ENDBRANCH  26  28
ENDBRANCH  23  24
ENDBRANCH  22  23
ENDBRANCH   4  22
TORSDOF 9
