REMARK  Name = ZINC31490050
REMARK  9 active torsions:
REMARK  status: ('A' for Active; 'I' for Inactive)
REMARK    1  A    between atoms: C_6  and  C_7
REMARK    2  A    between atoms: N_11  and  C_20
REMARK    3  A    between atoms: C_15  and  O_19
REMARK    4  A    between atoms: C_20  and  C_21
REMARK    5  A    between atoms: C_21  and  C_22
REMARK    6  A    between atoms: C_22  and  N_23
REMARK    7  A    between atoms: N_26  and  C_29
REMARK    8  A    between atoms: C_29  and  C_30
REMARK    9  A    between atoms: C_30  and  O_31
REMARK                            x       y       z     vdW  Elec       q    Type
REMARK                         _______ _______ _______ _____ _____    ______ ____
ROOT
ATOM      1  C   UNL     1       7.357   0.797   0.978  0.00  0.00    +0.013 A 
ATOM      2  C   UNL     1       6.228   1.310   1.591  0.00  0.00    +0.017 A 
ATOM      3  C   UNL     1       4.972   0.827   1.255  0.00  0.00    +0.034 A 
ATOM      4  C   UNL     1       4.843  -0.178   0.300  0.00  0.00    +0.048 A 
ATOM      5  C   UNL     1       5.984  -0.684  -0.312  0.00  0.00    +0.037 A 
ATOM      6  C   UNL     1       7.233  -0.198   0.026  0.00  0.00    +0.057 A 
ATOM      7  N   UNL     1       3.602  -0.699  -0.056  0.00  0.00    -0.298 N 
ATOM      8  C   UNL     1       2.388  -0.022   0.073  0.00  0.00    +0.048 A 
ATOM      9  C   UNL     1       1.327  -0.386  -0.750  0.00  0.00    +0.028 A 
ATOM     10  C   UNL     1       0.109   0.259  -0.646  0.00  0.00    +0.047 A 
ATOM     11  C   UNL     1      -0.065   1.275   0.281  0.00  0.00    +0.118 A 
ATOM     12  C   UNL     1       0.989   1.646   1.103  0.00  0.00    +0.062 A 
ATOM     13  C   UNL     1       2.213   1.002   0.999  0.00  0.00    +0.038 A 
ATOM     14  S   UNL     1       3.545   1.496   2.042  0.00  0.00    -0.086 S 
ENDROOT
BRANCH   6  15
ATOM     15  C   UNL     1       8.463  -0.753  -0.643  0.00  0.00    +0.417 C 
ATOM     16  F   UNL     1       9.599  -0.110  -0.141  0.00  0.00    -0.166 F 
ATOM     17  F   UNL     1       8.553  -2.126  -0.388  0.00  0.00    -0.166 F 
ATOM     18  F   UNL     1       8.379  -0.540  -2.023  0.00  0.00    -0.166 F 
ENDBRANCH   6  15
BRANCH  11  19
ATOM     19  O   UNL     1      -1.265   1.906   0.383  0.00  0.00    -0.507 OA
ATOM     20  H   UNL     1      -1.872   1.496   1.014  0.00  0.00    +0.292 HD
ENDBRANCH  11  19
BRANCH   7  21
ATOM     21  C   UNL     1       3.567  -2.055  -0.608  0.00  0.00    +0.109 C 
BRANCH  21  22
ATOM     22  C   UNL     1       3.714  -1.992  -2.129  0.00  0.00    +0.001 C 
BRANCH  22  23
ATOM     23  C   UNL     1       3.678  -3.409  -2.705  0.00  0.00    -0.077 C 
BRANCH  23  24
ATOM     24  N   UNL     1       3.818  -3.347  -4.166  0.00  0.00    +0.381 N 
ATOM     25  C   UNL     1       2.653  -2.663  -4.742  0.00  0.00    -0.063 C 
ATOM     26  C   UNL     1       2.808  -2.582  -6.262  0.00  0.00    +0.066 C 
ATOM     27  N   UNL     1       2.922  -3.940  -6.813  0.00  0.00    -0.304 NA
ATOM     28  C   UNL     1       4.069  -4.646  -6.227  0.00  0.00    +0.066 C 
ATOM     29  C   UNL     1       3.904  -4.710  -4.707  0.00  0.00    -0.063 C 
ATOM     30  H   UNL     1       4.657  -2.839  -4.402  0.00  0.00    -0.082 HD
BRANCH  27  31
ATOM     31  C   UNL     1       3.015  -3.907  -8.278  0.00  0.00    +0.112 C 
BRANCH  31  32
ATOM     32  C   UNL     1       2.881  -5.328  -8.830  0.00  0.00    +0.171 C 
BRANCH  32  33
ATOM     33  O   UNL     1       1.573  -5.827  -8.546  0.00  0.00    -0.394 OA
ATOM     34  H   UNL     1       1.416  -6.726  -8.867  0.00  0.00    +0.209 HD
ENDBRANCH  32  33
ENDBRANCH  31  32
ENDBRANCH  27  31
ENDBRANCH  23  24
ENDBRANCH  22  23
ENDBRANCH  21  22
ENDBRANCH   7  21
TORSDOF 9
