REMARK  Name = ZINC39665049
REMARK  7 active torsions:
REMARK  status: ('A' for Active; 'I' for Inactive)
REMARK    1  A    between atoms: C_1  and  C_2
REMARK    2  A    between atoms: C_2  and  C_4
REMARK    3  A    between atoms: C_2  and  O_35
REMARK    4  A    between atoms: C_4  and  N_5
REMARK    5  A    between atoms: C_6  and  C_8
REMARK    6  A    between atoms: C_19  and  C_21
REMARK    7  A    between atoms: O_35  and  C_36
REMARK                            x       y       z     vdW  Elec       q    Type
REMARK                         _______ _______ _______ _____ _____    ______ ____
ROOT
ATOM      1  C   UNL     1       0.783  -4.922   2.151  0.00  0.00    +0.100 C 
ATOM      2  C   UNL     1       2.124  -5.233   1.448  0.00  0.00    +0.121 C 
ATOM      3  N   UNL     1       3.150  -5.056   2.503  0.00  0.00    -0.296 N 
ATOM      4  C   UNL     1       2.525  -5.622   3.723  0.00  0.00    +0.115 C 
ATOM      5  C   UNL     1       1.050  -5.181   3.643  0.00  0.00    -0.004 C 
ATOM      6  C   UNL     1       0.839  -3.903   4.448  0.00  0.00    -0.010 C 
ATOM      7  C   UNL     1       1.054  -4.200   5.935  0.00  0.00    -0.082 C 
ATOM      8  N   UNL     1       0.112  -5.238   6.370  0.00  0.00    +0.379 N 
ATOM      9  C   UNL     1       0.383  -6.492   5.657  0.00  0.00    -0.082 C 
ATOM     10  C   UNL     1       0.139  -6.291   4.158  0.00  0.00    -0.010 C 
ATOM     11  C   UNL     1       4.374  -4.505   2.381  0.00  0.00    +0.247 C 
ATOM     12  O   UNL     1       5.138  -4.508   3.326  0.00  0.00    -0.270 OA
ATOM     13  H   UNL     1       0.214  -5.388   7.363  0.00  0.00    -0.086 HD
ATOM     14  H   UNL     1      -0.831  -4.938   6.174  0.00  0.00    -0.086 HD
ENDROOT
BRANCH  11  15
ATOM     15  C   UNL     1       4.786  -3.899   1.099  0.00  0.00    +0.045 A 
ATOM     16  C   UNL     1       4.615  -4.602  -0.099  0.00  0.00    +0.014 A 
ATOM     17  C   UNL     1       4.998  -4.039  -1.296  0.00  0.00    +0.001 A 
ATOM     18  C   UNL     1       5.557  -2.770  -1.329  0.00  0.00    +0.012 A 
ATOM     19  C   UNL     1       5.735  -2.055  -0.151  0.00  0.00    +0.031 A 
ATOM     20  C   UNL     1       5.344  -2.614   1.076  0.00  0.00    +0.006 A 
ATOM     21  C   UNL     1       5.638  -1.642   2.159  0.00  0.00    -0.006 A 
ATOM     22  C   UNL     1       5.453  -1.702   3.533  0.00  0.00    +0.009 A 
ATOM     23  C   UNL     1       5.824  -0.630   4.330  0.00  0.00    +0.001 A 
ATOM     24  C   UNL     1       6.378   0.502   3.767  0.00  0.00    +0.001 A 
ATOM     25  C   UNL     1       6.570   0.578   2.396  0.00  0.00    +0.012 A 
ATOM     26  C   UNL     1       6.204  -0.490   1.586  0.00  0.00    +0.030 A 
ATOM     27  C   UNL     1       6.294  -0.709   0.122  0.00  0.00    +0.194 C 
ATOM     28  O   UNL     1       6.729   0.072  -0.699  0.00  0.00    -0.287 OA
ENDBRANCH  11  15
BRANCH   1  30
ATOM     29  N   UNL     1      -0.894  -3.108   2.030  0.00  0.00    -0.312 N 
ATOM     30  C   UNL     1       0.397  -3.482   1.930  0.00  0.00    +0.218 C 
ATOM     31  O   UNL     1       1.248  -2.660   1.663  0.00  0.00    -0.275 OA
ATOM     32  H   UNL     1      -1.574  -3.765   2.244  0.00  0.00    +0.149 HD
BRANCH  29  33
ATOM     33  C   UNL     1      -1.269  -1.708   1.815  0.00  0.00    +0.148 C 
BRANCH  33  35
ATOM     34  C   UNL     1      -3.191  -0.120   1.639  0.00  0.00    +0.053 C 
ATOM     35  C   UNL     1      -2.782  -1.554   1.985  0.00  0.00    +0.187 C 
BRANCH  35  36
ATOM     36  O   UNL     1      -3.140  -1.838   3.339  0.00  0.00    -0.488 OA
BRANCH  36  37
ATOM     37  C   UNL     1      -4.422  -2.227   3.569  0.00  0.00    +0.121 A 
ATOM     38  C   UNL     1      -5.305  -2.370   2.510  0.00  0.00    +0.045 A 
ATOM     39  C   UNL     1      -6.607  -2.767   2.746  0.00  0.00    +0.004 A 
ATOM     40  C   UNL     1      -7.030  -3.021   4.038  0.00  0.00    +0.000 A 
ATOM     41  C   UNL     1      -6.151  -2.878   5.096  0.00  0.00    +0.004 A 
ATOM     42  C   UNL     1      -4.846  -2.488   4.864  0.00  0.00    +0.045 A 
ENDBRANCH  36  37
ENDBRANCH  35  36
ENDBRANCH  33  35
ENDBRANCH  29  33
ENDBRANCH   1  30
TORSDOF 6
