REMARK  Name = ZINC37436803
REMARK  4 active torsions:
REMARK  status: ('A' for Active; 'I' for Inactive)
REMARK    1  A    between atoms: C_1  and  C_2
REMARK    2  A    between atoms: C_2  and  C_4
REMARK    3  A    between atoms: C_2  and  N_20
REMARK    4  A    between atoms: C_4  and  C_5
REMARK                            x       y       z     vdW  Elec       q    Type
REMARK                         _______ _______ _______ _____ _____    ______ ____
ROOT
ATOM      1  C   UNL     1       0.870  -2.011   1.172  0.00  0.00    +0.107 A 
ATOM      2  N   UNL     1       2.041  -2.699   1.262  0.00  0.00    -0.342 N 
ATOM      3  H   UNL     1       2.925  -2.317   1.381  0.00  0.00    +0.167 HD
ATOM      4  C   UNL     1       1.737  -4.043   1.154  0.00  0.00    +0.070 A 
ATOM      5  C   UNL     1       2.496  -5.206   1.174  0.00  0.00    +0.077 A 
ATOM      6  C   UNL     1       1.872  -6.431   1.039  0.00  0.00    +0.164 A 
ATOM      7  C   UNL     1       0.490  -6.506   0.882  0.00  0.00    +0.164 A 
ATOM      8  C   UNL     1      -0.276  -5.360   0.860  0.00  0.00    +0.079 A 
ATOM      9  C   UNL     1       0.343  -4.113   0.997  0.00  0.00    +0.093 A 
ATOM     10  N   UNL     1      -0.123  -2.837   1.022  0.00  0.00    -0.232 NA
ATOM     11  O   UNL     1      -0.107  -7.728   0.752  0.00  0.00    -0.488 OA
ATOM     12  C   UNL     1       0.176  -8.437  -0.456  0.00  0.00    +0.232 C 
ATOM     13  C   UNL     1       1.478  -9.212  -0.336  0.00  0.00    +0.082 C 
ATOM     14  C   UNL     1       2.683  -8.299  -0.173  0.00  0.00    +0.232 C 
ATOM     15  O   UNL     1       2.611  -7.579   1.060  0.00  0.00    -0.488 OA
ENDROOT
BRANCH   1  16
ATOM     16  C   UNL     1       0.742  -0.511   1.242  0.00  0.00    +0.058 C 
BRANCH  16  18
ATOM     17  C   UNL     1      -0.019   1.526   0.010  0.00  0.00    -0.014 C 
ATOM     18  C   UNL     1       0.002  -0.004   0.002  0.00  0.00    -0.071 C 
BRANCH  18  19
ATOM     19  N   UNL     1      -1.376  -0.512   0.012  0.00  0.00    +0.380 N 
ATOM     20  H   UNL     1      -1.362  -1.521   0.007  0.00  0.00    -0.090 HD
ATOM     21  H   UNL     1      -1.848  -0.187   0.843  0.00  0.00    -0.090 HD
ATOM     22  H   UNL     1      -1.864  -0.178  -0.805  0.00  0.00    -0.090 HD
ENDBRANCH  18  19
ENDBRANCH  16  18
ENDBRANCH   1  16
TORSDOF 3
