REMARK  Name = ZINC37040942
REMARK  10 active torsions:
REMARK  status: ('A' for Active; 'I' for Inactive)
REMARK    1  A    between atoms: C_1  and  C_2
REMARK    2  A    between atoms: C_2  and  C_3
REMARK    3  A    between atoms: C_3  and  C_5
REMARK    4  A    between atoms: C_3  and  C_6
REMARK    5  A    between atoms: C_6  and  C_8
REMARK    6  A    between atoms: C_6  and  N_22
REMARK    7  A    between atoms: N_10  and  C_11
REMARK    8  A    between atoms: C_13  and  S_18
REMARK    9  A    between atoms: C_16  and  C_17
REMARK   10  A    between atoms: S_18  and  N_21
REMARK                            x       y       z     vdW  Elec       q    Type
REMARK                         _______ _______ _______ _____ _____    ______ ____
ROOT
ATOM      1  C   UNL     1      -2.825  -2.584   0.140  0.00  0.00    +0.203 C 
ATOM      2  O   UNL     1      -3.354  -2.880   1.191  0.00  0.00    -0.277 OA
ATOM      3  N   UNL     1      -3.506  -2.712  -1.016  0.00  0.00    -0.287 N 
ATOM      4  H   UNL     1      -3.113  -2.401  -1.847  0.00  0.00    +0.155 HD
ENDROOT
BRANCH   3   5
ATOM      5  C   UNL     1      -4.778  -3.294  -1.019  0.00  0.00    +0.038 A 
ATOM      6  C   UNL     1      -5.141  -4.179  -0.012  0.00  0.00    +0.052 A 
ATOM      7  C   UNL     1      -6.398  -4.751  -0.017  0.00  0.00    +0.107 A 
ATOM      8  C   UNL     1      -7.295  -4.444  -1.024  0.00  0.00    +0.029 A 
ATOM      9  C   UNL     1      -6.937  -3.563  -2.028  0.00  0.00    +0.007 A 
ATOM     10  C   UNL     1      -5.683  -2.982  -2.025  0.00  0.00    -0.029 A 
ATOM     11  C   UNL     1      -5.296  -2.017  -3.115  0.00  0.00    +0.045 C 
BRANCH   7  12
ATOM     12  S   UNL     1      -6.859  -5.874   1.260  0.00  0.00    +0.056 S 
ATOM     13  O   UNL     1      -7.893  -6.691   0.729  0.00  0.00    -0.153 OA
ATOM     14  O   UNL     1      -5.652  -6.415   1.780  0.00  0.00    -0.153 OA
BRANCH  12  15
ATOM     15  N   UNL     1      -7.540  -4.980   2.476  0.00  0.00    -0.204 NA
ATOM     16  H   UNL     1      -8.224  -5.372   3.042  0.00  0.00    +0.144 HD
ATOM     17  H   UNL     1      -7.255  -4.064   2.623  0.00  0.00    +0.144 HD
ENDBRANCH  12  15
ENDBRANCH   7  12
ENDBRANCH   3   5
BRANCH   1  18
ATOM     18  C   UNL     1      -1.408  -2.073   0.128  0.00  0.00    +0.016 C 
BRANCH  18  19
ATOM     19  N   UNL     1      -0.736  -2.463   1.375  0.00  0.00    +0.386 N 
ATOM     20  H   UNL     1      -1.230  -2.067   2.161  0.00  0.00    -0.089 HD
ATOM     21  H   UNL     1      -0.731  -3.469   1.454  0.00  0.00    -0.089 HD
ATOM     22  H   UNL     1       0.213  -2.121   1.367  0.00  0.00    -0.089 HD
ENDBRANCH  18  19
BRANCH  18  23
ATOM     23  C   UNL     1      -1.416  -0.548   0.009  0.00  0.00    -0.020 C 
ATOM     24  C   UNL     1      -2.116  -0.142  -1.290  0.00  0.00    +0.006 C 
BRANCH  23  26
ATOM     25  C   UNL     1       0.014   1.501   0.002  0.00  0.00    +0.004 C 
ATOM     26  C   UNL     1       0.023  -0.029  -0.004  0.00  0.00    -0.001 C 
ENDBRANCH  23  26
ENDBRANCH  18  23
ENDBRANCH   1  18
TORSDOF 7
