REMARK  Name = ZINC61594807
REMARK  11 active torsions:
REMARK  status: ('A' for Active; 'I' for Inactive)
REMARK    1  A    between atoms: C_1  and  C_2
REMARK    2  A    between atoms: C_2  and  C_3
REMARK    3  A    between atoms: C_3  and  N_4
REMARK    4  A    between atoms: C_10  and  S_11
REMARK    5  A    between atoms: S_11  and  C_12
REMARK    6  A    between atoms: C_12  and  C_14
REMARK    7  A    between atoms: C_12  and  C_20
REMARK    8  A    between atoms: N_17  and  C_19
REMARK    9  A    between atoms: C_20  and  C_22
REMARK   10  A    between atoms: C_20  and  N_24
REMARK   11  A    between atoms: C_22  and  C_23
REMARK                            x       y       z     vdW  Elec       q    Type
REMARK                         _______ _______ _______ _____ _____    ______ ____
ROOT
ATOM      1  C   UNL     1      -2.371  -3.732  -3.068  0.00  0.00    +0.073 C 
ENDROOT
BRANCH   1   2
ATOM      2  C   UNL     1      -3.693  -3.507  -3.756  0.00  0.00    +0.002 A 
ATOM      3  C   UNL     1      -3.877  -2.924  -5.014  0.00  0.00    +0.139 A 
ATOM      4  N   UNL     1      -5.160  -2.901  -5.271  0.00  0.00    -0.180 NA
ATOM      5  N   UNL     1      -5.833  -3.471  -4.183  0.00  0.00    -0.274 N 
ATOM      6  C   UNL     1      -4.911  -3.839  -3.269  0.00  0.00    +0.112 A 
ATOM      7  C   UNL     1      -7.283  -3.642  -4.061  0.00  0.00    +0.172 C 
ENDBRANCH   1   2
BRANCH   1   8
ATOM      8  S   UNL     1      -1.542  -2.138  -2.817  0.00  0.00    -0.079 S 
BRANCH   8  15
ATOM      9  N   UNL     1      -2.279  -0.096  -1.053  0.00  0.00    -0.271 N 
ATOM     10  C   UNL     1      -3.284   0.206  -0.206  0.00  0.00    +0.345 A 
ATOM     11  O   UNL     1      -3.375   1.214   0.473  0.00  0.00    -0.245 OA
ATOM     12  N   UNL     1      -4.171  -0.809  -0.248  0.00  0.00    -0.226 N 
ATOM     13  H   UNL     1      -4.997  -0.871   0.257  0.00  0.00    +0.194 HD
ATOM     14  N   UNL     1      -3.680  -1.758  -1.155  0.00  0.00    -0.145 NA
ATOM     15  C   UNL     1      -2.552  -1.314  -1.632  0.00  0.00    +0.193 A 
BRANCH   9  16
ATOM     16  C   UNL     1      -1.101   0.735  -1.316  0.00  0.00    +0.129 C 
BRANCH  16  18
ATOM     17  C   UNL     1      -0.169   2.556  -2.750  0.00  0.00    +0.005 C 
ATOM     18  C   UNL     1      -1.399   1.689  -2.475  0.00  0.00    +0.018 C 
ENDBRANCH  16  18
ENDBRANCH   9  16
ENDBRANCH   8  15
ENDBRANCH   1   8
BRANCH   1  19
ATOM     19  C   UNL     1      -1.491  -4.634  -3.936  0.00  0.00    -0.057 C 
BRANCH  19  20
ATOM     20  N   UNL     1      -2.208  -5.882  -4.229  0.00  0.00    +0.381 N 
ATOM     21  H   UNL     1      -3.062  -5.672  -4.721  0.00  0.00    -0.090 HD
ATOM     22  H   UNL     1      -1.627  -6.477  -4.801  0.00  0.00    -0.090 HD
ATOM     23  H   UNL     1      -2.425  -6.356  -3.365  0.00  0.00    -0.090 HD
ENDBRANCH  19  20
BRANCH  19  24
ATOM     24  C   UNL     1      -0.195  -4.952  -3.189  0.00  0.00    -0.018 C 
ATOM     25  C   UNL     1       0.742  -5.741  -4.107  0.00  0.00    +0.002 C 
ENDBRANCH  19  24
ENDBRANCH   1  19
TORSDOF 8
