REMARK  Name = ZINC05519275
REMARK  8 active torsions:
REMARK  status: ('A' for Active; 'I' for Inactive)
REMARK    1  A    between atoms: C_2  and  C_3
REMARK    2  A    between atoms: C_6  and  N_9
REMARK    3  A    between atoms: N_10  and  C_11
REMARK    4  A    between atoms: C_13  and  N_19
REMARK    5  A    between atoms: C_14  and  O_18
REMARK    6  A    between atoms: C_16  and  O_17
REMARK    7  A    between atoms: N_20  and  C_21
REMARK    8  A    between atoms: C_24  and  C_27
REMARK                            x       y       z     vdW  Elec       q    Type
REMARK                         _______ _______ _______ _____ _____    ______ ____
ROOT
ATOM      1  C   UNL     1       0.985   1.367  -0.000  0.00  0.00    +0.130 A 
ATOM      2  C   UNL     1      -0.410   1.365   0.019  0.00  0.00    +0.066 A 
ATOM      3  C   UNL     1      -1.100   0.153   0.014  0.00  0.00    +0.130 A 
ATOM      4  C   UNL     1      -0.387  -1.060   0.000  0.00  0.00    +0.147 A 
ATOM      5  C   UNL     1       0.998  -1.052  -0.014  0.00  0.00    +0.095 A 
ATOM      6  C   UNL     1       1.688   0.148  -0.014  0.00  0.00    +0.147 A 
ENDROOT
BRANCH   1   8
ATOM      7  N   UNL     1       1.019   3.664   0.012  0.00  0.00    -0.149 NA
ATOM      8  N   UNL     1       1.665   2.548  -0.000  0.00  0.00    -0.146 NA
BRANCH   7  12
ATOM      9  C   UNL     1       3.087   7.251   0.013  0.00  0.00    +0.012 A 
ATOM     10  C   UNL     1       1.691   7.250   0.026  0.00  0.00    +0.013 A 
ATOM     11  C   UNL     1       1.002   6.059   0.026  0.00  0.00    +0.030 A 
ATOM     12  C   UNL     1       1.702   4.848   0.012  0.00  0.00    +0.086 A 
ATOM     13  C   UNL     1       3.100   4.849   0.005  0.00  0.00    +0.030 A 
ATOM     14  C   UNL     1       3.786   6.042  -0.001  0.00  0.00    +0.013 A 
BRANCH   9  16
ATOM     15  H   UNL     1       3.569  10.553   0.026  0.00  0.00    +0.157 HD
ATOM     16  C   UNL     1       3.826   8.533   0.013  0.00  0.00    +0.094 C 
ATOM     17  N   UNL     1       5.204   8.534  -0.001  0.00  0.00    -0.345 N 
ATOM     18  H   UNL     1       5.690   7.694  -0.010  0.00  0.00    +0.144 HD
ATOM     19  H   UNL     1       5.689   9.374  -0.001  0.00  0.00    +0.144 HD
ATOM     20  N   UNL     1       3.105   9.644   0.026  0.00  0.00    -0.387 N 
ATOM     21  H   UNL     1       2.080   9.591   0.035  0.00  0.00    +0.157 HD
ENDBRANCH   9  16
ENDBRANCH   7  12
ENDBRANCH   1   8
BRANCH   6  22
ATOM     22  O   UNL     1       3.044   0.149  -0.028  0.00  0.00    -0.504 OA
ATOM     23  H   UNL     1       3.446   0.144   0.852  0.00  0.00    +0.292 HD
ENDBRANCH   6  22
BRANCH   4  24
ATOM     24  O   UNL     1      -1.057  -2.239   0.000  0.00  0.00    -0.504 OA
ATOM     25  H   UNL     1      -1.243  -2.586   0.884  0.00  0.00    +0.292 HD
ENDBRANCH   4  24
BRANCH   3  26
ATOM     26  N   UNL     1      -2.462   0.144   0.028  0.00  0.00    -0.146 NA
ATOM     27  N   UNL     1      -3.115   1.257   0.041  0.00  0.00    -0.149 NA
BRANCH  27  28
ATOM     28  C   UNL     1      -4.481   1.248   0.055  0.00  0.00    +0.086 A 
ATOM     29  C   UNL     1      -5.173   0.033   0.049  0.00  0.00    +0.030 A 
ATOM     30  C   UNL     1      -6.549   0.024   0.070  0.00  0.00    +0.013 A 
ATOM     31  C   UNL     1      -7.254   1.229   0.083  0.00  0.00    +0.012 A 
ATOM     32  C   UNL     1      -6.565   2.443   0.083  0.00  0.00    +0.013 A 
ATOM     33  C   UNL     1      -5.189   2.454   0.069  0.00  0.00    +0.030 A 
BRANCH  31  34
ATOM     34  C   UNL     1      -8.734   1.219   0.098  0.00  0.00    +0.094 C 
ATOM     35  H   UNL     1     -10.363   2.440   0.122  0.00  0.00    +0.157 HD
ATOM     36  N   UNL     1      -9.415   0.021   0.099  0.00  0.00    -0.345 N 
ATOM     37  H   UNL     1      -8.925  -0.816   0.089  0.00  0.00    +0.144 HD
ATOM     38  H   UNL     1     -10.385   0.015   0.108  0.00  0.00    +0.144 HD
ATOM     39  N   UNL     1      -9.344   2.395   0.111  0.00  0.00    -0.387 N 
ATOM     40  H   UNL     1      -8.792   3.260   0.110  0.00  0.00    +0.157 HD
ENDBRANCH  31  34
ENDBRANCH  27  28
ENDBRANCH   3  26
TORSDOF 8
