REMARK  Name = ZINC04724923
REMARK  7 active torsions:
REMARK  status: ('A' for Active; 'I' for Inactive)
REMARK    1  A    between atoms: C_1  and  O_2
REMARK    2  A    between atoms: O_2  and  C_3
REMARK    3  A    between atoms: C_6  and  C_11
REMARK    4  A    between atoms: C_7  and  O_9
REMARK    5  A    between atoms: O_9  and  C_10
REMARK    6  A    between atoms: C_15  and  O_22
REMARK    7  A    between atoms: C_16  and  O_21
REMARK                            x       y       z     vdW  Elec       q    Type
REMARK                         _______ _______ _______ _____ _____    ______ ____
ROOT
ATOM      1  C   UNL     1      -2.494   0.936   0.028  0.00  0.00    -0.006 C 
ATOM      2  C   UNL     1      -1.226   1.749   0.017  0.00  0.00    -0.050 A 
ATOM      3  C   UNL     1      -0.013   1.076   0.008  0.00  0.00    +0.051 A 
ATOM      4  C   UNL     1       1.178   1.779   0.000  0.00  0.00    +0.158 A 
ATOM      5  C   UNL     1       1.157   3.171   0.008  0.00  0.00    +0.158 A 
ATOM      6  C   UNL     1      -0.055   3.838   0.021  0.00  0.00    +0.053 A 
ATOM      7  C   UNL     1      -1.246   3.127   0.026  0.00  0.00    -0.044 A 
ATOM      8  C   UNL     1      -2.541   3.899   0.029  0.00  0.00    +0.016 C 
ATOM      9  C   UNL     1      -3.695   2.986   0.434  0.00  0.00    -0.077 C 
ATOM     10  N   UNL     1      -3.640   1.759  -0.383  0.00  0.00    +0.387 N 
ATOM     11  H   UNL     1      -4.507   1.225  -0.253  0.00  0.00    -0.085 HD
ATOM     12  H   UNL     1      -3.539   2.013  -1.373  0.00  0.00    -0.085 HD
ENDROOT
BRANCH   1  16
ATOM     13  C   UNL     1      -2.090  -2.352  -2.677  0.00  0.00    +0.124 A 
ATOM     14  C   UNL     1      -2.692  -1.173  -3.096  0.00  0.00    +0.046 A 
ATOM     15  C   UNL     1      -2.826  -0.115  -2.218  0.00  0.00    +0.009 A 
ATOM     16  C   UNL     1      -2.352  -0.223  -0.925  0.00  0.00    -0.015 A 
ATOM     17  C   UNL     1      -1.749  -1.398  -0.501  0.00  0.00    +0.125 A 
ATOM     18  C   UNL     1      -1.618  -2.464  -1.379  0.00  0.00    +0.091 A 
BRANCH  13  20
ATOM     19  C   UNL     1      -2.471  -3.208  -4.862  0.00  0.00    +0.277 C 
ATOM     20  O   UNL     1      -1.963  -3.394  -3.539  0.00  0.00    -0.495 OA
ENDBRANCH  13  20
BRANCH  17  21
ATOM     21  O   UNL     1      -1.288  -1.506   0.773  0.00  0.00    -0.495 OA
ATOM     22  C   UNL     1      -0.678  -2.745   1.140  0.00  0.00    +0.277 C 
ENDBRANCH  17  21
ENDBRANCH   1  16
BRANCH   5  23
ATOM     23  O   UNL     1       2.323   3.872   0.003  0.00  0.00    -0.503 OA
ATOM     24  H   UNL     1       2.653   4.080  -0.882  0.00  0.00    +0.292 HD
ENDBRANCH   5  23
BRANCH   4  25
ATOM     25  O   UNL     1       2.364   1.114  -0.014  0.00  0.00    -0.503 OA
ATOM     26  H   UNL     1       2.699   0.926  -0.902  0.00  0.00    +0.292 HD
ENDBRANCH   4  25
TORSDOF 5
