REMARK  Name = ZINC28932999
REMARK  6 active torsions:
REMARK  status: ('A' for Active; 'I' for Inactive)
REMARK    1  A    between atoms: C_1  and  C_2
REMARK    2  A    between atoms: C_9  and  C_16
REMARK    3  A    between atoms: C_11  and  O_12
REMARK    4  A    between atoms: C_16  and  O_17
REMARK    5  A    between atoms: O_17  and  C_18
REMARK    6  A    between atoms: C_18  and  C_20
REMARK                            x       y       z     vdW  Elec       q    Type
REMARK                         _______ _______ _______ _____ _____    ______ ____
ROOT
ATOM      1  C   UNL     1       6.780  17.136   0.410  0.00  0.00    +0.109 C 
ATOM      2  C   UNL     1       5.961  15.875   0.514  0.00  0.00    +0.214 C 
ATOM      3  O   UNL     1       4.874  15.901   1.050  0.00  0.00    -0.276 OA
ATOM      4  N   UNL     1       6.437  14.719   0.011  0.00  0.00    -0.286 N 
ATOM      5  C   UNL     1       5.635  13.577   0.008  0.00  0.00    +0.037 A 
ATOM      6  C   UNL     1       6.218  12.321   0.180  0.00  0.00    +0.024 A 
ATOM      7  C   UNL     1       5.447  11.196   0.180  0.00  0.00    +0.014 A 
ATOM      8  C   UNL     1       4.062  11.301   0.010  0.00  0.00    +0.024 A 
ATOM      9  C   UNL     1       3.211  10.109  -0.001  0.00  0.00    +0.007 A 
ATOM     10  C   UNL     1       1.874  10.277  -0.175  0.00  0.00    +0.095 A 
ATOM     11  C   UNL     1       1.346  11.573  -0.343  0.00  0.00    +0.285 A 
ATOM     12  O   UNL     1       2.131  12.661  -0.337  0.00  0.00    -0.425 OA
ATOM     13  C   UNL     1       3.468  12.564  -0.169  0.00  0.00    +0.141 A 
ATOM     14  C   UNL     1       4.265  13.699  -0.166  0.00  0.00    +0.070 A 
ATOM     15  H   UNL     1       7.457  14.675  -0.398  0.00  0.00    +0.155 HD
ENDROOT
BRANCH  11  16
ATOM     16  O   UNL     1       0.145  11.709  -0.499  0.00  0.00    -0.480 OA
ATOM     17  H   UNL     1      -0.282  12.713  -0.632  0.00  0.00    +0.295 HD
ENDBRANCH  11  16
BRANCH   9  18
ATOM     18  C   UNL     1       3.802   8.735   0.182  0.00  0.00    +0.269 C 
BRANCH  18  19
ATOM     19  O   UNL     1       2.743   7.743   0.136  0.00  0.00    -0.456 OA
BRANCH  19  20
ATOM     20  C   UNL     1       3.106   6.452   0.285  0.00  0.00    +0.348 C 
ATOM     21  O   UNL     1       4.276   6.165   0.449  0.00  0.00    -0.244 OA
BRANCH  20  22
ATOM     22  C   UNL     1       2.089   5.396   0.249  0.00  0.00    +0.116 A 
ATOM     23  C   UNL     1       2.258   4.051   0.379  0.00  0.00    +0.070 A 
ATOM     24  C   UNL     1       1.143   3.195   0.315  0.00  0.00    +0.008 A 
ATOM     25  C   UNL     1       1.114   1.781   0.426  0.00  0.00    +0.010 A 
ATOM     26  C   UNL     1      -0.059   1.102   0.341  0.00  0.00    +0.001 A 
ATOM     27  C   UNL     1      -1.268   1.757   0.137  0.00  0.00    +0.001 A 
ATOM     28  C   UNL     1      -1.285   3.133   0.029  0.00  0.00    +0.016 A 
ATOM     29  C   UNL     1      -0.102   3.836   0.114  0.00  0.00    +0.022 A 
ATOM     30  S   UNL     1       0.326   5.556   0.025  0.00  0.00    -0.080 S 
ATOM     31 CL   UNL     1       3.846   3.393   0.623  0.00  0.00    -0.082 Cl
ENDBRANCH  20  22
ENDBRANCH  19  20
ENDBRANCH  18  19
ENDBRANCH   9  18
TORSDOF 5
