REMARK  Name = ZINC32105097
REMARK  5 active torsions:
REMARK  status: ('A' for Active; 'I' for Inactive)
REMARK    1  A    between atoms: C_4  and  N_26
REMARK    2  A    between atoms: C_5  and  C_7
REMARK    3  A    between atoms: N_9  and  N_10
REMARK    4  A    between atoms: N_10  and  C_11
REMARK    5  A    between atoms: C_13  and  C_14
REMARK                            x       y       z     vdW  Elec       q    Type
REMARK                         _______ _______ _______ _____ _____    ______ ____
ROOT
ATOM      1  C   UNL     1      -5.938  -0.306   0.567  0.00  0.00    +0.258 C 
ATOM      2  O   UNL     1      -5.987  -1.512   0.677  0.00  0.00    -0.269 OA
ATOM      3  C   UNL     1      -7.203   0.510   0.638  0.00  0.00    +0.136 C 
ENDROOT
BRANCH   3   4
ATOM      4  C   UNL     1      -8.380  -0.407   0.849  0.00  0.00    +0.248 C 
ATOM      5  O   UNL     1      -8.209  -1.604   0.934  0.00  0.00    -0.270 OA
ATOM      6  N   UNL     1      -9.624   0.105   0.944  0.00  0.00    -0.261 N 
ATOM      7  C   UNL     1     -10.706  -0.738   1.138  0.00  0.00    +0.166 A 
ATOM      8  N   UNL     1     -11.977  -0.432   1.254  0.00  0.00    -0.225 NA
ATOM      9  C   UNL     1     -12.935  -1.366   1.442  0.00  0.00    +0.080 A 
ATOM     10  C   UNL     1     -14.329  -1.172   1.581  0.00  0.00    +0.029 A 
ATOM     11  C   UNL     1     -15.169  -2.238   1.766  0.00  0.00    +0.002 A 
ATOM     12  C   UNL     1     -14.688  -3.538   1.825  0.00  0.00    +0.001 A 
ATOM     13  C   UNL     1     -13.331  -3.765   1.694  0.00  0.00    +0.017 A 
ATOM     14  C   UNL     1     -12.481  -2.703   1.507  0.00  0.00    +0.041 A 
ATOM     15  S   UNL     1     -10.728  -2.519   1.287  0.00  0.00    -0.052 S 
ATOM     16  H   UNL     1      -9.779   1.191   0.867  0.00  0.00    +0.157 HD
ENDBRANCH   3   4
BRANCH   1  17
ATOM     17  N   UNL     1      -4.751   0.306   0.381  0.00  0.00    -0.230 N 
ATOM     18  H   UNL     1      -4.706   1.400   0.281  0.00  0.00    +0.173 HD
BRANCH  17  21
ATOM     19  C   UNL     1      -2.388   0.159   0.130  0.00  0.00    +0.262 C 
ATOM     20  O   UNL     1      -2.339   1.369   0.019  0.00  0.00    -0.269 OA
ATOM     21  N   UNL     1      -3.575  -0.453   0.316  0.00  0.00    -0.230 N 
ATOM     22  H   UNL     1      -3.620  -1.547   0.416  0.00  0.00    +0.173 HD
BRANCH  19  27
ATOM     23  C   UNL     1       0.344  -2.256   1.028  0.00  0.00    +0.001 A 
ATOM     24  C   UNL     1       1.177  -2.141  -0.070  0.00  0.00    +0.002 A 
ATOM     25  C   UNL     1       0.851  -1.284  -1.106  0.00  0.00    +0.033 A 
ATOM     26  C   UNL     1      -0.302  -0.530  -1.045  0.00  0.00    +0.138 A 
ATOM     27  C   UNL     1      -1.147  -0.641   0.060  0.00  0.00    +0.068 A 
ATOM     28  C   UNL     1      -0.815  -1.512   1.100  0.00  0.00    +0.015 A 
BRANCH  26  29
ATOM     29  N   UNL     1      -0.646   0.391  -2.152  0.00  0.00    +0.057 N 
ATOM     30  O   UNL     1       0.144   0.574  -3.060  0.00  0.00    -0.126 OA
ATOM     31  O   UNL     1      -1.722   0.962  -2.157  0.00  0.00    -0.126 OA
ENDBRANCH  26  29
ENDBRANCH  19  27
ENDBRANCH  17  21
ENDBRANCH   1  17
TORSDOF 5
