REMARK  Name = ZINC02510208
REMARK  1 active torsions:
REMARK  status: ('A' for Active; 'I' for Inactive)
REMARK    1  A    between atoms: C_1  and  C_2
REMARK                            x       y       z     vdW  Elec       q    Type
REMARK                         _______ _______ _______ _____ _____    ______ ____
ROOT
ATOM      1  C   UNL     1      -0.013   1.086   0.008  0.00  0.00    +0.090 C 
ATOM      2  C   UNL     1      -0.718   1.572   1.248  0.00  0.00    +0.150 A 
ATOM      3  C   UNL     1      -0.928   2.859   1.606  0.00  0.00    +0.101 A 
ATOM      4  C   UNL     1      -1.629   2.761   2.839  0.00  0.00    +0.173 A 
ATOM      5  N   UNL     1      -1.755   1.484   3.087  0.00  0.00    -0.062 NA
ATOM      6  O   UNL     1      -1.255   0.812   2.214  0.00  0.00    -0.357 OA
ATOM      7  N   UNL     1      -2.085   3.814   3.626  0.00  0.00    -0.340 N 
ATOM      8 BR   UNL     1      -0.410   4.425   0.681  0.00  0.00    -0.043 Br
ATOM      9  H   UNL     1      -2.552   3.632   4.456  0.00  0.00    +0.144 HD
ATOM     10  H   UNL     1      -1.936   4.730   3.344  0.00  0.00    +0.144 HD
ENDROOT
TORSDOF 0
