REMARK  Name = ZINC34748842
REMARK  8 active torsions:
REMARK  status: ('A' for Active; 'I' for Inactive)
REMARK    1  A    between atoms: C_1  and  C_2
REMARK    2  A    between atoms: C_7  and  N_8
REMARK    3  A    between atoms: C_9  and  C_11
REMARK    4  A    between atoms: C_11  and  N_12
REMARK    5  A    between atoms: C_22  and  C_26
REMARK    6  A    between atoms: C_23  and  C_25
REMARK    7  A    between atoms: N_29  and  C_30
REMARK    8  A    between atoms: C_30  and  C_31
REMARK                            x       y       z     vdW  Elec       q    Type
REMARK                         _______ _______ _______ _____ _____    ______ ____
ROOT
ATOM      1  N   UNL     1       0.100  -2.607   5.820  0.00  0.00    +0.387 N 
ATOM      2  C   UNL     1       0.350  -3.791   6.652  0.00  0.00    -0.059 C 
ATOM      3  C   UNL     1       0.378  -3.381   8.128  0.00  0.00    +0.089 C 
ATOM      4  N   UNL     1      -0.874  -2.673   8.439  0.00  0.00    -0.304 N 
ATOM      5  C   UNL     1      -1.286  -1.572   7.555  0.00  0.00    +0.089 C 
ATOM      6  C   UNL     1      -1.235  -2.068   6.106  0.00  0.00    -0.059 C 
ATOM      7  C   UNL     1      -1.636  -3.030   9.523  0.00  0.00    +0.202 A 
ATOM      8  N   UNL     1      -2.518  -4.000   9.405  0.00  0.00    -0.208 NA
ATOM      9  C   UNL     1      -3.269  -4.368  10.437  0.00  0.00    +0.117 A 
ATOM     10  C   UNL     1      -3.163  -3.748  11.696  0.00  0.00    +0.075 A 
ATOM     11  C   UNL     1      -4.058  -4.272  12.714  0.00  0.00    -0.026 A 
ATOM     12  C   UNL     1      -4.893  -5.273  12.400  0.00  0.00    -0.008 A 
ATOM     13  S   UNL     1      -4.533  -5.590  10.683  0.00  0.00    -0.073 S 
ATOM     14  C   UNL     1      -5.897  -5.964  13.286  0.00  0.00    +0.052 C 
ATOM     15  C   UNL     1      -4.046  -3.697  14.107  0.00  0.00    +0.045 C 
ATOM     16  C   UNL     1      -2.197  -2.698  11.793  0.00  0.00    +0.264 A 
ATOM     17  O   UNL     1      -2.034  -2.103  12.844  0.00  0.00    -0.267 OA
ATOM     18  N   UNL     1      -1.465  -2.380  10.710  0.00  0.00    -0.271 N 
ATOM     19  H   UNL     1       0.796  -1.904   6.023  0.00  0.00    -0.081 HD
ENDROOT
BRANCH   1  20
ATOM     20  C   UNL     1       0.183  -2.980   4.402  0.00  0.00    +0.019 C 
BRANCH  20  22
ATOM     21  N   UNL     1       1.901  -3.809   2.828  0.00  0.00    -0.287 N 
ATOM     22  C   UNL     1       1.588  -3.418   4.079  0.00  0.00    +0.201 C 
ATOM     23  O   UNL     1       2.437  -3.419   4.945  0.00  0.00    -0.278 OA
ATOM     24  H   UNL     1       1.238  -3.754   2.122  0.00  0.00    +0.155 HD
BRANCH  21  31
ATOM     25  C   UNL     1       2.160  -5.877   0.890  0.00  0.00    +0.045 C 
ATOM     26  C   UNL     1       3.354  -5.303   1.607  0.00  0.00    -0.029 A 
ATOM     27  C   UNL     1       4.622  -5.777   1.328  0.00  0.00    +0.005 A 
ATOM     28  C   UNL     1       5.718  -5.251   1.986  0.00  0.00    +0.000 A 
ATOM     29  C   UNL     1       5.550  -4.250   2.926  0.00  0.00    +0.002 A 
ATOM     30  C   UNL     1       4.286  -3.773   3.209  0.00  0.00    +0.023 A 
ATOM     31  C   UNL     1       3.183  -4.295   2.546  0.00  0.00    +0.036 A 
ENDBRANCH  21  31
ENDBRANCH  20  22
ENDBRANCH   1  20
BRANCH  18  32
ATOM     32  C   UNL     1      -0.469  -1.309  10.805  0.00  0.00    +0.224 C 
BRANCH  32  33
ATOM     33  C   UNL     1      -1.088  -0.007  10.367  0.00  0.00    +0.236 C 
ATOM     34  O   UNL     1      -2.247   0.025  10.012  0.00  0.00    -0.274 OA
ATOM     35  N   UNL     1      -0.354   1.123  10.372  0.00  0.00    -0.300 N 
ATOM     36  C   UNL     1       1.058   1.227  10.771  0.00  0.00    +0.108 C 
ATOM     37  C   UNL     1       1.463   2.710  10.640  0.00  0.00    +0.020 C 
ATOM     38  C   UNL     1       0.102   3.451  10.715  0.00  0.00    +0.020 C 
ATOM     39  C   UNL     1      -0.831   2.460   9.971  0.00  0.00    +0.108 C 
ENDBRANCH  32  33
ENDBRANCH  18  32
TORSDOF 5
