REMARK  Name = ZINC63856682
REMARK  7 active torsions:
REMARK  status: ('A' for Active; 'I' for Inactive)
REMARK    1  A    between atoms: C_1  and  C_2
REMARK    2  A    between atoms: C_2  and  N_3
REMARK    3  A    between atoms: C_5  and  N_8
REMARK    4  A    between atoms: C_9  and  C_11
REMARK    5  A    between atoms: C_11  and  N_12
REMARK    6  A    between atoms: C_14  and  C_17
REMARK    7  A    between atoms: C_19  and  N_28
REMARK                            x       y       z     vdW  Elec       q    Type
REMARK                         _______ _______ _______ _____ _____    ______ ____
ROOT
ATOM      1  N   UNL     1       5.720  -4.493  -1.729  0.00  0.00    -0.262 N 
ATOM      2  C   UNL     1       5.932  -5.817  -1.605  0.00  0.00    +0.118 A 
ATOM      3  C   UNL     1       6.642  -6.015  -0.456  0.00  0.00    +0.036 A 
ATOM      4  C   UNL     1       6.863  -4.752   0.130  0.00  0.00    +0.144 A 
ATOM      5  N   UNL     1       6.315  -3.849  -0.638  0.00  0.00    -0.179 NA
ENDROOT
BRANCH   3   6
ATOM      6  C   UNL     1       7.098  -7.321   0.079  0.00  0.00    +0.055 A 
ATOM      7  C   UNL     1       6.816  -8.502  -0.605  0.00  0.00    +0.069 A 
ATOM      8  C   UNL     1       7.265  -9.704  -0.064  0.00  0.00    +0.122 A 
ATOM      9  N   UNL     1       7.943  -9.686   1.081  0.00  0.00    -0.201 NA
ATOM     10  C   UNL     1       8.193  -8.544   1.704  0.00  0.00    +0.198 A 
ATOM     11  N   UNL     1       7.788  -7.381   1.218  0.00  0.00    -0.327 N 
ATOM     12  N   UNL     1       8.902  -8.567   2.893  0.00  0.00    -0.301 N 
ATOM     13  C   UNL     1       9.253  -7.392   3.704  0.00  0.00    +0.108 C 
ATOM     14  C   UNL     1      10.061  -7.898   4.917  0.00  0.00    +0.020 C 
ATOM     15  C   UNL     1      10.605  -9.266   4.427  0.00  0.00    +0.020 C 
ATOM     16  C   UNL     1       9.425  -9.774   3.558  0.00  0.00    +0.108 C 
ATOM     17  H   UNL     1       7.992  -6.564   1.699  0.00  0.00    +0.169 HD
BRANCH   8  18
ATOM     18  N   UNL     1       7.008 -10.904  -0.708  0.00  0.00    -0.343 N 
ATOM     19  H   UNL     1       6.513 -10.910  -1.542  0.00  0.00    +0.144 HD
ATOM     20  H   UNL     1       7.324 -11.737  -0.326  0.00  0.00    +0.144 HD
ENDBRANCH   8  18
ENDBRANCH   3   6
BRANCH   1  21
ATOM     21  C   UNL     1       4.997  -3.838  -2.822  0.00  0.00    +0.239 C 
BRANCH  21  23
ATOM     22  N   UNL     1       3.088  -2.285  -3.079  0.00  0.00    -0.266 N 
ATOM     23  C   UNL     1       3.891  -2.986  -2.254  0.00  0.00    +0.240 C 
ATOM     24  O   UNL     1       3.724  -2.931  -1.054  0.00  0.00    -0.273 OA
ATOM     25  H   UNL     1       3.222  -2.330  -4.039  0.00  0.00    +0.156 HD
BRANCH  22  28
ATOM     26  N   UNL     1       0.688  -0.476  -1.203  0.00  0.00    -0.250 N 
ATOM     27  C   UNL     1       1.749  -1.329  -1.236  0.00  0.00    +0.154 A 
ATOM     28  C   UNL     1       2.058  -1.491  -2.549  0.00  0.00    +0.167 A 
ATOM     29  N   UNL     1       1.186  -0.743  -3.239  0.00  0.00    -0.114 NA
ATOM     30  N   UNL     1       0.388  -0.162  -2.415  0.00  0.00    -0.064 NA
BRANCH  26  32
ATOM     31  C   UNL     1      -0.019   1.526   0.010  0.00  0.00    +0.029 C 
ATOM     32  C   UNL     1       0.002  -0.004   0.002  0.00  0.00    +0.142 C 
ENDBRANCH  26  32
ENDBRANCH  22  28
ENDBRANCH  21  23
ENDBRANCH   1  21
TORSDOF 6
