REMARK  Name = ZINC24056394
REMARK  6 active torsions:
REMARK  status: ('A' for Active; 'I' for Inactive)
REMARK    1  A    between atoms: C_1  and  O_2
REMARK    2  A    between atoms: O_2  and  C_3
REMARK    3  A    between atoms: C_6  and  C_9
REMARK    4  A    between atoms: C_9  and  C_11
REMARK    5  A    between atoms: C_9  and  N_21
REMARK    6  A    between atoms: C_11  and  N_12
REMARK                            x       y       z     vdW  Elec       q    Type
REMARK                         _______ _______ _______ _____ _____    ______ ____
ROOT
ATOM      1  C   UNL     1       5.843  -1.149  -0.122  0.00  0.00    -0.020 C 
ENDROOT
BRANCH   1   5
ATOM      2  C   UNL     1       9.597   0.788   0.522  0.00  0.00    +0.120 A 
ATOM      3  C   UNL     1       9.206   0.441  -0.763  0.00  0.00    +0.046 A 
ATOM      4  C   UNL     1       7.992  -0.186  -0.968  0.00  0.00    +0.005 A 
ATOM      5  C   UNL     1       7.167  -0.466   0.105  0.00  0.00    -0.059 A 
ATOM      6  C   UNL     1       7.552  -0.116   1.386  0.00  0.00    +0.005 A 
ATOM      7  C   UNL     1       8.768   0.506   1.598  0.00  0.00    +0.046 A 
BRANCH   2   9
ATOM      8  C   UNL     1      11.128   1.734   2.076  0.00  0.00    +0.277 C 
ATOM      9  O   UNL     1      10.791   1.405   0.727  0.00  0.00    -0.495 OA
ENDBRANCH   2   9
ENDBRANCH   1   5
BRANCH   1  10
ATOM     10  N   UNL     1       5.612  -2.136   0.942  0.00  0.00    +0.385 N 
ATOM     11  C   UNL     1       4.300  -2.810   0.767  0.00  0.00    -0.078 C 
ATOM     12  C   UNL     1       4.457  -4.110   1.594  0.00  0.00    -0.020 C 
ATOM     13  C   UNL     1       5.927  -4.511   1.334  0.00  0.00    -0.020 C 
ATOM     14  C   UNL     1       6.627  -3.211   0.897  0.00  0.00    -0.078 C 
ATOM     15  H   UNL     1       5.660  -1.574   1.886  0.00  0.00    -0.081 HD
ENDBRANCH   1  10
BRANCH   1  16
ATOM     16  C   UNL     1       4.722  -0.108  -0.105  0.00  0.00    +0.092 C 
BRANCH  16  17
ATOM     17  N   UNL     1       4.881   0.800  -1.243  0.00  0.00    -0.330 N 
ATOM     18  C   UNL     1       3.927   1.773  -1.492  0.00  0.00    +0.125 A 
ATOM     19  C   UNL     1       2.811   1.898  -0.663  0.00  0.00    +0.083 A 
ATOM     20  C   UNL     1       1.885   2.885  -0.949  0.00  0.00    +0.136 A 
ATOM     21  N   UNL     1       2.083   3.677  -1.994  0.00  0.00    -0.203 NA
ATOM     22  C   UNL     1       3.152   3.534  -2.762  0.00  0.00    +0.216 A 
ATOM     23  N   UNL     1       4.062   2.602  -2.522  0.00  0.00    -0.200 NA
ATOM     24  N   UNL     1       3.323   4.381  -3.844  0.00  0.00    -0.327 N 
ATOM     25 CL   UNL     1       0.479   3.084   0.050  0.00  0.00    -0.062 Cl
ATOM     26  H   UNL     1       5.758   0.709  -1.901  0.00  0.00    +0.147 HD
ATOM     27  H   UNL     1       4.206   4.275  -4.491  0.00  0.00    +0.145 HD
ATOM     28  H   UNL     1       2.576   5.160  -4.056  0.00  0.00    +0.145 HD
ENDBRANCH  16  17
ENDBRANCH   1  16
TORSDOF 5
