REMARK  Name = ZINC18031041
REMARK  11 active torsions:
REMARK  status: ('A' for Active; 'I' for Inactive)
REMARK    1  A    between atoms: C_1  and  C_2
REMARK    2  A    between atoms: C_5  and  N_8
REMARK    3  A    between atoms: C_9  and  C_11
REMARK    4  A    between atoms: C_11  and  O_12
REMARK    5  A    between atoms: O_12  and  C_13
REMARK    6  A    between atoms: C_16  and  C_21
REMARK    7  A    between atoms: C_18  and  O_19
REMARK    8  A    between atoms: O_19  and  C_20
REMARK    9  A    between atoms: C_21  and  N_22
REMARK   10  A    between atoms: N_22  and  C_23
REMARK   11  A    between atoms: C_32  and  O_35
REMARK                            x       y       z     vdW  Elec       q    Type
REMARK                         _______ _______ _______ _____ _____    ______ ____
ROOT
ATOM      1  C   UNL     1       0.545  -8.177   2.625  0.00  0.00    +0.163 A 
ATOM      2  C   UNL     1       0.572  -9.011   1.519  0.00  0.00    +0.049 A 
ATOM      3  C   UNL     1       0.702 -10.377   1.687  0.00  0.00    +0.005 A 
ATOM      4  C   UNL     1       0.806 -10.914   2.957  0.00  0.00    -0.061 A 
ATOM      5  C   UNL     1       0.780 -10.087   4.064  0.00  0.00    +0.051 A 
ATOM      6  C   UNL     1       0.655  -8.716   3.903  0.00  0.00    +0.162 A 
ENDROOT
BRANCH   6   7
ATOM      7  O   UNL     1       0.635  -7.901   4.991  0.00  0.00    -0.491 OA
ATOM      8  C   UNL     1       0.753  -8.525   6.271  0.00  0.00    +0.277 C 
ENDBRANCH   6   7
BRANCH   1   9
ATOM      9  O   UNL     1       0.417  -6.833   2.462  0.00  0.00    -0.479 OA
BRANCH   9  10
ATOM     10  C   UNL     1       0.309  -6.349   1.121  0.00  0.00    +0.325 C 
BRANCH  10  12
ATOM     11  N   UNL     1       0.059  -4.170  -0.021  0.00  0.00    -0.283 N 
ATOM     12  C   UNL     1       0.175  -4.848   1.138  0.00  0.00    +0.255 C 
ATOM     13  O   UNL     1       0.173  -4.251   2.193  0.00  0.00    -0.272 OA
ATOM     14  H   UNL     1      -0.017  -4.651  -0.860  0.00  0.00    +0.155 HD
BRANCH  11  19
ATOM     15  C   UNL     1       0.008   1.503   0.007  0.00  0.00    +0.044 C 
ATOM     16  C   UNL     1       0.022  -0.004  -0.001  0.00  0.00    -0.050 A 
ATOM     17  C   UNL     1       0.777  -0.692   0.931  0.00  0.00    +0.005 A 
ATOM     18  C   UNL     1       0.791  -2.073   0.927  0.00  0.00    +0.023 A 
ATOM     19  C   UNL     1       0.046  -2.771  -0.014  0.00  0.00    +0.034 A 
ATOM     20  C   UNL     1      -0.712  -2.077  -0.948  0.00  0.00    +0.023 A 
ATOM     21  C   UNL     1      -0.726  -0.696  -0.936  0.00  0.00    +0.005 A 
ENDBRANCH  11  19
ENDBRANCH  10  12
ENDBRANCH   9  10
ENDBRANCH   1   9
BRANCH   4  22
ATOM     22  C   UNL     1       0.948 -12.404   3.134  0.00  0.00    -0.046 C 
BRANCH  22  23
ATOM     23  N   UNL     1       2.372 -12.764   3.132  0.00  0.00    +0.386 N 
ATOM     24  H   UNL     1       2.787 -12.489   2.254  0.00  0.00    -0.085 HD
ATOM     25  H   UNL     1       2.840 -12.289   3.889  0.00  0.00    -0.085 HD
BRANCH  23  26
ATOM     26  C   UNL     1       2.510 -14.216   3.304  0.00  0.00    -0.065 C 
ATOM     27  C   UNL     1       1.881 -14.633   4.635  0.00  0.00    -0.009 C 
ATOM     28  C   UNL     1       2.025 -16.146   4.815  0.00  0.00    -0.009 C 
ATOM     29  C   UNL     1       1.315 -16.866   3.667  0.00  0.00    +0.007 C 
ATOM     30  C   UNL     1       1.944 -16.449   2.336  0.00  0.00    -0.009 C 
ATOM     31  C   UNL     1       1.800 -14.936   2.156  0.00  0.00    -0.009 C 
ATOM     32  C   UNL     1       3.427 -16.824   2.333  0.00  0.00    +0.038 C 
ATOM     33  C   UNL     1       4.138 -16.104   3.482  0.00  0.00    +0.065 C 
ATOM     34  C   UNL     1       3.508 -16.521   4.812  0.00  0.00    +0.038 C 
ATOM     35  C   UNL     1       3.994 -14.591   3.302  0.00  0.00    +0.022 C 
BRANCH  33  36
ATOM     36  O   UNL     1       5.523 -16.454   3.479  0.00  0.00    -0.389 OA
ATOM     37  H   UNL     1       5.690 -17.400   3.589  0.00  0.00    +0.210 HD
ENDBRANCH  33  36
ENDBRANCH  23  26
ENDBRANCH  22  23
ENDBRANCH   4  22
TORSDOF 9
