REMARK  Name = ZINC45860797
REMARK  7 active torsions:
REMARK  status: ('A' for Active; 'I' for Inactive)
REMARK    1  A    between atoms: C_1  and  C_2
REMARK    2  A    between atoms: C_2  and  C_24
REMARK    3  A    between atoms: C_4  and  N_10
REMARK    4  A    between atoms: C_6  and  C_8
REMARK    5  A    between atoms: C_6  and  C_9
REMARK    6  A    between atoms: N_13  and  N_14
REMARK    7  A    between atoms: C_15  and  C_17
REMARK                            x       y       z     vdW  Elec       q    Type
REMARK                         _______ _______ _______ _____ _____    ______ ____
ROOT
ATOM      1  N   UNL     1      -3.540  -0.922   1.007  0.00  0.00    -0.295 N 
ATOM      2  C   UNL     1      -4.546  -0.473   1.784  0.00  0.00    +0.316 C 
ATOM      3  O   UNL     1      -4.333   0.386   2.617  0.00  0.00    -0.251 OA
ATOM      4  N   UNL     1      -5.787  -0.978   1.638  0.00  0.00    -0.218 N 
ATOM      5  H   UNL     1      -3.710  -1.608   0.342  0.00  0.00    +0.151 HD
ATOM      6  H   UNL     1      -6.511  -0.655   2.197  0.00  0.00    +0.174 HD
ENDROOT
BRANCH   1  10
ATOM      7  C   UNL     1      -0.019   1.528   0.010  0.00  0.00    -0.010 C 
ATOM      8  C   UNL     1       0.002  -0.004   0.002  0.00  0.00    -0.072 C 
ATOM      9  C   UNL     1      -1.419  -0.538  -0.145  0.00  0.00    +0.009 C 
ATOM     10  C   UNL     1      -2.188  -0.373   1.166  0.00  0.00    +0.072 C 
ATOM     11  C   UNL     1      -1.451  -1.155   2.253  0.00  0.00    +0.009 C 
ATOM     12  C   UNL     1      -0.030  -0.627   2.418  0.00  0.00    -0.072 C 
ATOM     13  N   UNL     1       0.697  -0.529   1.164  0.00  0.00    +0.386 N 
ATOM     14  C   UNL     1       0.730  -1.621   3.326  0.00  0.00    -0.010 C 
ATOM     15  C   UNL     1      -0.059   0.719   3.151  0.00  0.00    -0.010 C 
ATOM     16  C   UNL     1       0.791  -0.440  -1.254  0.00  0.00    -0.010 C 
ATOM     17  H   UNL     1       1.056  -1.460   0.929  0.00  0.00    -0.084 HD
ATOM     18  H   UNL     1       1.534   0.040   1.322  0.00  0.00    -0.084 HD
ENDBRANCH   1  10
BRANCH   4  19
ATOM     19  N   UNL     1      -6.032  -1.968   0.678  0.00  0.00    -0.228 N 
ATOM     20  C   UNL     1      -7.274  -2.472   0.531  0.00  0.00    +0.276 C 
ATOM     21  O   UNL     1      -8.181  -2.067   1.233  0.00  0.00    -0.267 OA
ATOM     22  H   UNL     1      -5.309  -2.291   0.118  0.00  0.00    +0.173 HD
BRANCH  20  23
ATOM     23  C   UNL     1      -7.530  -3.509  -0.474  0.00  0.00    +0.104 A 
ATOM     24  C   UNL     1      -8.745  -4.107  -0.736  0.00  0.00    +0.047 A 
ATOM     25  C   UNL     1      -8.534  -5.032  -1.764  0.00  0.00    +0.036 A 
ATOM     26  C   UNL     1      -7.224  -4.983  -2.105  0.00  0.00    +0.098 A 
ATOM     27  N   UNL     1      -6.604  -4.057  -1.331  0.00  0.00    -0.356 N 
ATOM     28  H   UNL     1      -5.664  -3.822  -1.374  0.00  0.00    +0.166 HD
ATOM     29 BR   UNL     1      -9.846  -6.151  -2.540  0.00  0.00    -0.049 Br
ENDBRANCH  20  23
ENDBRANCH   4  19
TORSDOF 3
