REMARK  Name = ZINC33530306
REMARK  8 active torsions:
REMARK  status: ('A' for Active; 'I' for Inactive)
REMARK    1  A    between atoms: C_2  and  C_3
REMARK    2  A    between atoms: C_3  and  N_4
REMARK    3  A    between atoms: C_8  and  C_9
REMARK    4  A    between atoms: C_12  and  O_15
REMARK    5  A    between atoms: N_18  and  N_19
REMARK    6  A    between atoms: C_20  and  C_22
REMARK    7  A    between atoms: C_22  and  O_23
REMARK    8  A    between atoms: O_23  and  C_24
REMARK                            x       y       z     vdW  Elec       q    Type
REMARK                         _______ _______ _______ _____ _____    ______ ____
ROOT
ATOM      1  N   UNL     1      -2.263  -2.011  -0.982  0.00  0.00    -0.241 N 
ATOM      2  C   UNL     1      -2.451  -1.512  -2.192  0.00  0.00    +0.259 C 
ATOM      3  O   UNL     1      -2.857  -0.377  -2.356  0.00  0.00    -0.269 OA
ATOM      4  C   UNL     1      -2.145  -2.393  -3.336  0.00  0.00    +0.078 C 
ATOM      5  C   UNL     1      -2.245  -2.141  -4.666  0.00  0.00    +0.028 C 
ATOM      6  S   UNL     1      -1.607  -3.879  -2.502  0.00  0.00    -0.047 S 
ATOM      7  C   UNL     1      -1.794  -3.306  -0.822  0.00  0.00    +0.186 C 
ATOM      8  N   UNL     1      -1.550  -3.948   0.286  0.00  0.00    -0.157 NA
ENDROOT
BRANCH   5   9
ATOM      9  C   UNL     1      -2.041  -3.225  -5.636  0.00  0.00    -0.024 A 
ATOM     10  C   UNL     1      -1.776  -2.927  -6.978  0.00  0.00    +0.011 A 
ATOM     11  C   UNL     1      -1.585  -3.947  -7.883  0.00  0.00    +0.046 A 
ATOM     12  C   UNL     1      -1.655  -5.271  -7.466  0.00  0.00    +0.117 A 
ATOM     13  C   UNL     1      -1.918  -5.573  -6.136  0.00  0.00    +0.046 A 
ATOM     14  C   UNL     1      -2.104  -4.561  -5.221  0.00  0.00    +0.011 A 
BRANCH  12  15
ATOM     15  O   UNL     1      -1.466  -6.273  -8.363  0.00  0.00    -0.507 OA
ATOM     16  H   UNL     1      -0.545  -6.555  -8.450  0.00  0.00    +0.292 HD
ENDBRANCH  12  15
ENDBRANCH   5   9
BRANCH   8  17
ATOM     17  N   UNL     1      -1.074  -5.265   0.242  0.00  0.00    -0.202 N 
ATOM     18  C   UNL     1      -0.822  -5.929   1.386  0.00  0.00    +0.270 C 
ATOM     19  O   UNL     1      -1.006  -5.386   2.456  0.00  0.00    -0.270 OA
ATOM     20  H   UNL     1      -0.927  -5.699  -0.613  0.00  0.00    +0.177 HD
BRANCH  18  21
ATOM     21  C   UNL     1      -0.310  -7.346   1.338  0.00  0.00    +0.326 C 
BRANCH  21  22
ATOM     22  O   UNL     1      -0.121  -7.829   2.670  0.00  0.00    -0.481 OA
BRANCH  22  23
ATOM     23  C   UNL     1       0.340  -9.101   2.805  0.00  0.00    +0.141 A 
ATOM     24  C   UNL     1       0.610  -9.865   1.680  0.00  0.00    +0.068 A 
ATOM     25  C   UNL     1       1.079 -11.158   1.819  0.00  0.00    +0.063 A 
ATOM     26  C   UNL     1       1.279 -11.690   3.082  0.00  0.00    +0.061 A 
ATOM     27  C   UNL     1       1.010 -10.930   4.205  0.00  0.00    +0.045 A 
ATOM     28  C   UNL     1       0.546  -9.634   4.070  0.00  0.00    +0.084 A 
ATOM     29 CL   UNL     1       0.215  -8.678   5.480  0.00  0.00    -0.080 Cl
ATOM     30 CL   UNL     1       1.867 -13.315   3.255  0.00  0.00    -0.082 Cl
ATOM     31 CL   UNL     1       1.417 -12.115   0.411  0.00  0.00    -0.082 Cl
ENDBRANCH  22  23
ENDBRANCH  21  22
ENDBRANCH  18  21
ENDBRANCH   8  17
BRANCH   1  32
ATOM     32  C   UNL     1      -2.547  -1.189   0.196  0.00  0.00    +0.142 C 
BRANCH  32  34
ATOM     33  C   UNL     1      -1.353   0.880   0.699  0.00  0.00    +0.005 C 
ATOM     34  C   UNL     1      -1.309  -0.424   0.586  0.00  0.00    -0.015 C 
ENDBRANCH  32  34
ENDBRANCH   1  32
TORSDOF 8
