REMARK  Name = ZINC43401469
REMARK  4 active torsions:
REMARK  status: ('A' for Active; 'I' for Inactive)
REMARK    1  A    between atoms: C_1  and  C_2
REMARK    2  A    between atoms: C_5  and  C_18
REMARK    3  A    between atoms: C_6  and  O_8
REMARK    4  A    between atoms: O_8  and  C_9
REMARK                            x       y       z     vdW  Elec       q    Type
REMARK                         _______ _______ _______ _____ _____    ______ ____
ROOT
ATOM      1  C   UNL     1      -0.522   1.455   0.158  0.00  0.00    +0.066 C 
ATOM      2  C   UNL     1      -0.373  -0.044   0.105  0.00  0.00    +0.042 A 
ATOM      3  C   UNL     1      -0.442  -0.690  -1.116  0.00  0.00    +0.024 A 
ATOM      4  C   UNL     1      -0.305  -2.066  -1.166  0.00  0.00    +0.018 A 
ATOM      5  C   UNL     1      -0.100  -2.757   0.033  0.00  0.00    +0.074 A 
ATOM      6  C   UNL     1      -0.041  -2.031   1.231  0.00  0.00    +0.231 A 
ATOM      7  N   UNL     1      -0.174  -0.715   1.222  0.00  0.00    -0.217 NA
ENDROOT
BRANCH   5   8
ATOM      8  C   UNL     1       0.053  -4.226   0.037  0.00  0.00    +0.099 C 
ATOM      9  N   UNL     1      -0.893  -4.996  -0.501  0.00  0.00    -0.387 N 
ATOM     10  N   UNL     1       1.136  -4.782   0.579  0.00  0.00    -0.344 N 
ATOM     11  H   UNL     1      -1.714  -4.597  -0.830  0.00  0.00    +0.157 HD
ATOM     12  H   UNL     1       1.824  -4.222   0.970  0.00  0.00    +0.144 HD
ATOM     13  H   UNL     1       1.236  -5.747   0.581  0.00  0.00    +0.144 HD
ATOM     14  H   UNL     1      -0.760  -5.955  -0.565  0.00  0.00    +0.157 HD
ENDBRANCH   5   8
BRANCH   6  15
ATOM     15  O   UNL     1       0.157  -2.680   2.403  0.00  0.00    -0.436 OA
BRANCH  15  16
ATOM     16  C   UNL     1       0.100  -1.955   3.551  0.00  0.00    +0.150 A 
ATOM     17  C   UNL     1       1.262  -1.444   4.108  0.00  0.00    +0.069 A 
ATOM     18  C   UNL     1       1.202  -0.706   5.276  0.00  0.00    +0.063 A 
ATOM     19  C   UNL     1      -0.018  -0.479   5.890  0.00  0.00    +0.061 A 
ATOM     20  C   UNL     1      -1.179  -0.988   5.337  0.00  0.00    +0.045 A 
ATOM     21  C   UNL     1      -1.123  -1.721   4.165  0.00  0.00    +0.085 A 
ATOM     22 CL   UNL     1      -2.581  -2.354   3.467  0.00  0.00    -0.080 Cl
ATOM     23 CL   UNL     1      -0.091   0.447   7.357  0.00  0.00    -0.082 Cl
ATOM     24 CL   UNL     1       2.657  -0.066   5.974  0.00  0.00    -0.082 Cl
ENDBRANCH  15  16
ENDBRANCH   6  15
TORSDOF 3
