REMARK  Name = ZINC63406128
REMARK  9 active torsions:
REMARK  status: ('A' for Active; 'I' for Inactive)
REMARK    1  A    between atoms: C_1  and  O_2
REMARK    2  A    between atoms: O_2  and  C_3
REMARK    3  A    between atoms: C_6  and  C_21
REMARK    4  A    between atoms: C_8  and  C_9
REMARK    5  A    between atoms: C_9  and  S_10
REMARK    6  A    between atoms: S_10  and  C_11
REMARK    7  A    between atoms: N_22  and  N_23
REMARK    8  A    between atoms: C_24  and  C_26
REMARK    9  A    between atoms: C_26  and  C_27
REMARK                            x       y       z     vdW  Elec       q    Type
REMARK                         _______ _______ _______ _____ _____    ______ ____
ROOT
ATOM      1  C   UNL     1       0.606  -0.607  -1.055  0.00  0.00    +0.124 A 
ATOM      2  C   UNL     1       1.173   0.165  -2.062  0.00  0.00    +0.046 A 
ATOM      3  C   UNL     1       1.786  -0.442  -3.136  0.00  0.00    +0.013 A 
ATOM      4  C   UNL     1       1.837  -1.837  -3.212  0.00  0.00    -0.005 A 
ATOM      5  C   UNL     1       1.266  -2.609  -2.197  0.00  0.00    +0.017 A 
ATOM      6  C   UNL     1       0.659  -1.993  -1.124  0.00  0.00    +0.005 A 
ENDROOT
BRANCH   1   8
ATOM      7  C   UNL     1      -0.017   1.425   0.010  0.00  0.00    +0.277 C 
ATOM      8  O   UNL     1       0.002  -0.004   0.002  0.00  0.00    -0.495 OA
ENDBRANCH   1   8
BRANCH   4   9
ATOM      9  C   UNL     1       2.491  -2.491  -4.359  0.00  0.00    +0.138 C 
ATOM     10  N   UNL     1       3.021  -1.771  -5.301  0.00  0.00    -0.188 NA
BRANCH  10  11
ATOM     11  N   UNL     1       3.643  -2.393  -6.392  0.00  0.00    -0.207 N 
ATOM     12  C   UNL     1       4.193  -1.646  -7.370  0.00  0.00    +0.236 C 
ATOM     13  O   UNL     1       4.149  -0.435  -7.305  0.00  0.00    -0.274 OA
ATOM     14  H   UNL     1       3.678  -3.361  -6.443  0.00  0.00    +0.177 HD
BRANCH  12  15
ATOM     15  C   UNL     1       4.862  -2.315  -8.543  0.00  0.00    +0.130 C 
BRANCH  15  16
ATOM     16  C   UNL     1       5.390  -1.264  -9.486  0.00  0.00    -0.033 C 
ATOM     17  C   UNL     1       6.646  -0.763  -9.524  0.00  0.00    -0.001 A 
ATOM     18  C   UNL     1       7.849  -1.035  -8.729  0.00  0.00    +0.010 A 
ATOM     19  C   UNL     1       8.987  -0.359  -9.008  0.00  0.00    +0.001 A 
ATOM     20  C   UNL     1       9.045   0.593 -10.035  0.00  0.00    +0.002 A 
ATOM     21  C   UNL     1       7.981   0.897 -10.809  0.00  0.00    +0.026 A 
ATOM     22  C   UNL     1       6.733   0.246 -10.603  0.00  0.00    +0.043 A 
ATOM     23  N   UNL     1       5.577   0.365 -11.208  0.00  0.00    -0.380 N 
ATOM     24  C   UNL     1       4.625  -0.562 -10.585  0.00  0.00    +0.145 C 
ATOM     25  H   UNL     1       5.383   0.962 -11.947  0.00  0.00    +0.160 HD
ENDBRANCH  15  16
ENDBRANCH  12  15
ENDBRANCH  10  11
ENDBRANCH   4   9
BRANCH   6  26
ATOM     26  C   UNL     1       0.047  -2.825  -0.026  0.00  0.00    +0.113 C 
BRANCH  26  27
ATOM     27  S   UNL     1      -1.687  -3.174  -0.428  0.00  0.00    -0.093 S 
BRANCH  27  28
ATOM     28  C   UNL     1      -2.270  -4.169   0.973  0.00  0.00    +0.322 C 
ATOM     29  N   UNL     1      -1.461  -5.389   1.098  0.00  0.00    -0.298 N 
ATOM     30  C   UNL     1      -0.857  -5.331   2.362  0.00  0.00    +0.073 A 
ATOM     31  C   UNL     1       0.005  -6.212   3.002  0.00  0.00    +0.027 A 
ATOM     32  C   UNL     1       0.472  -5.925   4.270  0.00  0.00    +0.002 A 
ATOM     33  C   UNL     1       0.080  -4.761   4.904  0.00  0.00    +0.004 A 
ATOM     34  C   UNL     1      -0.778  -3.880   4.274  0.00  0.00    +0.047 A 
ATOM     35  C   UNL     1      -1.252  -4.159   2.998  0.00  0.00    +0.145 A 
ATOM     36  O   UNL     1      -2.093  -3.450   2.196  0.00  0.00    -0.460 OA
ATOM     37  H   UNL     1      -1.363  -6.093   0.438  0.00  0.00    +0.150 HD
ENDBRANCH  27  28
ENDBRANCH  26  27
ENDBRANCH   6  26
TORSDOF 8
