REMARK  Name = ZINC66244565
REMARK  5 active torsions:
REMARK  status: ('A' for Active; 'I' for Inactive)
REMARK    1  A    between atoms: C_3  and  C_8
REMARK    2  A    between atoms: C_8  and  C_12
REMARK    3  A    between atoms: C_12  and  N_13
REMARK    4  A    between atoms: N_15  and  C_16
REMARK    5  A    between atoms: C_16  and  C_17
REMARK                            x       y       z     vdW  Elec       q    Type
REMARK                         _______ _______ _______ _____ _____    ______ ____
ROOT
ATOM      1  N   UNL     1       2.588   4.105  -1.077  0.00  0.00    -0.357 N 
ATOM      2  C   UNL     1       2.382   5.048  -2.056  0.00  0.00    +0.169 C 
ATOM      3  N   UNL     1       1.353   5.846  -1.987  0.00  0.00    -0.355 N 
ATOM      4  N   UNL     1       3.261   5.151  -3.108  0.00  0.00    -0.371 N 
ATOM      5  H   UNL     1       1.968   4.033  -0.335  0.00  0.00    +0.162 HD
ATOM      6  H   UNL     1       4.027   4.557  -3.160  0.00  0.00    +0.159 HD
ATOM      7  H   UNL     1       3.116   5.816  -3.799  0.00  0.00    +0.159 HD
ATOM      8  H   UNL     1       0.733   5.774  -1.245  0.00  0.00    +0.162 HD
ENDROOT
BRANCH   1   9
ATOM      9  C   UNL     1       3.744   3.209  -1.155  0.00  0.00    +0.127 C 
BRANCH   9  10
ATOM     10  C   UNL     1       3.674   2.185  -0.020  0.00  0.00    +0.013 C 
ATOM     11  C   UNL     1       3.845   2.801   1.378  0.00  0.00    +0.013 C 
ATOM     12  C   UNL     1       5.357   2.582   1.204  0.00  0.00    +0.002 C 
ATOM     13  C   UNL     1       5.000   1.448   0.228  0.00  0.00    +0.013 C 
BRANCH  10  16
ATOM     14  C   UNL     1       0.291   0.617   0.573  0.00  0.00    +0.001 A 
ATOM     15  C   UNL     1       1.382   1.459   0.677  0.00  0.00    +0.004 A 
ATOM     16  C   UNL     1       2.485   1.266  -0.134  0.00  0.00    -0.038 A 
ATOM     17  C   UNL     1       2.496   0.232  -1.051  0.00  0.00    +0.019 A 
ATOM     18  C   UNL     1       1.405  -0.612  -1.155  0.00  0.00    +0.018 A 
ATOM     19  C   UNL     1       0.302  -0.419  -0.343  0.00  0.00    +0.015 A 
ATOM     20 BR   UNL     1       1.420  -2.027  -2.409  0.00  0.00    -0.050 Br
ENDBRANCH  10  16
ENDBRANCH   9  10
ENDBRANCH   1   9
BRANCH   3  21
ATOM     21  C   UNL     1       1.134   6.851  -3.030  0.00  0.00    +0.147 C 
BRANCH  21  22
ATOM     22  C   UNL     1      -0.132   7.648  -2.712  0.00  0.00    +0.137 C 
ATOM     23  C   UNL     1      -0.438   8.627  -3.865  0.00  0.00    +0.035 C 
ATOM     24  C   UNL     1      -0.924   9.891  -3.105  0.00  0.00    +0.031 C 
ATOM     25  C   UNL     1      -0.044   9.825  -1.832  0.00  0.00    +0.160 C 
ATOM     26  O   UNL     1       0.068   8.424  -1.525  0.00  0.00    -0.375 OA
ENDBRANCH  21  22
ENDBRANCH   3  21
TORSDOF 5
