REMARK  Name = ZINC09669379
REMARK  10 active torsions:
REMARK  status: ('A' for Active; 'I' for Inactive)
REMARK    1  A    between atoms: C_1  and  C_2
REMARK    2  A    between atoms: C_2  and  C_4
REMARK    3  A    between atoms: C_2  and  N_66
REMARK    4  A    between atoms: N_6  and  C_7
REMARK    5  A    between atoms: C_7  and  C_8
REMARK    6  A    between atoms: C_7  and  C_14
REMARK    7  A    between atoms: N_22  and  S_25
REMARK    8  A    between atoms: S_25  and  C_28
REMARK    9  A    between atoms: C_31  and  O_34
REMARK   10  A    between atoms: O_34  and  C_35
REMARK                            x       y       z     vdW  Elec       q    Type
REMARK                         _______ _______ _______ _____ _____    ______ ____
ROOT
ATOM      1  C   UNL     1      -0.587  -1.768   1.972  0.00  0.00    -0.004 C 
ATOM      2  C   UNL     1       0.746  -1.946   1.243  0.00  0.00    +0.016 C 
ENDROOT
BRANCH   2   8
ATOM      3  C   UNL     1       2.525  -0.748   0.119  0.00  0.00    -0.060 C 
ATOM      4  C   UNL     1       2.855   0.551  -0.625  0.00  0.00    +0.091 C 
ATOM      5  N   UNL     1       2.627   1.683   0.287  0.00  0.00    -0.180 NA
ATOM      6  C   UNL     1       1.335   1.764   0.985  0.00  0.00    +0.091 C 
ATOM      7  C   UNL     1       1.064   0.417   1.665  0.00  0.00    -0.060 C 
ATOM      8  N   UNL     1       1.147  -0.654   0.648  0.00  0.00    +0.389 N 
ATOM      9  H   UNL     1       0.508  -0.430  -0.124  0.00  0.00    -0.081 HD
BRANCH   5  10
ATOM     10  S   UNL     1       3.793   2.835   0.520  0.00  0.00    +0.061 S 
ATOM     11  O   UNL     1       3.536   3.422   1.788  0.00  0.00    -0.153 OA
ATOM     12  O   UNL     1       5.036   2.226   0.200  0.00  0.00    -0.153 OA
BRANCH  10  13
ATOM     13  C   UNL     1       3.526   4.096  -0.681  0.00  0.00    +0.106 A 
ATOM     14  C   UNL     1       4.148   4.018  -1.914  0.00  0.00    +0.032 A 
ATOM     15  C   UNL     1       3.936   5.002  -2.860  0.00  0.00    +0.047 A 
ATOM     16  C   UNL     1       3.108   6.076  -2.568  0.00  0.00    +0.120 A 
ATOM     17  C   UNL     1       2.490   6.156  -1.328  0.00  0.00    +0.047 A 
ATOM     18  C   UNL     1       2.700   5.165  -0.388  0.00  0.00    +0.032 A 
BRANCH  16  19
ATOM     19  O   UNL     1       2.902   7.049  -3.494  0.00  0.00    -0.495 OA
ATOM     20  C   UNL     1       3.571   6.902  -4.749  0.00  0.00    +0.277 C 
ENDBRANCH  16  19
ENDBRANCH  10  13
ENDBRANCH   5  10
ENDBRANCH   2   8
BRANCH   2  21
ATOM     21  C   UNL     1       1.791  -2.428   2.216  0.00  0.00    +0.200 C 
ATOM     22  O   UNL     1       2.477  -1.627   2.815  0.00  0.00    -0.278 OA
ATOM     23  N   UNL     1       1.962  -3.749   2.421  0.00  0.00    -0.306 N 
ATOM     24  H   UNL     1       1.413  -4.389   1.941  0.00  0.00    +0.150 HD
BRANCH  23  25
ATOM     25  C   UNL     1       2.978  -4.218   3.366  0.00  0.00    +0.133 C 
BRANCH  25  26
ATOM     26  C   UNL     1       2.595  -5.582   3.879  0.00  0.00    -0.023 A 
ATOM     27  C   UNL     1       2.045  -6.515   3.019  0.00  0.00    +0.006 A 
ATOM     28  C   UNL     1       1.699  -7.768   3.488  0.00  0.00    +0.000 A 
ATOM     29  C   UNL     1       1.892  -8.085   4.820  0.00  0.00    +0.000 A 
ATOM     30  C   UNL     1       2.436  -7.151   5.681  0.00  0.00    +0.000 A 
ATOM     31  C   UNL     1       2.788  -5.900   5.211  0.00  0.00    +0.006 A 
ENDBRANCH  25  26
BRANCH  25  32
ATOM     32  C   UNL     1       4.312  -4.299   2.671  0.00  0.00    -0.023 A 
ATOM     33  C   UNL     1       4.389  -4.775   1.376  0.00  0.00    +0.006 A 
ATOM     34  C   UNL     1       5.613  -4.845   0.736  0.00  0.00    +0.000 A 
ATOM     35  C   UNL     1       6.761  -4.448   1.396  0.00  0.00    +0.000 A 
ATOM     36  C   UNL     1       6.685  -3.977   2.694  0.00  0.00    +0.000 A 
ATOM     37  C   UNL     1       5.461  -3.903   3.331  0.00  0.00    +0.006 A 
ENDBRANCH  25  32
ENDBRANCH  23  25
ENDBRANCH   2  21
TORSDOF 8
