REMARK  Name = ZINC36810610
REMARK  7 active torsions:
REMARK  status: ('A' for Active; 'I' for Inactive)
REMARK    1  A    between atoms: C_1  and  C_2
REMARK    2  A    between atoms: C_5  and  C_8
REMARK    3  A    between atoms: N_6  and  C_7
REMARK    4  A    between atoms: C_8  and  N_9
REMARK    5  A    between atoms: C_10  and  C_12
REMARK    6  A    between atoms: C_12  and  C_14
REMARK    7  A    between atoms: C_12  and  N_15
REMARK                            x       y       z     vdW  Elec       q    Type
REMARK                         _______ _______ _______ _____ _____    ______ ____
ROOT
ATOM      1  N   UNL     1       1.435  -3.620   1.975  0.00  0.00    -0.311 N 
ATOM      2  C   UNL     1       1.697  -4.667   2.782  0.00  0.00    +0.199 C 
ATOM      3  O   UNL     1       0.790  -5.360   3.191  0.00  0.00    -0.278 OA
ATOM      4  H   UNL     1       2.161  -3.066   1.647  0.00  0.00    +0.149 HD
ENDROOT
BRANCH   2   5
ATOM      5  C   UNL     1       3.119  -4.978   3.175  0.00  0.00    +0.010 C 
ATOM      6  C   UNL     1       3.715  -3.780   3.918  0.00  0.00    -0.005 C 
BRANCH   5   7
ATOM      7  N   UNL     1       3.138  -6.156   4.052  0.00  0.00    +0.385 N 
ATOM      8  H   UNL     1       2.744  -6.946   3.562  0.00  0.00    -0.089 HD
ATOM      9  H   UNL     1       4.089  -6.364   4.316  0.00  0.00    -0.089 HD
ATOM     10  H   UNL     1       2.592  -5.968   4.880  0.00  0.00    -0.089 HD
ENDBRANCH   5   7
ENDBRANCH   2   5
BRANCH   1  11
ATOM     11  C   UNL     1       0.053  -3.319   1.592  0.00  0.00    +0.157 C 
BRANCH  11  16
ATOM     12  C   UNL     1      -0.018   1.503   0.010  0.00  0.00    +0.063 C 
ATOM     13  C   UNL     1       0.002  -0.004   0.002  0.00  0.00    +0.016 A 
ATOM     14  C   UNL     1       0.008  -0.789  -1.095  0.00  0.00    +0.023 A 
ATOM     15  C   UNL     1       0.028  -2.127  -0.656  0.00  0.00    +0.024 A 
ATOM     16  C   UNL     1       0.034  -2.110   0.693  0.00  0.00    +0.036 A 
ATOM     17  N   UNL     1       0.024  -0.809   1.102  0.00  0.00    -0.350 N 
ATOM     18  C   UNL     1       0.030  -0.352   2.494  0.00  0.00    +0.149 C 
ENDBRANCH  11  16
ENDBRANCH   1  11
TORSDOF 4
