REMARK  Name = ZINC20763345
REMARK  10 active torsions:
REMARK  status: ('A' for Active; 'I' for Inactive)
REMARK    1  A    between atoms: C_1  and  C_2
REMARK    2  A    between atoms: C_2  and  C_3
REMARK    3  A    between atoms: C_6  and  C_9
REMARK    4  A    between atoms: C_11  and  C_25
REMARK    5  A    between atoms: C_14  and  C_17
REMARK    6  A    between atoms: C_22  and  O_23
REMARK    7  A    between atoms: C_28  and  O_33
REMARK    8  A    between atoms: C_29  and  O_31
REMARK    9  A    between atoms: O_31  and  C_32
REMARK   10  A    between atoms: O_33  and  C_34
REMARK                            x       y       z     vdW  Elec       q    Type
REMARK                         _______ _______ _______ _____ _____    ______ ____
ROOT
ATOM      1  C   UNL     1      -1.565   3.640  -1.842  0.00  0.00    +0.040 C 
ATOM      2  N   UNL     1      -1.171   3.397  -0.650  0.00  0.00    -0.299 NA
ATOM      3  C   UNL     1      -1.333   2.112   0.020  0.00  0.00    +0.081 C 
ATOM      4  N   UNL     1      -2.346   1.297  -0.661  0.00  0.00    +0.401 N 
ATOM      5  C   UNL     1      -2.056   1.225  -2.103  0.00  0.00    -0.028 C 
ATOM      6  C   UNL     1      -2.258   2.620  -2.702  0.00  0.00    +0.044 C 
ATOM      7  H   UNL     1      -2.341   0.280  -0.241  0.00  0.00    -0.081 HD
ATOM      8  H   UNL     1      -3.339   1.749  -0.515  0.00  0.00    -0.081 HD
ENDROOT
BRANCH   5   9
ATOM      9  C   UNL     1      -2.995   0.248  -2.762  0.00  0.00    -0.018 A 
ATOM     10  C   UNL     1      -4.224  -0.022  -2.192  0.00  0.00    +0.020 A 
ATOM     11  C   UNL     1      -5.087  -0.919  -2.796  0.00  0.00    +0.018 A 
ATOM     12  C   UNL     1      -4.721  -1.548  -3.973  0.00  0.00    +0.019 A 
ATOM     13  C   UNL     1      -3.493  -1.281  -4.546  0.00  0.00    +0.047 A 
ATOM     14  C   UNL     1      -2.629  -0.377  -3.945  0.00  0.00    +0.119 A 
ATOM     15 BR   UNL     1      -6.769  -1.286  -2.014  0.00  0.00    -0.050 Br
BRANCH  14  16
ATOM     16  O   UNL     1      -1.423  -0.109  -4.511  0.00  0.00    -0.507 OA
ATOM     17  H   UNL     1      -1.133  -0.605  -5.449  0.00  0.00    +0.292 HD
ENDBRANCH  14  16
ENDBRANCH   5   9
BRANCH   1  21
ATOM     18  C   UNL     1      -0.880   7.510  -3.449  0.00  0.00    -0.048 A 
ATOM     19  C   UNL     1      -0.466   7.216  -2.162  0.00  0.00    +0.004 A 
ATOM     20  C   UNL     1      -0.686   5.960  -1.633  0.00  0.00    +0.010 A 
ATOM     21  C   UNL     1      -1.327   4.986  -2.401  0.00  0.00    -0.004 A 
ATOM     22  C   UNL     1      -1.736   5.288  -3.701  0.00  0.00    +0.010 A 
ATOM     23  C   UNL     1      -1.516   6.549  -4.215  0.00  0.00    +0.004 A 
BRANCH  18  25
ATOM     24  C   UNL     1       0.721   8.911  -4.722  0.00  0.00    +0.009 C 
ATOM     25  C   UNL     1      -0.637   8.884  -4.019  0.00  0.00    +0.032 C 
ENDBRANCH  18  25
ENDBRANCH   1  21
BRANCH   3  26
ATOM     26  C   UNL     1      -0.017   1.378   0.010  0.00  0.00    -0.037 A 
ATOM     27  C   UNL     1       0.002  -0.004   0.002  0.00  0.00    +0.007 A 
ATOM     28  C   UNL     1       1.207  -0.682  -0.013  0.00  0.00    +0.049 A 
ATOM     29  C   UNL     1       2.399   0.024  -0.020  0.00  0.00    +0.161 A 
ATOM     30  C   UNL     1       2.380   1.415  -0.013  0.00  0.00    +0.162 A 
ATOM     31  C   UNL     1       1.169   2.089   0.002  0.00  0.00    +0.053 A 
BRANCH  30  32
ATOM     32  O   UNL     1       3.548   2.113  -0.020  0.00  0.00    -0.491 OA
ATOM     33  C   UNL     1       3.452   3.539  -0.012  0.00  0.00    +0.277 C 
ENDBRANCH  30  32
BRANCH  29  34
ATOM     34  O   UNL     1       3.585  -0.641  -0.035  0.00  0.00    -0.491 OA
ATOM     35  C   UNL     1       3.528  -2.069  -0.042  0.00  0.00    +0.277 C 
ENDBRANCH  29  34
ENDBRANCH   3  26
TORSDOF 7
