REMARK  Name = ZINC55129789
REMARK  4 active torsions:
REMARK  status: ('A' for Active; 'I' for Inactive)
REMARK    1  A    between atoms: C_1  and  C_2
REMARK    2  A    between atoms: C_7  and  N_22
REMARK    3  A    between atoms: C_9  and  C_11
REMARK    4  A    between atoms: N_13  and  C_14
REMARK                            x       y       z     vdW  Elec       q    Type
REMARK                         _______ _______ _______ _____ _____    ______ ____
ROOT
ATOM      1  C   UNL     1       0.672  -1.789   1.050  0.00  0.00    +0.215 C 
ATOM      2  O   UNL     1       1.659  -2.477   1.203  0.00  0.00    -0.276 OA
ATOM      3  N   UNL     1      -0.525  -2.368   0.828  0.00  0.00    -0.312 N 
ATOM      4  H   UNL     1      -1.300  -1.819   0.632  0.00  0.00    +0.149 HD
ENDROOT
BRANCH   3   5
ATOM      5  C   UNL     1      -0.655  -3.826   0.881  0.00  0.00    +0.076 C 
ATOM      6  C   UNL     1      -0.250  -4.416  -0.467  0.00  0.00    +0.045 C 
ATOM      7  C   UNL     1      -0.119  -5.937  -0.353  0.00  0.00    +0.167 C 
ATOM      8  S   UNL     1      -1.742  -6.638   0.065  0.00  0.00    -0.031 S 
ATOM      9  O   UNL     1      -1.565  -7.997   0.442  0.00  0.00    -0.174 OA
ATOM     10  O   UNL     1      -2.653  -6.322  -0.979  0.00  0.00    -0.174 OA
ATOM     11  C   UNL     1      -2.198  -5.683   1.542  0.00  0.00    +0.167 C 
ATOM     12  C   UNL     1      -2.098  -4.190   1.218  0.00  0.00    +0.045 C 
ENDBRANCH   3   5
BRANCH   1  19
ATOM     13  C   UNL     1       0.502   1.831  -0.184  0.00  0.00    +0.008 C 
ATOM     14  C   UNL     1       0.389   0.307  -0.244  0.00  0.00    -0.004 C 
ATOM     15  C   UNL     1       1.324  -0.232  -1.329  0.00  0.00    +0.004 C 
ATOM     16  C   UNL     1       2.766   0.160  -1.001  0.00  0.00    -0.001 C 
ATOM     17  C   UNL     1       3.160  -0.434   0.353  0.00  0.00    -0.016 C 
ATOM     18  C   UNL     1       2.225   0.104   1.438  0.00  0.00    -0.063 C 
ATOM     19  C   UNL     1       0.783  -0.288   1.109  0.00  0.00    +0.063 C 
BRANCH  18  20
ATOM     20  N   UNL     1       2.603  -0.467   2.738  0.00  0.00    +0.380 N 
ATOM     21  H   UNL     1       3.569  -0.247   2.933  0.00  0.00    -0.090 HD
ATOM     22  H   UNL     1       2.017  -0.076   3.460  0.00  0.00    -0.090 HD
ATOM     23  H   UNL     1       2.484  -1.468   2.713  0.00  0.00    -0.090 HD
ENDBRANCH  18  20
ENDBRANCH   1  19
TORSDOF 3
