REMARK  Name = ZINC19499335
REMARK  8 active torsions:
REMARK  status: ('A' for Active; 'I' for Inactive)
REMARK    1  A    between atoms: C_1  and  C_2
REMARK    2  A    between atoms: C_2  and  C_3
REMARK    3  A    between atoms: N_5  and  C_6
REMARK    4  A    between atoms: C_9  and  C_12
REMARK    5  A    between atoms: C_12  and  C_14
REMARK    6  A    between atoms: C_12  and  O_32
REMARK    7  A    between atoms: C_14  and  N_15
REMARK    8  A    between atoms: C_22  and  O_31
REMARK                            x       y       z     vdW  Elec       q    Type
REMARK                         _______ _______ _______ _____ _____    ______ ____
ROOT
ATOM      1  N   UNL     1      -4.572   5.130  -2.247  0.00  0.00    +0.382 N 
ATOM      2  C   UNL     1      -3.350   4.424  -2.650  0.00  0.00    -0.075 C 
ATOM      3  C   UNL     1      -2.150   5.010  -1.901  0.00  0.00    +0.029 C 
ATOM      4  C   UNL     1      -2.375   4.867  -0.395  0.00  0.00    +0.110 C 
ATOM      5  C   UNL     1      -3.681   5.563  -0.007  0.00  0.00    +0.029 C 
ATOM      6  C   UNL     1      -4.835   4.960  -0.812  0.00  0.00    -0.075 C 
ATOM      7  C   UNL     1      -1.208   5.513   0.360  0.00  0.00    +0.084 C 
ATOM      8  C   UNL     1       0.094   4.873  -0.130  0.00  0.00    +0.152 C 
ATOM      9  C   UNL     1      -0.046   3.372  -0.128  0.00  0.00    +0.023 A 
ATOM     10  C   UNL     1       1.100   2.596  -0.170  0.00  0.00    +0.010 A 
ATOM     11  C   UNL     1       1.008   1.218  -0.177  0.00  0.00    +0.001 A 
ATOM     12  C   UNL     1      -0.232   0.607  -0.145  0.00  0.00    +0.004 A 
ATOM     13  C   UNL     1      -1.377   1.375  -0.108  0.00  0.00    +0.046 A 
ATOM     14  C   UNL     1      -1.289   2.764  -0.092  0.00  0.00    +0.127 A 
ATOM     15  O   UNL     1      -2.438   3.486  -0.043  0.00  0.00    -0.485 OA
ATOM     16  H   UNL     1      -4.418   6.203  -2.435  0.00  0.00    -0.082 HD
ENDROOT
BRANCH   8  17
ATOM     17  O   UNL     1       1.165   5.251   0.738  0.00  0.00    -0.387 OA
ATOM     18  H   UNL     1       2.184   4.885   0.545  0.00  0.00    +0.210 HD
ENDBRANCH   8  17
BRANCH   1  19
ATOM     19  C   UNL     1      -5.723   4.691  -3.048  0.00  0.00    -0.042 C 
BRANCH  19  20
ATOM     20  C   UNL     1      -5.521   5.112  -4.505  0.00  0.00    +0.128 C 
BRANCH  20  24
ATOM     21  C   UNL     1      -8.886   3.868  -6.828  0.00  0.00    +0.033 A 
ATOM     22  C   UNL     1      -7.751   3.070  -6.762  0.00  0.00    +0.023 A 
ATOM     23  C   UNL     1      -6.666   3.474  -6.011  0.00  0.00    +0.008 A 
ATOM     24  C   UNL     1      -6.707   4.674  -5.324  0.00  0.00    -0.021 A 
ATOM     25  C   UNL     1      -7.837   5.469  -5.383  0.00  0.00    +0.008 A 
ATOM     26  C   UNL     1      -8.924   5.072  -6.136  0.00  0.00    +0.023 A 
BRANCH  21  29
ATOM     27  C   UNL     1     -10.307   2.154  -7.666  0.00  0.00    +0.217 C 
ATOM     28  O   UNL     1      -9.592   1.323  -7.147  0.00  0.00    -0.275 OA
ATOM     29  N   UNL     1      -9.987   3.461  -7.589  0.00  0.00    -0.286 N 
ATOM     30  H   UNL     1     -10.592   4.208  -8.124  0.00  0.00    +0.155 HD
BRANCH  27  32
ATOM     31  C   UNL     1     -11.681   0.202  -8.336  0.00  0.00    +0.013 C 
ATOM     32  C   UNL     1     -11.553   1.725  -8.397  0.00  0.00    +0.093 C 
ENDBRANCH  27  32
ENDBRANCH  21  29
ENDBRANCH  20  24
BRANCH  20  33
ATOM     33  O   UNL     1      -5.392   6.534  -4.575  0.00  0.00    -0.389 OA
ATOM     34  H   UNL     1      -4.578   7.040  -4.037  0.00  0.00    +0.210 HD
ENDBRANCH  20  33
ENDBRANCH  19  20
ENDBRANCH   1  19
TORSDOF 7
