REMARK  Name = ZINC26403897
REMARK  10 active torsions:
REMARK  status: ('A' for Active; 'I' for Inactive)
REMARK    1  A    between atoms: C_1  and  C_2
REMARK    2  A    between atoms: N_11  and  C_14
REMARK    3  A    between atoms: C_14  and  C_15
REMARK    4  A    between atoms: C_15  and  C_16
REMARK    5  A    between atoms: C_23  and  O_27
REMARK    6  A    between atoms: C_28  and  C_39
REMARK    7  A    between atoms: C_29  and  C_30
REMARK    8  A    between atoms: C_32  and  C_38
REMARK    9  A    between atoms: C_33  and  O_37
REMARK   10  A    between atoms: C_34  and  C_36
REMARK                            x       y       z     vdW  Elec       q    Type
REMARK                         _______ _______ _______ _____ _____    ______ ____
ROOT
ATOM      1  C   UNL     1      -7.691   6.790   2.213  0.00  0.00    +0.194 C 
ATOM      2  C   UNL     1      -7.710   7.821   3.352  0.00  0.00    +0.167 C 
ATOM      3  N   UNL     1      -8.931   8.627   3.210  0.00  0.00    -0.333 N 
ATOM      4  C   UNL     1      -9.514   8.729   1.965  0.00  0.00    +0.092 A 
ATOM      5  C   UNL     1     -10.656   9.536   2.043  0.00  0.00    +0.010 A 
ATOM      6  C   UNL     1     -11.398   9.767   0.878  0.00  0.00    +0.056 A 
ATOM      7  C   UNL     1     -10.935   9.165  -0.288  0.00  0.00    +0.121 A 
ATOM      8  C   UNL     1      -9.792   8.363  -0.338  0.00  0.00    +0.093 A 
ATOM      9  C   UNL     1      -9.049   8.125   0.793  0.00  0.00    +0.148 A 
ATOM     10  O   UNL     1      -7.926   7.381   0.928  0.00  0.00    -0.485 OA
ATOM     11  C   UNL     1     -10.740   9.929   3.433  0.00  0.00    -0.017 A 
ATOM     12  C   UNL     1      -9.679   9.354   4.088  0.00  0.00    +0.053 A 
ATOM     13  C   UNL     1     -11.798  10.808   4.050  0.00  0.00    +0.046 C 
ENDROOT
BRANCH  12  14
ATOM     14  C   UNL     1      -9.390   9.501   5.530  0.00  0.00    -0.001 A 
ATOM     15  C   UNL     1      -9.046   8.384   6.293  0.00  0.00    +0.017 A 
ATOM     16  C   UNL     1      -8.774   8.526   7.636  0.00  0.00    -0.008 A 
ATOM     17  C   UNL     1      -8.851   9.777   8.234  0.00  0.00    +0.123 A 
ATOM     18  C   UNL     1      -9.198  10.890   7.480  0.00  0.00    -0.008 A 
ATOM     19  C   UNL     1      -9.467  10.757   6.135  0.00  0.00    +0.017 A 
ATOM     20  C   UNL     1      -9.280  12.245   8.134  0.00  0.00    +0.047 C 
ATOM     21  C   UNL     1      -8.397   7.321   8.459  0.00  0.00    +0.047 C 
BRANCH  17  22
ATOM     22  O   UNL     1      -8.587   9.912   9.560  0.00  0.00    -0.506 OA
ATOM     23  H   UNL     1      -8.648  10.902  10.035  0.00  0.00    +0.292 HD
ENDBRANCH  17  22
ENDBRANCH  12  14
BRANCH   7  24
ATOM     24  O   UNL     1     -11.631   9.368  -1.438  0.00  0.00    -0.507 OA
ATOM     25  H   UNL     1     -11.290   8.905  -2.376  0.00  0.00    +0.292 HD
ENDBRANCH   7  24
BRANCH   1  26
ATOM     26  C   UNL     1      -6.326   6.098   2.196  0.00  0.00    +0.061 C 
BRANCH  26  27
ATOM     27  C   UNL     1      -6.332   4.982   1.149  0.00  0.00    +0.088 C 
BRANCH  27  38
ATOM     28  C   UNL     1       2.435   3.955   0.001  0.00  0.00    +0.044 C 
ATOM     29  C   UNL     1       1.154   3.162   0.008  0.00  0.00    -0.046 A 
ATOM     30  C   UNL     1       1.179   1.773   0.000  0.00  0.00    +0.021 A 
ATOM     31  C   UNL     1      -0.013   1.076   0.008  0.00  0.00    +0.084 A 
ATOM     32  N   UNL     1      -1.169   1.711   0.017  0.00  0.00    -0.350 N 
ATOM     33  C   UNL     1      -1.234   3.034   0.030  0.00  0.00    +0.099 A 
ATOM     34  C   UNL     1      -0.073   3.800   0.023  0.00  0.00    +0.045 A 
ATOM     35  N   UNL     1      -2.474   3.662   0.045  0.00  0.00    -0.314 N 
ATOM     36  C   UNL     1      -2.588   4.575   1.192  0.00  0.00    +0.122 C 
ATOM     37  C   UNL     1      -3.932   5.304   1.128  0.00  0.00    +0.103 C 
ATOM     38  N   UNL     1      -5.022   4.318   1.133  0.00  0.00    -0.299 NA
ATOM     39  C   UNL     1      -4.908   3.406  -0.013  0.00  0.00    +0.103 C 
ATOM     40  C   UNL     1      -3.564   2.676   0.051  0.00  0.00    +0.122 C 
ATOM     41  H   UNL     1      -2.110   1.141   0.013  0.00  0.00    +0.166 HD
ENDBRANCH  27  38
ENDBRANCH  26  27
ENDBRANCH   1  26
TORSDOF 6
