REMARK  Name = ZINC59578070
REMARK  10 active torsions:
REMARK  status: ('A' for Active; 'I' for Inactive)
REMARK    1  A    between atoms: C_1  and  C_2
REMARK    2  A    between atoms: C_2  and  C_4
REMARK    3  A    between atoms: C_2  and  N_14
REMARK    4  A    between atoms: C_8  and  C_10
REMARK    5  A    between atoms: N_14  and  C_15
REMARK    6  A    between atoms: N_14  and  C_29
REMARK    7  A    between atoms: C_15  and  C_16
REMARK    8  A    between atoms: N_18  and  C_19
REMARK    9  A    between atoms: C_23  and  S_25
REMARK   10  A    between atoms: S_25  and  N_28
REMARK                            x       y       z     vdW  Elec       q    Type
REMARK                         _______ _______ _______ _____ _____    ______ ____
ROOT
ATOM      1  N   UNL     1      -1.361  -0.510   0.208  0.00  0.00    +0.392 N 
ATOM      2  H   UNL     1      -1.891  -0.194  -0.590  0.00  0.00    -0.080 HD
ENDROOT
BRANCH   1   3
ATOM      3  C   UNL     1      -1.969   0.013   1.439  0.00  0.00    -0.067 C 
ATOM      4  C   UNL     1      -3.389   0.574   1.342  0.00  0.00    -0.017 C 
ATOM      5  C   UNL     1      -2.203   1.523   1.524  0.00  0.00    -0.017 C 
ENDBRANCH   1   3
BRANCH   1   7
ATOM      6  C   UNL     1       0.018   1.494  -0.072  0.00  0.00    -0.008 C 
ATOM      7  C   UNL     1       0.022  -0.026   0.101  0.00  0.00    -0.040 C 
BRANCH   7   8
ATOM      8  C   UNL     1       0.687  -0.665  -1.091  0.00  0.00    -0.061 A 
ATOM      9  C   UNL     1      -0.017  -0.831  -2.269  0.00  0.00    +0.002 A 
ATOM     10  C   UNL     1       0.593  -1.417  -3.362  0.00  0.00    +0.001 A 
ATOM     11  C   UNL     1       1.908  -1.838  -3.276  0.00  0.00    +0.012 A 
ATOM     12  C   UNL     1       2.611  -1.672  -2.099  0.00  0.00    +0.055 A 
ATOM     13  C   UNL     1       2.003  -1.081  -1.007  0.00  0.00    +0.014 A 
BRANCH  12  14
ATOM     14  C   UNL     1       4.044  -2.131  -2.006  0.00  0.00    +0.417 C 
ATOM     15  F   UNL     1       4.435  -2.688  -3.228  0.00  0.00    -0.166 F 
ATOM     16  F   UNL     1       4.865  -1.039  -1.707  0.00  0.00    -0.166 F 
ATOM     17  F   UNL     1       4.161  -3.092  -0.996  0.00  0.00    -0.166 F 
ENDBRANCH  12  14
ENDBRANCH   7   8
ENDBRANCH   1   7
BRANCH   1  18
ATOM     18  C   UNL     1      -1.363  -1.979   0.247  0.00  0.00    +0.020 C 
BRANCH  18  19
ATOM     19  C   UNL     1      -2.785  -2.479   0.234  0.00  0.00    +0.201 C 
ATOM     20  O   UNL     1      -3.705  -1.690   0.195  0.00  0.00    -0.278 OA
ATOM     21  N   UNL     1      -3.034  -3.803   0.264  0.00  0.00    -0.287 N 
ATOM     22  H   UNL     1      -2.299  -4.436   0.225  0.00  0.00    +0.155 HD
BRANCH  21  23
ATOM     23  C   UNL     1      -4.351  -4.266   0.353  0.00  0.00    +0.035 A 
ATOM     24  C   UNL     1      -5.370  -3.598  -0.316  0.00  0.00    +0.023 A 
ATOM     25  C   UNL     1      -6.669  -4.057  -0.227  0.00  0.00    +0.004 A 
ATOM     26  C   UNL     1      -6.957  -5.180   0.528  0.00  0.00    +0.028 A 
ATOM     27  C   UNL     1      -5.946  -5.846   1.196  0.00  0.00    +0.107 A 
ATOM     28  C   UNL     1      -4.643  -5.396   1.105  0.00  0.00    +0.051 A 
BRANCH  27  29
ATOM     29  S   UNL     1      -6.318  -7.275   2.156  0.00  0.00    +0.056 S 
ATOM     30  O   UNL     1      -5.283  -7.396   3.122  0.00  0.00    -0.153 OA
ATOM     31  O   UNL     1      -7.689  -7.176   2.518  0.00  0.00    -0.153 OA
BRANCH  29  32
ATOM     32  N   UNL     1      -6.186  -8.587   1.154  0.00  0.00    -0.204 NA
ATOM     33  H   UNL     1      -5.941  -8.464   0.224  0.00  0.00    +0.144 HD
ATOM     34  H   UNL     1      -6.354  -9.478   1.498  0.00  0.00    +0.144 HD
ENDBRANCH  29  32
ENDBRANCH  27  29
ENDBRANCH  21  23
ENDBRANCH  18  19
ENDBRANCH   1  18
TORSDOF 9
