REMARK  Name = ZINC19939899
REMARK  12 active torsions:
REMARK  status: ('A' for Active; 'I' for Inactive)
REMARK    1  A    between atoms: C_1  and  C_2
REMARK    2  A    between atoms: C_2  and  C_3
REMARK    3  A    between atoms: C_8  and  N_9
REMARK    4  A    between atoms: C_10  and  C_12
REMARK    5  A    between atoms: C_12  and  S_13
REMARK    6  A    between atoms: S_13  and  C_14
REMARK    7  A    between atoms: C_15  and  C_38
REMARK    8  A    between atoms: C_16  and  C_32
REMARK    9  A    between atoms: C_18  and  C_22
REMARK   10  A    between atoms: C_19  and  C_21
REMARK   11  A    between atoms: N_24  and  C_25
REMARK   12  A    between atoms: C_30  and  C_31
REMARK                            x       y       z     vdW  Elec       q    Type
REMARK                         _______ _______ _______ _____ _____    ______ ____
ROOT
ATOM      1  C   UNL     1       7.004   5.633   0.184  0.00  0.00    +0.080 C 
ATOM      2  C   UNL     1       5.815   6.285   0.286  0.00  0.00    +0.069 C 
ATOM      3  C   UNL     1       4.523   5.613  -0.087  0.00  0.00    +0.098 C 
ATOM      4  C   UNL     1       4.702   4.124  -0.175  0.00  0.00    +0.044 C 
ATOM      5  C   UNL     1       5.918   3.562  -0.253  0.00  0.00    +0.014 C 
ATOM      6  N   UNL     1       7.051   4.330  -0.258  0.00  0.00    -0.312 N 
ATOM      7  C   UNL     1       6.038   2.063  -0.342  0.00  0.00    +0.061 C 
ATOM      8  H   UNL     1       8.000   3.905  -0.617  0.00  0.00    +0.152 HD
ENDROOT
BRANCH   3   9
ATOM      9  C   UNL     1       4.059   6.136  -1.422  0.00  0.00    -0.035 A 
ATOM     10  C   UNL     1       4.847   5.961  -2.545  0.00  0.00    +0.004 A 
ATOM     11  C   UNL     1       4.419   6.437  -3.770  0.00  0.00    +0.000 A 
ATOM     12  C   UNL     1       3.209   7.097  -3.871  0.00  0.00    +0.000 A 
ATOM     13  C   UNL     1       2.424   7.277  -2.747  0.00  0.00    +0.000 A 
ATOM     14  C   UNL     1       2.849   6.797  -1.523  0.00  0.00    +0.004 A 
ENDBRANCH   3   9
BRANCH   4  15
ATOM     15  C   UNL     1       3.557   3.292  -0.169  0.00  0.00    +0.247 C 
ATOM     16  O   UNL     1       2.901   3.164   0.849  0.00  0.00    -0.270 OA
ATOM     17  N   UNL     1       3.192   2.640  -1.291  0.00  0.00    -0.281 N 
ATOM     18  H   UNL     1       3.824   2.696  -2.190  0.00  0.00    +0.155 HD
BRANCH  17  19
ATOM     19  C   UNL     1       2.011   1.892  -1.313  0.00  0.00    +0.037 A 
ATOM     20  C   UNL     1       1.596   1.214  -0.173  0.00  0.00    +0.023 A 
ATOM     21  C   UNL     1       0.428   0.476  -0.198  0.00  0.00    +0.002 A 
ATOM     22  C   UNL     1      -0.324   0.408  -1.356  0.00  0.00    +0.000 A 
ATOM     23  C   UNL     1       0.084   1.086  -2.490  0.00  0.00    +0.005 A 
ATOM     24  C   UNL     1       1.250   1.825  -2.473  0.00  0.00    -0.029 A 
ATOM     25  C   UNL     1       1.697   2.559  -3.711  0.00  0.00    +0.045 C 
ENDBRANCH  17  19
ENDBRANCH   4  15
BRANCH   2  26
ATOM     26  C   UNL     1       5.792   7.637   0.757  0.00  0.00    +0.098 C 
ATOM     27  N   UNL     1       5.775   8.709   1.131  0.00  0.00    -0.191 NA
ENDBRANCH   2  26
BRANCH   1  28
ATOM     28  S   UNL     1       8.496   6.463   0.621  0.00  0.00    -0.100 S 
BRANCH  28  29
ATOM     29  C   UNL     1       9.695   5.147   0.293  0.00  0.00    +0.171 C 
BRANCH  29  31
ATOM     30  N   UNL     1      12.144   4.830   0.434  0.00  0.00    -0.285 N 
ATOM     31  C   UNL     1      11.083   5.643   0.605  0.00  0.00    +0.227 C 
ATOM     32  O   UNL     1      11.246   6.775   1.009  0.00  0.00    -0.275 OA
ATOM     33  H   UNL     1      12.004   3.825   0.009  0.00  0.00    +0.155 HD
BRANCH  30  39
ATOM     34  C   UNL     1      14.400   4.337   1.141  0.00  0.00    -0.026 A 
ATOM     35  C   UNL     1      15.664   4.768   1.495  0.00  0.00    +0.005 A 
ATOM     36  C   UNL     1      15.954   6.119   1.518  0.00  0.00    +0.000 A 
ATOM     37  C   UNL     1      14.982   7.044   1.182  0.00  0.00    +0.002 A 
ATOM     38  C   UNL     1      13.718   6.620   0.822  0.00  0.00    +0.023 A 
ATOM     39  C   UNL     1      13.424   5.263   0.798  0.00  0.00    +0.037 A 
BRANCH  34  41
ATOM     40  C   UNL     1      14.273   2.319  -0.295  0.00  0.00    +0.009 C 
ATOM     41  C   UNL     1      14.083   2.864   1.123  0.00  0.00    +0.033 C 
ENDBRANCH  34  41
ENDBRANCH  30  39
ENDBRANCH  29  31
ENDBRANCH  28  29
ENDBRANCH   1  28
TORSDOF 9
