REMARK  Name = ZINC12462355
REMARK  8 active torsions:
REMARK  status: ('A' for Active; 'I' for Inactive)
REMARK    1  A    between atoms: C_1  and  C_2
REMARK    2  A    between atoms: C_7  and  N_8
REMARK    3  A    between atoms: C_11  and  C_18
REMARK    4  A    between atoms: C_13  and  C_16
REMARK    5  A    between atoms: C_14  and  N_15
REMARK    6  A    between atoms: C_21  and  N_23
REMARK    7  A    between atoms: C_29  and  C_31
REMARK    8  A    between atoms: C_29  and  C_32
REMARK                            x       y       z     vdW  Elec       q    Type
REMARK                         _______ _______ _______ _____ _____    ______ ____
ROOT
ATOM      1  N   UNL     1      -3.030   7.267   0.049  0.00  0.00    -0.260 N 
ATOM      2  C   UNL     1      -3.528   6.798  -1.139  0.00  0.00    +0.025 C 
ATOM      3  C   UNL     1      -4.181   5.618  -1.192  0.00  0.00    +0.026 C 
ATOM      4  C   UNL     1      -4.378   4.785   0.048  0.00  0.00    +0.104 C 
ATOM      5  C   UNL     1      -4.169   5.602   1.289  0.00  0.00    +0.077 C 
ATOM      6  C   UNL     1      -3.512   6.789   1.246  0.00  0.00    +0.107 C 
ATOM      7  C   UNL     1      -4.696   5.129  -2.406  0.00  0.00    +0.162 C 
ATOM      8  O   UNL     1      -5.292   4.071  -2.418  0.00  0.00    -0.292 OA
ATOM      9  C   UNL     1      -4.520   5.892  -3.691  0.00  0.00    +0.086 C 
ATOM     10  C   UNL     1      -3.236   6.724  -3.604  0.00  0.00    -0.023 C 
ATOM     11  C   UNL     1      -3.332   7.636  -2.379  0.00  0.00    +0.058 C 
ATOM     12  C   UNL     1      -2.029   5.795  -3.462  0.00  0.00    +0.011 C 
ATOM     13  C   UNL     1      -3.087   7.572  -4.870  0.00  0.00    +0.011 C 
ENDROOT
BRANCH   1  20
ATOM     14  C   UNL     1      -0.321   6.397   0.024  0.00  0.00    +0.045 C 
ATOM     15  C   UNL     1      -0.688   7.859   0.032  0.00  0.00    -0.029 A 
ATOM     16  C   UNL     1       0.304   8.821   0.028  0.00  0.00    +0.006 A 
ATOM     17  C   UNL     1      -0.032  10.162   0.034  0.00  0.00    +0.020 A 
ATOM     18  C   UNL     1      -1.362  10.545   0.045  0.00  0.00    +0.043 A 
ATOM     19  C   UNL     1      -2.358   9.588   0.045  0.00  0.00    +0.044 A 
ATOM     20  C   UNL     1      -2.023   8.240   0.044  0.00  0.00    +0.044 A 
ATOM     21 CL   UNL     1      -1.779  12.231   0.053  0.00  0.00    -0.083 Cl
ENDBRANCH   1  20
BRANCH   4  22
ATOM     22  C   UNL     1      -3.395   3.643   0.038  0.00  0.00    +0.005 A 
ATOM     23  C   UNL     1      -3.636   2.309   0.032  0.00  0.00    +0.014 A 
ATOM     24  C   UNL     1      -2.565   1.434   0.017  0.00  0.00    +0.041 A 
ATOM     25  C   UNL     1      -1.306   1.937   0.019  0.00  0.00    +0.164 A 
ATOM     26  S   UNL     1      -1.611   3.696   0.029  0.00  0.00    -0.068 S 
BRANCH  25  27
ATOM     27  N   UNL     1      -0.014   1.214   0.009  0.00  0.00    +0.063 N 
ATOM     28  O   UNL     1       0.002  -0.004   0.002  0.00  0.00    -0.126 OA
ATOM     29  O   UNL     1       1.032   1.837   0.002  0.00  0.00    -0.126 OA
ENDBRANCH  25  27
ENDBRANCH   4  22
BRANCH   6  30
ATOM     30  N   UNL     1      -3.327   7.514   2.399  0.00  0.00    -0.345 N 
ATOM     31  H   UNL     1      -2.857   8.362   2.369  0.00  0.00    +0.144 HD
ATOM     32  H   UNL     1      -3.667   7.177   3.243  0.00  0.00    +0.144 HD
ENDBRANCH   6  30
BRANCH   5  33
ATOM     33  C   UNL     1      -4.672   5.123   2.541  0.00  0.00    +0.099 C 
ATOM     34  N   UNL     1      -5.071   4.742   3.534  0.00  0.00    -0.191 NA
ENDBRANCH   5  33
TORSDOF 5
