REMARK  Name = ZINC36058010
REMARK  8 active torsions:
REMARK  status: ('A' for Active; 'I' for Inactive)
REMARK    1  A    between atoms: C_1  and  N_2
REMARK    2  A    between atoms: C_5  and  C_8
REMARK    3  A    between atoms: C_5  and  N_26
REMARK    4  A    between atoms: N_10  and  C_11
REMARK    5  A    between atoms: C_11  and  C_13
REMARK    6  A    between atoms: C_11  and  C_20
REMARK    7  A    between atoms: C_13  and  C_14
REMARK    8  A    between atoms: C_27  and  C_32
REMARK                            x       y       z     vdW  Elec       q    Type
REMARK                         _______ _______ _______ _____ _____    ______ ____
ROOT
ATOM      1  C   UNL     1       1.227   1.112   1.375  0.00  0.00    -0.096 C 
ATOM      2  N   UNL     1       0.534  -0.184   1.347  0.00  0.00    +0.378 N 
ATOM      3  C   UNL     1       0.810  -0.857   0.072  0.00  0.00    -0.077 C 
ATOM      4  C   UNL     1       0.027  -2.170   0.005  0.00  0.00    +0.017 C 
ATOM      5  C   UNL     1       0.455  -3.074   1.165  0.00  0.00    +0.110 C 
ATOM      6  C   UNL     1       0.232  -2.332   2.486  0.00  0.00    +0.017 C 
ATOM      7  C   UNL     1       1.008  -1.013   2.462  0.00  0.00    -0.077 C 
ATOM      8  H   UNL     1      -0.459  -0.035   1.438  0.00  0.00    -0.082 HD
ENDROOT
BRANCH   5   9
ATOM      9  N   UNL     1       1.873  -3.411   1.026  0.00  0.00    -0.280 N 
ATOM     10  C   UNL     1       2.920  -2.963   0.116  0.00  0.00    +0.116 C 
ATOM     11  C   UNL     1       3.877  -3.899   0.843  0.00  0.00    +0.123 C 
ATOM     12  C   UNL     1       2.688  -4.239   1.691  0.00  0.00    +0.219 C 
ATOM     13  O   UNL     1       2.524  -4.987   2.632  0.00  0.00    -0.275 OA
BRANCH  10  14
ATOM     14  C   UNL     1       2.674  -3.352  -1.320  0.00  0.00    -0.023 A 
ATOM     15  C   UNL     1       2.423  -4.673  -1.643  0.00  0.00    +0.009 A 
ATOM     16  C   UNL     1       2.196  -5.034  -2.958  0.00  0.00    +0.050 A 
ATOM     17  C   UNL     1       2.220  -4.072  -3.955  0.00  0.00    +0.166 A 
ATOM     18  C   UNL     1       2.473  -2.742  -3.629  0.00  0.00    +0.167 A 
ATOM     19  C   UNL     1       2.694  -2.386  -2.309  0.00  0.00    +0.055 A 
ATOM     20  O   UNL     1       2.443  -1.999  -4.774  0.00  0.00    -0.453 OA
ATOM     21  C   UNL     1       2.575  -2.946  -5.851  0.00  0.00    +0.466 C 
ATOM     22  O   UNL     1       2.032  -4.162  -5.304  0.00  0.00    -0.453 OA
ENDBRANCH  10  14
ENDBRANCH   5   9
BRANCH   5  23
ATOM     23  C   UNL     1      -0.369  -4.336   1.150  0.00  0.00    +0.237 C 
ATOM     24  O   UNL     1      -1.391  -4.400   1.799  0.00  0.00    -0.273 OA
ATOM     25  N   UNL     1       0.031  -5.393   0.416  0.00  0.00    -0.306 N 
ATOM     26  H   UNL     1       0.886  -5.370  -0.042  0.00  0.00    +0.149 HD
BRANCH  25  27
ATOM     27  C   UNL     1      -0.825  -6.577   0.309  0.00  0.00    +0.107 C 
BRANCH  27  28
ATOM     28  C   UNL     1      -1.867  -6.349  -0.755  0.00  0.00    -0.027 A 
ATOM     29  C   UNL     1      -1.524  -5.711  -1.932  0.00  0.00    +0.005 A 
ATOM     30  C   UNL     1      -2.480  -5.502  -2.909  0.00  0.00    +0.000 A 
ATOM     31  C   UNL     1      -3.779  -5.932  -2.708  0.00  0.00    +0.000 A 
ATOM     32  C   UNL     1      -4.121  -6.571  -1.532  0.00  0.00    +0.000 A 
ATOM     33  C   UNL     1      -3.164  -6.784  -0.557  0.00  0.00    +0.005 A 
ENDBRANCH  27  28
BRANCH  27  34
ATOM     34  C   UNL     1       0.028  -7.791  -0.063  0.00  0.00    +0.062 C 
BRANCH  34  35
ATOM     35  C   UNL     1       0.959  -8.119   1.075  0.00  0.00    -0.045 A 
ATOM     36  C   UNL     1       2.234  -7.586   1.101  0.00  0.00    +0.004 A 
ATOM     37  C   UNL     1       3.089  -7.887   2.145  0.00  0.00    +0.000 A 
ATOM     38  C   UNL     1       2.668  -8.721   3.164  0.00  0.00    +0.000 A 
ATOM     39  C   UNL     1       1.392  -9.254   3.139  0.00  0.00    +0.000 A 
ATOM     40  C   UNL     1       0.537  -8.949   2.097  0.00  0.00    +0.004 A 
ENDBRANCH  34  35
ENDBRANCH  27  34
ENDBRANCH  25  27
ENDBRANCH   5  23
TORSDOF 7
