REMARK  Name = ZINC35454976
REMARK  12 active torsions:
REMARK  status: ('A' for Active; 'I' for Inactive)
REMARK    1  A    between atoms: C_1  and  C_2
REMARK    2  A    between atoms: C_12  and  O_13
REMARK    3  A    between atoms: C_15  and  C_18
REMARK    4  A    between atoms: C_18  and  C_19
REMARK    5  A    between atoms: C_18  and  C_20
REMARK    6  A    between atoms: C_18  and  O_21
REMARK    7  A    between atoms: O_21  and  C_22
REMARK    8  A    between atoms: C_24  and  O_37
REMARK    9  A    between atoms: C_26  and  O_36
REMARK   10  A    between atoms: C_28  and  O_35
REMARK   11  A    between atoms: C_30  and  C_33
REMARK   12  A    between atoms: C_33  and  O_34
REMARK                            x       y       z     vdW  Elec       q    Type
REMARK                         _______ _______ _______ _____ _____    ______ ____
ROOT
ATOM      1  C   UNL     1       4.417  -7.171  -0.030  0.00  0.00    +0.104 C 
ATOM      2  C   UNL     1       4.718  -6.809  -1.486  0.00  0.00    +0.045 C 
ATOM      3  C   UNL     1       5.730  -7.291   0.746  0.00  0.00    +0.045 C 
ENDROOT
BRANCH   1  17
ATOM      4  C   UNL     1       1.287   1.936   0.386  0.00  0.00    +0.086 C 
ATOM      5  C   UNL     1       1.127   0.451   0.185  0.00  0.00    +0.106 A 
ATOM      6  C   UNL     1      -0.073  -0.021  -0.193  0.00  0.00    +0.093 A 
ATOM      7  C   UNL     1      -0.247  -1.418  -0.389  0.00  0.00    +0.196 A 
ATOM      8  O   UNL     1      -1.322  -1.882  -0.732  0.00  0.00    -0.287 OA
ATOM      9  C   UNL     1       0.922  -2.280  -0.161  0.00  0.00    +0.106 A 
ATOM     10  C   UNL     1       2.132  -1.678   0.230  0.00  0.00    +0.146 A 
ATOM     11  O   UNL     1       2.188  -0.339   0.384  0.00  0.00    -0.459 OA
ATOM     12  C   UNL     1       3.249  -2.466   0.447  0.00  0.00    +0.093 A 
ATOM     13  C   UNL     1       3.181  -3.848   0.282  0.00  0.00    +0.131 A 
ATOM     14  C   UNL     1       1.976  -4.435  -0.097  0.00  0.00    +0.040 A 
ATOM     15  C   UNL     1       0.852  -3.670  -0.324  0.00  0.00    +0.138 A 
ATOM     16  C   UNL     1       2.214  -5.931  -0.166  0.00  0.00    +0.090 C 
ATOM     17  C   UNL     1       3.551  -6.078   0.598  0.00  0.00    +0.209 C 
ATOM     18  O   UNL     1       4.156  -4.785   0.432  0.00  0.00    -0.485 OA
BRANCH  15  19
ATOM     19  O   UNL     1      -0.312  -4.257  -0.701  0.00  0.00    -0.506 OA
ATOM     20  H   UNL     1      -0.418  -4.340  -1.658  0.00  0.00    +0.292 HD
ENDBRANCH  15  19
ENDBRANCH   1  17
BRANCH   1  21
ATOM     21  O   UNL     1       3.720  -8.418   0.017  0.00  0.00    -0.339 OA
BRANCH  21  22
ATOM     22  C   UNL     1       4.455  -9.515  -0.528  0.00  0.00    +0.282 C 
ATOM     23  C   UNL     1       3.815 -10.831  -0.079  0.00  0.00    +0.201 C 
ATOM     24  C   UNL     1       2.387 -10.909  -0.627  0.00  0.00    +0.179 C 
ATOM     25  C   UNL     1       2.430 -10.775  -2.153  0.00  0.00    +0.177 C 
ATOM     26  C   UNL     1       3.123  -9.461  -2.522  0.00  0.00    +0.178 C 
ATOM     27  O   UNL     1       4.435  -9.440  -1.955  0.00  0.00    -0.341 OA
BRANCH  25  28
ATOM     28  O   UNL     1       3.157 -11.873  -2.708  0.00  0.00    -0.386 OA
ATOM     29  H   UNL     1       2.775 -12.739  -2.509  0.00  0.00    +0.210 HD
ENDBRANCH  25  28
BRANCH  24  30
ATOM     30  O   UNL     1       1.806 -12.166  -0.273  0.00  0.00    -0.386 OA
ATOM     31  H   UNL     1       1.754 -12.320   0.681  0.00  0.00    +0.210 HD
ENDBRANCH  24  30
BRANCH  23  32
ATOM     32  O   UNL     1       4.580 -11.930  -0.578  0.00  0.00    -0.384 OA
ATOM     33  H   UNL     1       5.498 -11.940  -0.273  0.00  0.00    +0.210 HD
ENDBRANCH  23  32
BRANCH  26  34
ATOM     34  C   UNL     1       3.224  -9.348  -4.045  0.00  0.00    +0.190 C 
BRANCH  34  35
ATOM     35  O   UNL     1       3.764  -8.072  -4.393  0.00  0.00    -0.392 OA
ATOM     36  H   UNL     1       3.856  -7.930  -5.345  0.00  0.00    +0.210 HD
ENDBRANCH  34  35
ENDBRANCH  26  34
ENDBRANCH  21  22
ENDBRANCH   1  21
TORSDOF 9
