REMARK  Name = ZINC36945591
REMARK  8 active torsions:
REMARK  status: ('A' for Active; 'I' for Inactive)
REMARK    1  A    between atoms: C_1  and  C_2
REMARK    2  A    between atoms: C_2  and  C_4
REMARK    3  A    between atoms: C_2  and  N_11
REMARK    4  A    between atoms: N_11  and  C_12
REMARK    5  A    between atoms: C_12  and  C_14
REMARK    6  A    between atoms: C_12  and  C_15
REMARK    7  A    between atoms: C_18  and  O_22
REMARK    8  A    between atoms: C_20  and  O_21
REMARK                            x       y       z     vdW  Elec       q    Type
REMARK                         _______ _______ _______ _____ _____    ______ ____
ROOT
ATOM      1  N   UNL     1       0.690  -0.478  -1.207  0.00  0.00    +0.388 N 
ATOM      2  H   UNL     1       1.608  -0.063  -1.256  0.00  0.00    -0.084 HD
ATOM      3  H   UNL     1       0.776  -1.482  -1.172  0.00  0.00    -0.084 HD
ENDROOT
BRANCH   1   5
ATOM      4  C   UNL     1      -0.019   1.526   0.010  0.00  0.00    -0.009 C 
ATOM      5  C   UNL     1       0.002  -0.004   0.002  0.00  0.00    -0.042 C 
BRANCH   5   6
ATOM      6  C   UNL     1       0.731  -0.503   1.223  0.00  0.00    -0.048 A 
ATOM      7  C   UNL     1       2.077  -0.808   1.148  0.00  0.00    +0.003 A 
ATOM      8  C   UNL     1       2.746  -1.266   2.268  0.00  0.00    +0.000 A 
ATOM      9  C   UNL     1       2.069  -1.419   3.463  0.00  0.00    +0.001 A 
ATOM     10  C   UNL     1       0.723  -1.114   3.539  0.00  0.00    +0.015 A 
ATOM     11  C   UNL     1       0.054  -0.651   2.420  0.00  0.00    +0.019 A 
ATOM     12 BR   UNL     1      -1.786  -0.228   2.525  0.00  0.00    -0.050 Br
ENDBRANCH   5   6
ENDBRANCH   1   5
BRANCH   1  13
ATOM     13  C   UNL     1      -0.086  -0.093  -2.394  0.00  0.00    -0.040 C 
ATOM     14  C   UNL     1      -1.431  -0.821  -2.382  0.00  0.00    -0.009 C 
BRANCH  13  15
ATOM     15  C   UNL     1       0.679  -0.470  -3.637  0.00  0.00    -0.020 A 
ATOM     16  C   UNL     1       1.602  -1.497  -3.594  0.00  0.00    +0.009 A 
ATOM     17  C   UNL     1       2.304  -1.845  -4.732  0.00  0.00    +0.046 A 
ATOM     18  C   UNL     1       2.084  -1.163  -5.921  0.00  0.00    +0.120 A 
ATOM     19  C   UNL     1       1.158  -0.133  -5.966  0.00  0.00    +0.091 A 
ATOM     20  C   UNL     1       0.450   0.211  -4.824  0.00  0.00    +0.122 A 
BRANCH  20  21
ATOM     21  O   UNL     1      -0.462   1.217  -4.866  0.00  0.00    -0.506 OA
ATOM     22  H   UNL     1      -0.096   2.089  -4.667  0.00  0.00    +0.292 HD
ENDBRANCH  20  21
BRANCH  18  23
ATOM     23  O   UNL     1       2.775  -1.506  -7.040  0.00  0.00    -0.507 OA
ATOM     24  H   UNL     1       2.342  -2.183  -7.577  0.00  0.00    +0.292 HD
ENDBRANCH  18  23
ENDBRANCH  13  15
ENDBRANCH   1  13
TORSDOF 6
