REMARK  Name = ZINC53114143
REMARK  7 active torsions:
REMARK  status: ('A' for Active; 'I' for Inactive)
REMARK    1  A    between atoms: C_1  and  C_2
REMARK    2  A    between atoms: C_5  and  C_8
REMARK    3  A    between atoms: C_5  and  N_10
REMARK    4  A    between atoms: C_8  and  O_9
REMARK    5  A    between atoms: N_10  and  C_11
REMARK    6  A    between atoms: C_11  and  C_12
REMARK    7  A    between atoms: C_17  and  O_18
REMARK                            x       y       z     vdW  Elec       q    Type
REMARK                         _______ _______ _______ _____ _____    ______ ____
ROOT
ATOM      1  N   UNL     1      -1.244  -2.152   2.506  0.00  0.00    +0.387 N 
ATOM      2  H   UNL     1      -0.627  -2.409   3.261  0.00  0.00    -0.085 HD
ATOM      3  H   UNL     1      -1.376  -1.151   2.506  0.00  0.00    -0.085 HD
ENDROOT
BRANCH   1   8
ATOM      4  C   UNL     1      -0.326   1.581   0.033  0.00  0.00    +0.007 C 
ATOM      5  C   UNL     1      -0.229   0.054  -0.013  0.00  0.00    -0.014 C 
ATOM      6  C   UNL     1      -1.628  -0.550   0.121  0.00  0.00    +0.002 C 
ATOM      7  C   UNL     1      -1.531  -2.076   0.075  0.00  0.00    -0.010 C 
ATOM      8  C   UNL     1      -0.651  -2.566   1.227  0.00  0.00    -0.044 C 
ATOM      9  C   UNL     1       0.748  -1.962   1.093  0.00  0.00    -0.010 C 
ATOM     10  C   UNL     1       0.651  -0.435   1.139  0.00  0.00    +0.002 C 
BRANCH   8  11
ATOM     11  C   UNL     1      -0.554  -4.092   1.181  0.00  0.00    +0.143 C 
BRANCH  11  12
ATOM     12  O   UNL     1       0.163  -4.559   2.326  0.00  0.00    -0.396 OA
ATOM     13  H   UNL     1       0.263  -5.520   2.363  0.00  0.00    +0.209 HD
ENDBRANCH  11  12
ENDBRANCH   8  11
ENDBRANCH   1   8
BRANCH   1  14
ATOM     14  C   UNL     1      -2.541  -2.818   2.683  0.00  0.00    -0.042 C 
BRANCH  14  15
ATOM     15  C   UNL     1      -3.205  -2.300   3.933  0.00  0.00    -0.019 A 
ATOM     16  C   UNL     1      -4.267  -1.420   3.836  0.00  0.00    +0.054 A 
ATOM     17  C   UNL     1      -4.880  -0.942   4.982  0.00  0.00    +0.167 A 
ATOM     18  C   UNL     1      -4.424  -1.348   6.235  0.00  0.00    +0.170 A 
ATOM     19  C   UNL     1      -3.360  -2.230   6.329  0.00  0.00    +0.095 A 
ATOM     20  C   UNL     1      -2.753  -2.709   5.178  0.00  0.00    +0.122 A 
ATOM     21  O   UNL     1      -5.185  -0.743   7.193  0.00  0.00    -0.452 OA
ATOM     22  C   UNL     1      -5.843   0.351   6.528  0.00  0.00    +0.466 C 
ATOM     23  O   UNL     1      -5.927  -0.083   5.157  0.00  0.00    -0.453 OA
BRANCH  20  24
ATOM     24  O   UNL     1      -1.711  -3.579   5.271  0.00  0.00    -0.506 OA
ATOM     25  H   UNL     1      -0.845  -3.151   5.316  0.00  0.00    +0.292 HD
ENDBRANCH  20  24
ENDBRANCH  14  15
ENDBRANCH   1  14
TORSDOF 6
