REMARK  Name = ZINC23402519
REMARK  5 active torsions:
REMARK  status: ('A' for Active; 'I' for Inactive)
REMARK    1  A    between atoms: C_1  and  C_2
REMARK    2  A    between atoms: C_2  and  C_3
REMARK    3  A    between atoms: C_2  and  N_4
REMARK    4  A    between atoms: C_12  and  O_24
REMARK    5  A    between atoms: C_14  and  C_17
REMARK                            x       y       z     vdW  Elec       q    Type
REMARK                         _______ _______ _______ _____ _____    ______ ____
ROOT
ATOM      1  N   UNL     1      -1.407   6.073  -0.877  0.00  0.00    +0.384 N 
ATOM      2  C   UNL     1      -1.951   4.931  -0.129  0.00  0.00    -0.073 C 
ATOM      3  C   UNL     1      -1.129   3.672  -0.418  0.00  0.00    +0.018 C 
ATOM      4  C   UNL     1       0.341   3.999  -0.184  0.00  0.00    -0.027 A 
ATOM      5  C   UNL     1       0.748   5.291  -0.141  0.00  0.00    -0.021 A 
ATOM      6  S   UNL     1       2.494   5.209   0.148  0.00  0.00    -0.080 S 
ATOM      7  C   UNL     1       2.673   3.508   0.213  0.00  0.00    +0.080 A 
ATOM      8  C   UNL     1       1.381   3.006  -0.001  0.00  0.00    +0.067 A 
ATOM      9  C   UNL     1       1.217   1.530  -0.001  0.00  0.00    +0.220 C 
ATOM     10  N   UNL     1       2.297   0.798  -0.016  0.00  0.00    -0.223 NA
ATOM     11  C   UNL     1       3.653   1.321  -0.127  0.00  0.00    +0.225 C 
ATOM     12  N   UNL     1       3.757   2.688   0.414  0.00  0.00    -0.313 N 
ATOM     13  C   UNL     1      -0.115   6.502  -0.309  0.00  0.00    -0.035 C 
ATOM     14  H   UNL     1       4.668   3.002   0.945  0.00  0.00    +0.149 HD
ATOM     15  H   UNL     1      -1.238   5.749  -1.915  0.00  0.00    -0.081 HD
ENDROOT
BRANCH  11  16
ATOM     16  C   UNL     1       4.057   1.336  -1.579  0.00  0.00    +0.013 A 
ATOM     17  C   UNL     1       4.862   2.351  -2.062  0.00  0.00    +0.009 A 
ATOM     18  C   UNL     1       5.236   2.363  -3.392  0.00  0.00    +0.000 A 
ATOM     19  C   UNL     1       4.796   1.365  -4.243  0.00  0.00    +0.001 A 
ATOM     20  C   UNL     1       3.987   0.353  -3.763  0.00  0.00    +0.020 A 
ATOM     21  C   UNL     1       3.617   0.338  -2.429  0.00  0.00    +0.048 A 
ATOM     22 CL   UNL     1       2.601  -0.933  -1.825  0.00  0.00    -0.083 Cl
ENDBRANCH  11  16
BRANCH   1  24
ATOM     23  C   UNL     1      -2.620   7.679   0.518  0.00  0.00    -0.014 C 
ATOM     24  C   UNL     1      -2.364   7.187  -0.908  0.00  0.00    -0.074 C 
ATOM     25  C   UNL     1      -1.790   8.330  -1.747  0.00  0.00    -0.014 C 
ENDBRANCH   1  24
BRANCH   9  26
ATOM     26  O   UNL     1      -0.011   0.963   0.007  0.00  0.00    -0.492 OA
ATOM     27  H   UNL     1      -0.111  -0.133   0.007  0.00  0.00    +0.294 HD
ENDBRANCH   9  26
TORSDOF 3
