REMARK  Name = ZINC44594587
REMARK  6 active torsions:
REMARK  status: ('A' for Active; 'I' for Inactive)
REMARK    1  A    between atoms: C_3  and  S_10
REMARK    2  A    between atoms: C_6  and  C_7
REMARK    3  A    between atoms: C_7  and  C_8
REMARK    4  A    between atoms: C_8  and  N_9
REMARK    5  A    between atoms: S_10  and  N_13
REMARK    6  A    between atoms: C_16  and  C_19
REMARK                            x       y       z     vdW  Elec       q    Type
REMARK                         _______ _______ _______ _____ _____    ______ ____
ROOT
ATOM      1  S   UNL     1       3.891   2.312  -0.024  0.00  0.00    +0.101 S 
ATOM      2  O   UNL     1       4.872   1.453  -0.588  0.00  0.00    -0.146 OA
ATOM      3  O   UNL     1       3.597   3.593  -0.566  0.00  0.00    -0.146 OA
ENDROOT
BRANCH   1   4
ATOM      4  N   UNL     1       4.327   2.556   1.555  0.00  0.00    -0.103 NA
ATOM      5  C   UNL     1       5.428   3.208   1.838  0.00  0.00    +0.192 A 
ATOM      6  N   UNL     1       5.972   3.513   3.067  0.00  0.00    -0.336 N 
ATOM      7  C   UNL     1       7.143   4.211   3.105  0.00  0.00    +0.028 A 
ATOM      8  C   UNL     1       7.738   4.586   1.972  0.00  0.00    +0.070 A 
ATOM      9  S   UNL     1       6.629   3.934   0.733  0.00  0.00    -0.057 S 
ATOM     10  H   UNL     1       5.532   3.237   3.886  0.00  0.00    +0.168 HD
BRANCH   7  11
ATOM     11  C   UNL     1       7.766   4.561   4.431  0.00  0.00    +0.036 C 
ATOM     12  C   UNL     1       7.153   3.937   5.686  0.00  0.00    +0.010 C 
ATOM     13  C   UNL     1       6.945   5.424   5.392  0.00  0.00    +0.010 C 
ENDBRANCH   7  11
ENDBRANCH   1   4
BRANCH   1  16
ATOM     14  C   UNL     1      -0.017   1.378   0.010  0.00  0.00    +0.005 A 
ATOM     15  C   UNL     1       1.171   2.086   0.002  0.00  0.00    +0.029 A 
ATOM     16  C   UNL     1       2.377   1.411  -0.013  0.00  0.00    +0.113 A 
ATOM     17  C   UNL     1       2.396   0.029  -0.020  0.00  0.00    +0.029 A 
ATOM     18  C   UNL     1       1.208  -0.679  -0.012  0.00  0.00    +0.005 A 
ATOM     19  C   UNL     1       0.002  -0.004   0.002  0.00  0.00    -0.049 A 
BRANCH  19  20
ATOM     20  C   UNL     1      -1.293  -0.775   0.011  0.00  0.00    +0.015 C 
BRANCH  20  21
ATOM     21  C   UNL     1      -1.745  -1.028  -1.429  0.00  0.00    -0.082 C 
BRANCH  21  22
ATOM     22  N   UNL     1      -3.007  -1.780  -1.420  0.00  0.00    +0.378 N 
ATOM     23  H   UNL     1      -2.870  -2.663  -0.951  0.00  0.00    -0.090 HD
ATOM     24  H   UNL     1      -3.713  -1.247  -0.935  0.00  0.00    -0.090 HD
ATOM     25  H   UNL     1      -3.305  -1.947  -2.370  0.00  0.00    -0.090 HD
ENDBRANCH  21  22
ENDBRANCH  20  21
ENDBRANCH  19  20
ENDBRANCH   1  16
TORSDOF 6
