REMARK  Name = ZINC42908352
REMARK  9 active torsions:
REMARK  status: ('A' for Active; 'I' for Inactive)
REMARK    1  A    between atoms: C_1  and  C_2
REMARK    2  A    between atoms: C_2  and  C_25
REMARK    3  A    between atoms: C_4  and  N_10
REMARK    4  A    between atoms: C_6  and  C_8
REMARK    5  A    between atoms: C_6  and  C_9
REMARK    6  A    between atoms: N_13  and  C_14
REMARK    7  A    between atoms: C_16  and  C_22
REMARK    8  A    between atoms: C_19  and  O_20
REMARK    9  A    between atoms: O_20  and  C_21
REMARK                            x       y       z     vdW  Elec       q    Type
REMARK                         _______ _______ _______ _____ _____    ______ ____
ROOT
ATOM      1  N   UNL     1      -3.544  -0.909   0.996  0.00  0.00    -0.296 N 
ATOM      2  C   UNL     1      -4.547  -0.469   1.780  0.00  0.00    +0.304 C 
ATOM      3  O   UNL     1      -4.334   0.388   2.616  0.00  0.00    -0.252 OA
ATOM      4  N   UNL     1      -5.787  -0.978   1.638  0.00  0.00    -0.266 N 
ATOM      5  H   UNL     1      -3.714  -1.593   0.329  0.00  0.00    +0.151 HD
ATOM      6  H   UNL     1      -5.972  -1.613   0.929  0.00  0.00    +0.156 HD
ENDROOT
BRANCH   1  10
ATOM      7  C   UNL     1      -0.038   1.560  -0.007  0.00  0.00    -0.010 C 
ATOM      8  C   UNL     1      -0.010   0.029  -0.022  0.00  0.00    -0.072 C 
ATOM      9  C   UNL     1      -1.430  -0.511  -0.164  0.00  0.00    +0.009 C 
ATOM     10  C   UNL     1      -2.193  -0.355   1.151  0.00  0.00    +0.072 C 
ATOM     11  C   UNL     1      -1.447  -1.139   2.231  0.00  0.00    +0.009 C 
ATOM     12  C   UNL     1      -0.028  -0.605   2.391  0.00  0.00    -0.072 C 
ATOM     13  N   UNL     1       0.692  -0.498   1.134  0.00  0.00    +0.386 N 
ATOM     14  C   UNL     1       0.741  -1.600   3.291  0.00  0.00    -0.010 C 
ATOM     15  C   UNL     1      -0.059   0.737   3.130  0.00  0.00    -0.010 C 
ATOM     16  C   UNL     1       0.774  -0.398  -1.284  0.00  0.00    -0.010 C 
ATOM     17  H   UNL     1       1.054  -1.427   0.893  0.00  0.00    -0.084 HD
ATOM     18  H   UNL     1       1.528   0.074   1.290  0.00  0.00    -0.084 HD
ENDBRANCH   1  10
BRANCH   4  19
ATOM     19  C   UNL     1      -6.809  -0.588   2.514  0.00  0.00    +0.077 A 
ATOM     20  C   UNL     1      -6.845   0.704   3.005  0.00  0.00    +0.040 A 
ATOM     21  C   UNL     1      -7.866   1.088   3.878  0.00  0.00    +0.038 A 
ATOM     22  C   UNL     1      -8.846   0.165   4.252  0.00  0.00    +0.017 A 
ATOM     23  C   UNL     1      -8.805  -1.122   3.760  0.00  0.00    +0.048 A 
ATOM     24  C   UNL     1      -7.795  -1.503   2.888  0.00  0.00    +0.141 A 
BRANCH  21  25
ATOM     25  C   UNL     1      -7.909   2.466   4.405  0.00  0.00    +0.242 C 
ATOM     26  O   UNL     1      -7.056   3.268   4.080  0.00  0.00    -0.270 OA
ATOM     27  N   UNL     1      -8.895   2.835   5.248  0.00  0.00    -0.325 N 
ATOM     28  H   UNL     1      -9.576   2.195   5.507  0.00  0.00    +0.145 HD
ATOM     29  H   UNL     1      -8.923   3.740   5.594  0.00  0.00    +0.145 HD
ENDBRANCH  21  25
BRANCH  24  30
ATOM     30  O   UNL     1      -7.762  -2.771   2.401  0.00  0.00    -0.493 OA
ATOM     31  C   UNL     1      -8.801  -3.655   2.825  0.00  0.00    +0.277 C 
ENDBRANCH  24  30
ENDBRANCH   4  19
TORSDOF 4
