REMARK  Name = ZINC48858359
REMARK  5 active torsions:
REMARK  status: ('A' for Active; 'I' for Inactive)
REMARK    1  A    between atoms: C_7  and  N_14
REMARK    2  A    between atoms: C_8  and  C_11
REMARK    3  A    between atoms: C_11  and  N_13
REMARK    4  A    between atoms: C_19  and  C_21
REMARK    5  A    between atoms: C_21  and  O_22
REMARK                            x       y       z     vdW  Elec       q    Type
REMARK                         _______ _______ _______ _____ _____    ______ ____
ROOT
ATOM      1  C   UNL     1      -0.016   1.359   0.009  0.00  0.00    +0.001 A 
ATOM      2  C   UNL     1       1.170   2.087   0.002  0.00  0.00    +0.002 A 
ATOM      3  C   UNL     1       2.379   1.460  -0.013  0.00  0.00    +0.026 A 
ATOM      4  C   UNL     1       2.438   0.057  -0.021  0.00  0.00    +0.048 A 
ATOM      5  C   UNL     1       1.230  -0.681  -0.013  0.00  0.00    +0.020 A 
ATOM      6  C   UNL     1       0.002  -0.004   0.002  0.00  0.00    +0.012 A 
ATOM      7  C   UNL     1       1.287  -2.095  -0.021  0.00  0.00    +0.050 A 
ATOM      8  C   UNL     1       2.555  -2.697  -0.037  0.00  0.00    +0.040 A 
ATOM      9  C   UNL     1       3.701  -1.886  -0.043  0.00  0.00    +0.095 A 
ATOM     10  N   UNL     1       3.617  -0.580  -0.035  0.00  0.00    -0.360 N 
ATOM     11  H   UNL     1       4.434  -0.056  -0.040  0.00  0.00    +0.165 HD
ENDROOT
BRANCH   7  12
ATOM     12  N   UNL     1       0.138  -2.855  -0.014  0.00  0.00    -0.324 N 
ATOM     13  C   UNL     1      -0.478  -3.269   1.254  0.00  0.00    +0.105 C 
ATOM     14  C   UNL     1      -1.949  -2.842   1.251  0.00  0.00    +0.019 C 
ATOM     15  C   UNL     1      -2.637  -3.404   0.005  0.00  0.00    +0.003 C 
ATOM     16  C   UNL     1      -1.967  -2.838  -1.249  0.00  0.00    +0.025 C 
ATOM     17  C   UNL     1      -0.500  -3.260  -1.274  0.00  0.00    +0.099 C 
BRANCH  17  18
ATOM     18  C   UNL     1       0.207  -2.581  -2.449  0.00  0.00    +0.178 C 
BRANCH  18  19
ATOM     19  O   UNL     1       0.014  -1.167  -2.367  0.00  0.00    -0.393 OA
ATOM     20  H   UNL     1       0.436  -0.671  -3.082  0.00  0.00    +0.209 HD
ENDBRANCH  18  19
ENDBRANCH  17  18
ENDBRANCH   7  12
BRANCH   8  21
ATOM     21  C   UNL     1       2.681  -4.162  -0.045  0.00  0.00    +0.080 C 
ATOM     22  S   UNL     1       1.278  -5.143  -0.037  0.00  0.00    -0.035 S 
BRANCH  21  23
ATOM     23  N   UNL     1       3.902  -4.733  -0.060  0.00  0.00    -0.352 N 
ATOM     24  H   UNL     1       4.697  -4.178  -0.065  0.00  0.00    +0.143 HD
ATOM     25  H   UNL     1       3.986  -5.699  -0.066  0.00  0.00    +0.143 HD
ENDBRANCH  21  23
ENDBRANCH   8  21
TORSDOF 5
