REMARK  Name = ZINC43217904
REMARK  11 active torsions:
REMARK  status: ('A' for Active; 'I' for Inactive)
REMARK    1  A    between atoms: C_1  and  C_2
REMARK    2  A    between atoms: C_2  and  C_3
REMARK    3  A    between atoms: C_3  and  C_4
REMARK    4  A    between atoms: C_4  and  C_5
REMARK    5  A    between atoms: C_5  and  C_7
REMARK    6  A    between atoms: C_5  and  N_29
REMARK    7  A    between atoms: C_9  and  C_12
REMARK    8  A    between atoms: N_14  and  C_15
REMARK    9  A    between atoms: C_23  and  C_25
REMARK   10  A    between atoms: C_26  and  C_27
REMARK   11  A    between atoms: C_26  and  C_28
REMARK                            x       y       z     vdW  Elec       q    Type
REMARK                         _______ _______ _______ _____ _____    ______ ____
ROOT
ATOM      1  C   UNL     1      -2.525  -4.209   0.092  0.00  0.00    +0.182 A 
ATOM      2  N   UNL     1      -2.860  -4.863   1.163  0.00  0.00    -0.210 NA
ATOM      3  C   UNL     1      -2.759  -6.195   0.904  0.00  0.00    +0.163 A 
ATOM      4  C   UNL     1      -2.345  -6.322  -0.386  0.00  0.00    +0.230 A 
ATOM      5  O   UNL     1      -2.209  -5.080  -0.877  0.00  0.00    -0.449 OA
ENDROOT
BRANCH   3   6
ATOM      6  C   UNL     1      -3.046  -7.294   1.845  0.00  0.00    +0.266 C 
ATOM      7  O   UNL     1      -2.916  -8.449   1.487  0.00  0.00    -0.268 OA
ATOM      8  N   UNL     1      -3.451  -7.019   3.100  0.00  0.00    -0.307 N 
ATOM      9  H   UNL     1      -3.554  -6.097   3.385  0.00  0.00    +0.149 HD
BRANCH   8  10
ATOM     10  C   UNL     1      -3.737  -8.119   4.041  0.00  0.00    +0.077 C 
ATOM     11  C   UNL     1      -2.427  -8.577   4.672  0.00  0.00    +0.026 C 
ATOM     12  C   UNL     1      -2.577  -8.939   6.149  0.00  0.00    -0.003 C 
ATOM     13  C   UNL     1      -3.115  -7.747   6.969  0.00  0.00    +0.008 C 
ATOM     14  C   UNL     1      -4.498  -8.222   6.456  0.00  0.00    -0.000 C 
ATOM     15  C   UNL     1      -4.751  -7.633   5.069  0.00  0.00    +0.010 C 
ATOM     16  C   UNL     1      -6.179  -7.932   4.604  0.00  0.00    +0.009 C 
ATOM     17  C   UNL     1      -3.905  -9.631   6.487  0.00  0.00    -0.029 C 
ATOM     18  C   UNL     1      -3.912 -10.263   7.893  0.00  0.00    +0.011 C 
ATOM     19  C   UNL     1      -4.412 -10.622   5.444  0.00  0.00    +0.011 C 
ENDBRANCH   8  10
ENDBRANCH   3   6
BRANCH   1  20
ATOM     20  C   UNL     1      -2.502  -2.708  -0.043  0.00  0.00    +0.013 C 
BRANCH  20  21
ATOM     21  N   UNL     1      -3.135  -2.321  -1.311  0.00  0.00    +0.386 N 
ATOM     22  H   UNL     1      -2.629  -2.735  -2.080  0.00  0.00    -0.089 HD
ATOM     23  H   UNL     1      -4.090  -2.645  -1.323  0.00  0.00    -0.089 HD
ATOM     24  H   UNL     1      -3.119  -1.316  -1.401  0.00  0.00    -0.089 HD
ENDBRANCH  20  21
BRANCH  20  25
ATOM     25  C   UNL     1      -1.053  -2.217  -0.025  0.00  0.00    -0.007 C 
BRANCH  25  26
ATOM     26  C   UNL     1      -1.034  -0.687  -0.036  0.00  0.00    -0.001 C 
BRANCH  26  28
ATOM     27  C   UNL     1       0.434   1.335  -0.028  0.00  0.00    +0.004 C 
ATOM     28  C   UNL     1       0.415  -0.195  -0.017  0.00  0.00    -0.003 C 
ENDBRANCH  26  28
ENDBRANCH  25  26
ENDBRANCH  20  25
ENDBRANCH   1  20
TORSDOF 7
