REMARK  Name = ZINC05809148
REMARK  4 active torsions:
REMARK  status: ('A' for Active; 'I' for Inactive)
REMARK    1  A    between atoms: N_4  and  N_5
REMARK    2  A    between atoms: C_7  and  C_21
REMARK    3  A    between atoms: N_11  and  C_14
REMARK    4  A    between atoms: N_23  and  C_24
REMARK                            x       y       z     vdW  Elec       q    Type
REMARK                         _______ _______ _______ _____ _____    ______ ____
ROOT
ATOM      1  N   UNL     1      -2.355   0.152   0.932  0.00  0.00    -0.170 NA
ATOM      2  C   UNL     1      -1.824   1.097   0.211  0.00  0.00    +0.144 C 
ATOM      3  C   UNL     1      -0.456   1.735   0.374  0.00  0.00    +0.217 C 
ATOM      4  C   UNL     1      -0.399   2.759  -0.739  0.00  0.00    +0.245 C 
ATOM      5  O   UNL     1       0.529   3.502  -0.975  0.00  0.00    -0.274 OA
ATOM      6  N   UNL     1      -1.553   2.701  -1.420  0.00  0.00    -0.204 N 
ATOM      7  C   UNL     1      -2.410   1.788  -0.948  0.00  0.00    +0.274 C 
ATOM      8  O   UNL     1      -3.513   1.563  -1.408  0.00  0.00    -0.268 OA
ENDROOT
BRANCH   1  12
ATOM      9  H   UNL     1      -2.644  -1.569   2.684  0.00  0.00    +0.159 HD
ATOM     10  C   UNL     1      -4.203  -1.321   1.399  0.00  0.00    +0.187 C 
ATOM     11  N   UNL     1      -5.465  -1.783   1.106  0.00  0.00    -0.370 N 
ATOM     12  N   UNL     1      -3.640  -0.319   0.634  0.00  0.00    -0.248 N 
ATOM     13  H   UNL     1      -5.959  -1.405   0.362  0.00  0.00    +0.159 HD
ATOM     14  H   UNL     1      -5.860  -2.487   1.643  0.00  0.00    +0.159 HD
ATOM     15  H   UNL     1      -4.135   0.059  -0.110  0.00  0.00    +0.192 HD
ATOM     16  N   UNL     1      -3.582  -1.877   2.427  0.00  0.00    -0.370 N 
ATOM     17  H   UNL     1      -4.043  -2.620   2.965  0.00  0.00    +0.159 HD
ENDBRANCH   1  12
BRANCH   6  18
ATOM     18  C   UNL     1      -1.835   3.520  -2.522  0.00  0.00    +0.044 A 
ATOM     19  C   UNL     1      -2.009   4.886  -2.348  0.00  0.00    +0.025 A 
ATOM     20  C   UNL     1      -2.282   5.691  -3.436  0.00  0.00    +0.022 A 
ATOM     21  C   UNL     1      -2.392   5.135  -4.699  0.00  0.00    +0.041 A 
ATOM     22  C   UNL     1      -2.224   3.773  -4.875  0.00  0.00    +0.022 A 
ATOM     23  C   UNL     1      -1.946   2.965  -3.790  0.00  0.00    +0.025 A 
ATOM     24 CL   UNL     1      -2.742   6.149  -6.064  0.00  0.00    -0.084 Cl
ENDBRANCH   6  18
BRANCH   3  25
ATOM     25  C   UNL     1       0.632   0.706   0.204  0.00  0.00    +0.235 C 
ATOM     26  O   UNL     1       0.343  -0.456   0.008  0.00  0.00    -0.274 OA
ATOM     27  N   UNL     1       1.926   1.077   0.265  0.00  0.00    -0.285 N 
ATOM     28  H   UNL     1       2.158   2.016   0.347  0.00  0.00    +0.155 HD
BRANCH  27  29
ATOM     29  C   UNL     1       2.935   0.109   0.210  0.00  0.00    +0.033 A 
ATOM     30  C   UNL     1       2.726  -1.146   0.764  0.00  0.00    +0.025 A 
ATOM     31  C   UNL     1       3.722  -2.101   0.704  0.00  0.00    +0.022 A 
ATOM     32  C   UNL     1       4.931  -1.804   0.102  0.00  0.00    +0.041 A 
ATOM     33  C   UNL     1       5.145  -0.552  -0.447  0.00  0.00    +0.022 A 
ATOM     34  C   UNL     1       4.150   0.405  -0.395  0.00  0.00    +0.025 A 
ATOM     35 CL   UNL     1       6.184  -3.005   0.034  0.00  0.00    -0.084 Cl
ENDBRANCH  27  29
ENDBRANCH   3  25
TORSDOF 4
