REMARK  Name = ZINC31155358
REMARK  16 active torsions:
REMARK  status: ('A' for Active; 'I' for Inactive)
REMARK    1  A    between atoms: C_1  and  C_2
REMARK    2  A    between atoms: C_4  and  O_42
REMARK    3  A    between atoms: C_6  and  O_41
REMARK    4  A    between atoms: C_8  and  O_40
REMARK    5  A    between atoms: C_10  and  O_13
REMARK    6  A    between atoms: O_13  and  C_14
REMARK    7  A    between atoms: C_14  and  C_15
REMARK    8  A    between atoms: C_17  and  O_39
REMARK    9  A    between atoms: C_19  and  O_38
REMARK   10  A    between atoms: C_21  and  O_37
REMARK   11  A    between atoms: C_23  and  O_26
REMARK   12  A    between atoms: O_26  and  C_27
REMARK   13  A    between atoms: C_30  and  O_35
REMARK   14  A    between atoms: C_31  and  O_33
REMARK   15  A    between atoms: O_33  and  C_34
REMARK   16  A    between atoms: O_35  and  C_36
REMARK                            x       y       z     vdW  Elec       q    Type
REMARK                         _______ _______ _______ _____ _____    ______ ____
ROOT
ATOM      1  C   UNL     1      -3.679   1.727   2.424  0.00  0.00    +0.179 C 
ATOM      2  C   UNL     1      -4.882   0.780   2.396  0.00  0.00    +0.177 C 
ATOM      3  C   UNL     1      -4.830  -0.060   1.116  0.00  0.00    +0.180 C 
ATOM      4  C   UNL     1      -4.799   0.876  -0.096  0.00  0.00    +0.214 C 
ATOM      5  C   UNL     1      -3.599   1.820   0.029  0.00  0.00    +0.339 C 
ATOM      6  O   UNL     1      -3.693   2.549   1.255  0.00  0.00    -0.331 OA
ENDROOT
BRANCH   4   7
ATOM      7  O   UNL     1      -4.677   0.105  -1.292  0.00  0.00    -0.383 OA
ATOM      8  H   UNL     1      -4.639   0.609  -2.270  0.00  0.00    +0.210 HD
ENDBRANCH   4   7
BRANCH   3   9
ATOM      9  O   UNL     1      -5.986  -0.897   1.044  0.00  0.00    -0.386 OA
ATOM     10  H   UNL     1      -6.122  -1.575   0.189  0.00  0.00    +0.210 HD
ENDBRANCH   3   9
BRANCH   2  11
ATOM     11  O   UNL     1      -6.091   1.541   2.419  0.00  0.00    -0.386 OA
ATOM     12  H   UNL     1      -7.064   1.028   2.403  0.00  0.00    +0.210 HD
ENDBRANCH   2  11
BRANCH   1  13
ATOM     13  C   UNL     1      -3.756   2.612   3.670  0.00  0.00    +0.197 C 
BRANCH  13  14
ATOM     14  O   UNL     1      -2.576   3.414   3.758  0.00  0.00    -0.346 OA
BRANCH  14  20
ATOM     15  C   UNL     1      -4.690   7.034   3.573  0.00  0.00    +0.041 C 
ATOM     16  C   UNL     1      -3.512   6.058   3.603  0.00  0.00    +0.149 C 
ATOM     17  C   UNL     1      -2.198   6.844   3.612  0.00  0.00    +0.174 C 
ATOM     18  C   UNL     1      -1.026   5.862   3.703  0.00  0.00    +0.179 C 
ATOM     19  C   UNL     1      -1.194   4.996   4.955  0.00  0.00    +0.201 C 
ATOM     20  C   UNL     1      -2.547   4.282   4.893  0.00  0.00    +0.282 C 
ATOM     21  O   UNL     1      -3.591   5.251   4.779  0.00  0.00    -0.343 OA
BRANCH  19  22
ATOM     22  O   UNL     1      -1.144   5.824   6.118  0.00  0.00    -0.384 OA
ATOM     23  H   UNL     1      -1.248   5.375   7.117  0.00  0.00    +0.210 HD
ENDBRANCH  19  22
BRANCH  18  24
ATOM     24  O   UNL     1       0.202   6.589   3.786  0.00  0.00    -0.386 OA
ATOM     25  H   UNL     1       1.157   6.049   3.858  0.00  0.00    +0.210 HD
ENDBRANCH  18  24
BRANCH  17  26
ATOM     26  O   UNL     1      -2.090   7.608   2.410  0.00  0.00    -0.387 OA
ATOM     27  H   UNL     1      -1.206   8.240   2.238  0.00  0.00    +0.210 HD
ENDBRANCH  17  26
ENDBRANCH  14  20
ENDBRANCH  13  14
ENDBRANCH   1  13
BRANCH   5  28
ATOM     28  O   UNL     1      -2.391   1.058   0.019  0.00  0.00    -0.461 OA
BRANCH  28  29
ATOM     29  C   UNL     1      -1.222   1.753   0.017  0.00  0.00    +0.128 A 
ATOM     30  C   UNL     1      -1.241   3.140   0.030  0.00  0.00    +0.049 A 
ATOM     31  C   UNL     1      -0.055   3.849   0.022  0.00  0.00    +0.053 A 
ATOM     32  C   UNL     1       1.156   3.176   0.008  0.00  0.00    +0.162 A 
ATOM     33  C   UNL     1       1.177   1.785   0.000  0.00  0.00    +0.165 A 
ATOM     34  C   UNL     1      -0.013   1.076   0.008  0.00  0.00    +0.095 A 
BRANCH  33  35
ATOM     35  O   UNL     1       2.365   1.123  -0.015  0.00  0.00    -0.491 OA
ATOM     36  C   UNL     1       2.311  -0.305  -0.022  0.00  0.00    +0.277 C 
ENDBRANCH  33  35
BRANCH  32  37
ATOM     37  O   UNL     1       2.323   3.876   0.001  0.00  0.00    -0.491 OA
ATOM     38  C   UNL     1       2.226   5.301   0.009  0.00  0.00    +0.277 C 
ENDBRANCH  32  37
ENDBRANCH  28  29
ENDBRANCH   5  28
TORSDOF 13
