REMARK  Name = ZINC58116185
REMARK  7 active torsions:
REMARK  status: ('A' for Active; 'I' for Inactive)
REMARK    1  A    between atoms: C_1  and  C_2
REMARK    2  A    between atoms: C_3  and  C_19
REMARK    3  A    between atoms: C_7  and  C_8
REMARK    4  A    between atoms: C_8  and  C_10
REMARK    5  A    between atoms: C_8  and  N_13
REMARK    6  A    between atoms: C_10  and  C_11
REMARK    7  A    between atoms: C_10  and  C_12
REMARK                            x       y       z     vdW  Elec       q    Type
REMARK                         _______ _______ _______ _____ _____    ______ ____
ROOT
ATOM      1  C   UNL     1      -0.222   1.353  -0.043  0.00  0.00    +0.044 C 
ATOM      2  C   UNL     1       0.158  -0.105  -0.009  0.00  0.00    -0.044 A 
ATOM      3  C   UNL     1       0.286  -0.812  -1.189  0.00  0.00    -0.026 A 
ATOM      4  C   UNL     1       0.636  -2.155  -1.157  0.00  0.00    +0.040 A 
ATOM      5  C   UNL     1       0.857  -2.782   0.063  0.00  0.00    -0.025 A 
ATOM      6  C   UNL     1       0.727  -2.071   1.238  0.00  0.00    +0.007 A 
ATOM      7  C   UNL     1       0.383  -0.732   1.202  0.00  0.00    -0.058 A 
ATOM      8  C   UNL     1       1.237  -4.240   0.097  0.00  0.00    +0.046 C 
ATOM      9  C   UNL     1       0.543  -4.977  -1.049  0.00  0.00    +0.101 C 
ATOM     10  C   UNL     1       0.738  -4.221  -2.336  0.00  0.00    +0.218 C 
ATOM     11  O   UNL     1       0.869  -4.832  -3.375  0.00  0.00    -0.275 OA
ATOM     12  N   UNL     1       0.768  -2.876  -2.347  0.00  0.00    -0.285 N 
ATOM     13  C   UNL     1       0.045  -0.126  -2.510  0.00  0.00    +0.046 C 
ATOM     14  H   UNL     1       0.882  -2.404  -3.186  0.00  0.00    +0.155 HD
ENDROOT
BRANCH   7  15
ATOM     15  C   UNL     1       0.247   0.045   2.487  0.00  0.00    -0.041 C 
BRANCH  15  16
ATOM     16  N   UNL     1       1.438   0.882   2.680  0.00  0.00    +0.383 N 
ATOM     17  H   UNL     1       1.527   1.525   1.907  0.00  0.00    -0.089 HD
ATOM     18  H   UNL     1       1.348   1.402   3.541  0.00  0.00    -0.089 HD
ATOM     19  H   UNL     1       2.258   0.296   2.727  0.00  0.00    -0.089 HD
ENDBRANCH  15  16
BRANCH  15  20
ATOM     20  C   UNL     1       0.113  -0.929   3.660  0.00  0.00    -0.028 C 
ATOM     21  C   UNL     1       0.101  -0.146   4.974  0.00  0.00    +0.006 C 
ATOM     22  C   UNL     1      -1.193  -1.715   3.522  0.00  0.00    +0.006 C 
ENDBRANCH  15  20
ENDBRANCH   7  15
TORSDOF 3
