REMARK  Name = ZINC15479531
REMARK  7 active torsions:
REMARK  status: ('A' for Active; 'I' for Inactive)
REMARK    1  A    between atoms: C_1  and  C_2
REMARK    2  A    between atoms: C_5  and  C_8
REMARK    3  A    between atoms: C_8  and  C_10
REMARK    4  A    between atoms: C_8  and  N_15
REMARK    5  A    between atoms: C_16  and  C_18
REMARK    6  A    between atoms: C_18  and  N_19
REMARK    7  A    between atoms: C_24  and  C_26
REMARK                            x       y       z     vdW  Elec       q    Type
REMARK                         _______ _______ _______ _____ _____    ______ ____
ROOT
ATOM      1  N   UNL     1       1.009  -4.629   1.245  0.00  0.00    -0.306 N 
ATOM      2  C   UNL     1       1.538  -5.858   1.082  0.00  0.00    +0.197 C 
ATOM      3  O   UNL     1       1.186  -6.550   0.150  0.00  0.00    -0.278 OA
ATOM      4  H   UNL     1       1.291  -4.075   1.990  0.00  0.00    +0.150 HD
ENDROOT
BRANCH   1   5
ATOM      5  C   UNL     1       0.010  -4.129   0.297  0.00  0.00    +0.140 C 
BRANCH   5  10
ATOM      6  C   UNL     1       0.080   1.649   0.289  0.00  0.00    +0.044 C 
ATOM      7  C   UNL     1       0.062   0.142   0.291  0.00  0.00    -0.050 A 
ATOM      8  C   UNL     1      -0.086  -0.549  -0.897  0.00  0.00    +0.004 A 
ATOM      9  C   UNL     1      -0.102  -1.931  -0.895  0.00  0.00    +0.006 A 
ATOM     10  C   UNL     1       0.029  -2.622   0.295  0.00  0.00    -0.022 A 
ATOM     11  C   UNL     1       0.177  -1.931   1.483  0.00  0.00    +0.006 A 
ATOM     12  C   UNL     1       0.198  -0.549   1.481  0.00  0.00    +0.004 A 
ENDBRANCH   5  10
BRANCH   5  13
ATOM     13  C   UNL     1      -1.357  -4.614   0.707  0.00  0.00    +0.014 A 
ATOM     14  C   UNL     1      -2.371  -5.064  -0.071  0.00  0.00    +0.013 A 
ATOM     15  C   UNL     1      -3.551  -5.462   0.530  0.00  0.00    +0.008 A 
ATOM     16  C   UNL     1      -3.658  -5.391   1.879  0.00  0.00    +0.045 A 
ATOM     17  S   UNL     1      -2.058  -4.751   2.343  0.00  0.00    -0.099 S 
ENDBRANCH   5  13
ENDBRANCH   1   5
BRANCH   2  18
ATOM     18  C   UNL     1       2.566  -6.372   2.057  0.00  0.00    +0.020 C 
BRANCH  18  19
ATOM     19  N   UNL     1       2.982  -7.724   1.662  0.00  0.00    +0.393 N 
ATOM     20  C   UNL     1       3.704  -7.660   0.386  0.00  0.00    -0.077 C 
ATOM     21  C   UNL     1       4.068  -9.075  -0.070  0.00  0.00    -0.019 C 
ATOM     22  C   UNL     1       4.957  -9.733   0.989  0.00  0.00    -0.003 C 
ATOM     23  C   UNL     1       4.223  -9.728   2.333  0.00  0.00    -0.006 C 
ATOM     24  C   UNL     1       3.853  -8.289   2.700  0.00  0.00    +0.020 C 
ATOM     25  H   UNL     1       2.166  -8.308   1.555  0.00  0.00    -0.080 HD
BRANCH  24  26
ATOM     26  C   UNL     1       3.130  -8.279   4.022  0.00  0.00    +0.197 C 
ATOM     27  O   UNL     1       1.920  -8.356   4.052  0.00  0.00    -0.278 OA
ATOM     28  N   UNL     1       3.828  -8.183   5.171  0.00  0.00    -0.331 N 
ATOM     29  H   UNL     1       4.796  -8.121   5.146  0.00  0.00    +0.145 HD
ATOM     30  H   UNL     1       3.363  -8.177   6.022  0.00  0.00    +0.145 HD
ENDBRANCH  24  26
ENDBRANCH  18  19
ENDBRANCH   2  18
TORSDOF 6
