REMARK  Name = ZINC19489280
REMARK  4 active torsions:
REMARK  status: ('A' for Active; 'I' for Inactive)
REMARK    1  A    between atoms: C_3  and  C_10
REMARK    2  A    between atoms: C_5  and  C_7
REMARK    3  A    between atoms: C_10  and  O_11
REMARK    4  A    between atoms: O_11  and  C_12
REMARK                            x       y       z     vdW  Elec       q    Type
REMARK                         _______ _______ _______ _____ _____    ______ ____
ROOT
ATOM      1  C   UNL     1       1.172   1.783   0.000  0.00  0.00    +0.001 A 
ATOM      2  C   UNL     1       1.155   3.167   0.008  0.00  0.00    +0.007 A 
ATOM      3  C   UNL     1      -0.048   3.849   0.022  0.00  0.00    -0.010 A 
ATOM      4  C   UNL     1      -1.240   3.152   0.029  0.00  0.00    +0.018 A 
ATOM      5  C   UNL     1      -1.229   1.758   0.017  0.00  0.00    +0.012 A 
ATOM      6  C   UNL     1      -0.013   1.076   0.008  0.00  0.00    +0.011 A 
ENDROOT
BRANCH   5   7
ATOM      7  C   UNL     1      -2.504   1.005   0.019  0.00  0.00    +0.094 C 
ATOM      8  N   UNL     1      -3.638   1.645   0.028  0.00  0.00    -0.387 N 
ATOM      9  N   UNL     1      -2.490  -0.373   0.012  0.00  0.00    -0.345 N 
ATOM     10  H   UNL     1      -4.585   1.085   0.030  0.00  0.00    +0.157 HD
ATOM     11  H   UNL     1      -3.437  -0.932   0.013  0.00  0.00    +0.144 HD
ATOM     12  H   UNL     1      -1.532  -0.913   0.004  0.00  0.00    +0.144 HD
ATOM     13  H   UNL     1      -3.649   2.744   0.034  0.00  0.00    +0.157 HD
ENDBRANCH   5   7
BRANCH   3  14
ATOM     14  C   UNL     1      -0.058   5.356   0.030  0.00  0.00    +0.264 C 
BRANCH  14  15
ATOM     15  O   UNL     1      -0.074   5.839  -1.315  0.00  0.00    -0.487 OA
BRANCH  15  16
ATOM     16  C   UNL     1      -0.084   7.187  -1.486  0.00  0.00    +0.122 A 
ATOM     17  C   UNL     1      -0.100   7.725  -2.765  0.00  0.00    +0.046 A 
ATOM     18  C   UNL     1      -0.111   9.096  -2.937  0.00  0.00    +0.005 A 
ATOM     19  C   UNL     1      -0.107   9.932  -1.836  0.00  0.00    +0.015 A 
ATOM     20  C   UNL     1      -0.092   9.399  -0.560  0.00  0.00    +0.021 A 
ATOM     21  C   UNL     1      -0.086   8.027  -0.383  0.00  0.00    +0.061 A 
ATOM     22 BR   UNL     1      -0.087  10.546   0.944  0.00  0.00    -0.050 Br
ENDBRANCH  15  16
ENDBRANCH  14  15
ENDBRANCH   3  14
TORSDOF 4
