REMARK  Name = ZINC01385328
REMARK  7 active torsions:
REMARK  status: ('A' for Active; 'I' for Inactive)
REMARK    1  A    between atoms: C_1  and  C_2
REMARK    2  A    between atoms: C_3  and  C_14
REMARK    3  A    between atoms: C_4  and  C_7
REMARK    4  A    between atoms: N_16  and  N_17
REMARK    5  A    between atoms: C_18  and  C_19
REMARK    6  A    between atoms: C_19  and  O_20
REMARK    7  A    between atoms: O_20  and  C_21
REMARK                            x       y       z     vdW  Elec       q    Type
REMARK                         _______ _______ _______ _____ _____    ______ ____
ROOT
ATOM      1  C   UNL     1      -0.469   2.579   0.205  0.00  0.00    +0.266 C 
ATOM      2  O   UNL     1      -0.675   1.406  -0.042  0.00  0.00    -0.268 OA
ATOM      3  N   UNL     1       0.791   3.017   0.394  0.00  0.00    -0.231 N 
ATOM      4  H   UNL     1       0.956   3.952   0.591  0.00  0.00    +0.173 HD
ENDROOT
BRANCH   1   7
ATOM      5  C   UNL     1      -1.884   4.143  -2.191  0.00  0.00    +0.090 C 
ATOM      6  C   UNL     1      -2.220   4.205  -0.724  0.00  0.00    +0.147 A 
ATOM      7  C   UNL     1      -1.597   3.523   0.290  0.00  0.00    +0.107 A 
ATOM      8  C   UNL     1      -2.333   3.973   1.490  0.00  0.00    +0.127 A 
ATOM      9  N   UNL     1      -3.238   4.805   1.043  0.00  0.00    -0.077 NA
ATOM     10  O   UNL     1      -3.184   4.933  -0.156  0.00  0.00    -0.359 OA
BRANCH   8  11
ATOM     11  C   UNL     1      -2.096   3.570   2.898  0.00  0.00    +0.023 A 
ATOM     12  C   UNL     1      -1.935   2.224   3.222  0.00  0.00    +0.011 A 
ATOM     13  C   UNL     1      -1.714   1.854   4.533  0.00  0.00    +0.001 A 
ATOM     14  C   UNL     1      -1.653   2.816   5.526  0.00  0.00    +0.001 A 
ATOM     15  C   UNL     1      -1.813   4.153   5.211  0.00  0.00    +0.020 A 
ATOM     16  C   UNL     1      -2.028   4.536   3.901  0.00  0.00    +0.050 A 
ATOM     17 CL   UNL     1      -2.220   6.215   3.506  0.00  0.00    -0.083 Cl
ENDBRANCH   8  11
ENDBRANCH   1   7
BRANCH   3  18
ATOM     18  N   UNL     1       1.865   2.120   0.307  0.00  0.00    -0.251 N 
ATOM     19  C   UNL     1       3.146   2.565   0.500  0.00  0.00    +0.120 C 
ATOM     20  H   UNL     1       1.700   1.185   0.111  0.00  0.00    +0.171 HD
ATOM     21  H   UNL     1       4.237   4.223   0.914  0.00  0.00    +0.157 HD
ATOM     22  N   UNL     1       3.302   3.844   0.763  0.00  0.00    -0.387 N 
ATOM     23  H   UNL     1       2.483   4.460   0.816  0.00  0.00    +0.157 HD
BRANCH  19  24
ATOM     24  C   UNL     1       4.300   1.601   0.406  0.00  0.00    +0.299 C 
BRANCH  24  25
ATOM     25  O   UNL     1       5.525   2.299   0.643  0.00  0.00    -0.485 OA
BRANCH  25  26
ATOM     26  C   UNL     1       6.670   1.569   0.595  0.00  0.00    +0.121 A 
ATOM     27  C   UNL     1       6.616   0.208   0.330  0.00  0.00    +0.047 A 
ATOM     28  C   UNL     1       7.782  -0.531   0.277  0.00  0.00    +0.023 A 
ATOM     29  C   UNL     1       9.002   0.084   0.497  0.00  0.00    +0.041 A 
ATOM     30  C   UNL     1       9.058   1.440   0.766  0.00  0.00    +0.023 A 
ATOM     31  C   UNL     1       7.894   2.183   0.816  0.00  0.00    +0.047 A 
ATOM     32 CL   UNL     1      10.466  -0.848   0.435  0.00  0.00    -0.084 Cl
ENDBRANCH  25  26
ENDBRANCH  24  25
ENDBRANCH  19  24
ENDBRANCH   3  18
TORSDOF 6
