REMARK  Name = ZINC39439792
REMARK  10 active torsions:
REMARK  status: ('A' for Active; 'I' for Inactive)
REMARK    1  A    between atoms: C_1  and  C_2
REMARK    2  A    between atoms: C_2  and  O_3
REMARK    3  A    between atoms: O_3  and  C_4
REMARK    4  A    between atoms: C_4  and  C_6
REMARK    5  A    between atoms: C_8  and  N_17
REMARK    6  A    between atoms: C_18  and  C_20
REMARK    7  A    between atoms: C_20  and  S_21
REMARK    8  A    between atoms: S_21  and  C_22
REMARK    9  A    between atoms: N_28  and  N_29
REMARK   10  A    between atoms: C_30  and  C_31
REMARK                            x       y       z     vdW  Elec       q    Type
REMARK                         _______ _______ _______ _____ _____    ______ ____
ROOT
ATOM      1  C   UNL     1      -2.900  -0.566  -3.689  0.00  0.00    +0.168 C 
ENDROOT
BRANCH   1   3
ATOM      2  N   UNL     1      -0.764  -1.801  -3.508  0.00  0.00    -0.301 N 
ATOM      3  C   UNL     1      -1.436  -0.743  -4.002  0.00  0.00    +0.224 C 
ATOM      4  O   UNL     1      -0.863   0.068  -4.699  0.00  0.00    -0.275 OA
ATOM      5  H   UNL     1      -1.222  -2.450  -2.951  0.00  0.00    +0.150 HD
BRANCH   2   7
ATOM      6  C   UNL     1       1.468  -2.353  -2.550  0.00  0.00    +0.155 C 
ATOM      7  C   UNL     1       0.658  -1.973  -3.813  0.00  0.00    +0.153 C 
ATOM      8  S   UNL     1       0.960  -3.493  -4.808  0.00  0.00    -0.106 S 
ATOM      9  C   UNL     1       1.374  -4.595  -3.476  0.00  0.00    -0.013 C 
ATOM     10  C   UNL     1       1.591  -3.849  -2.401  0.00  0.00    -0.044 C 
ATOM     11  C   UNL     1       1.957  -4.487  -1.063  0.00  0.00    +0.032 C 
ATOM     12  C   UNL     1       1.573  -5.966  -1.091  0.00  0.00    +0.005 C 
ATOM     13  C   UNL     1       2.178  -6.628  -2.333  0.00  0.00    +0.005 C 
ATOM     14  C   UNL     1       1.454  -6.094  -3.568  0.00  0.00    +0.042 C 
BRANCH   6  15
ATOM     15  C   UNL     1       0.775  -1.794  -1.334  0.00  0.00    +0.317 C 
ATOM     16  O   UNL     1      -0.116  -2.416  -0.806  0.00  0.00    -0.250 OA
BRANCH  15  17
ATOM     17  O   UNL     1       1.149  -0.604  -0.838  0.00  0.00    -0.464 OA
BRANCH  17  19
ATOM     18  C   UNL     1       1.010   1.227   0.734  0.00  0.00    +0.048 C 
ATOM     19  C   UNL     1       0.449  -0.134   0.317  0.00  0.00    +0.229 C 
ENDBRANCH  17  19
ENDBRANCH  15  17
ENDBRANCH   6  15
ENDBRANCH   2   7
ENDBRANCH   1   3
BRANCH   1  20
ATOM     20  S   UNL     1      -3.513   0.940  -4.492  0.00  0.00    -0.104 S 
BRANCH  20  21
ATOM     21  C   UNL     1      -5.264   1.006  -4.023  0.00  0.00    +0.274 C 
ATOM     22  N   UNL     1      -5.406   1.028  -2.554  0.00  0.00    -0.281 N 
ATOM     23  C   UNL     1      -6.120  -0.126  -2.268  0.00  0.00    +0.231 C 
ATOM     24  N   UNL     1      -6.391  -0.787  -3.420  0.00  0.00    -0.116 NA
ATOM     25  N   UNL     1      -5.954  -0.226  -4.430  0.00  0.00    -0.150 NA
ATOM     26  N   UNL     1      -6.478  -0.518  -1.065  0.00  0.00    -0.247 N 
ATOM     27  H   UNL     1      -5.075   1.695  -1.933  0.00  0.00    +0.152 HD
ATOM     28  H   UNL     1      -6.978  -1.341  -0.952  0.00  0.00    +0.192 HD
BRANCH  26  29
ATOM     29  N   UNL     1      -6.165   0.192  -0.035  0.00  0.00    -0.179 NA
ATOM     30  C   UNL     1      -6.521  -0.198   1.163  0.00  0.00    +0.142 C 
BRANCH  30  31
ATOM     31  C   UNL     1      -6.164   0.611   2.336  0.00  0.00    +0.013 A 
ATOM     32  C   UNL     1      -6.538   0.195   3.619  0.00  0.00    +0.011 A 
ATOM     33  C   UNL     1      -6.199   0.959   4.714  0.00  0.00    +0.001 A 
ATOM     34  C   UNL     1      -5.489   2.137   4.549  0.00  0.00    +0.001 A 
ATOM     35  C   UNL     1      -5.115   2.557   3.285  0.00  0.00    +0.020 A 
ATOM     36  C   UNL     1      -5.442   1.801   2.178  0.00  0.00    +0.050 A 
ATOM     37 CL   UNL     1      -4.965   2.326   0.593  0.00  0.00    -0.083 Cl
ENDBRANCH  30  31
ENDBRANCH  26  29
ENDBRANCH  20  21
ENDBRANCH   1  20
TORSDOF 9
