REMARK  Name = ZINC63175917
REMARK  6 active torsions:
REMARK  status: ('A' for Active; 'I' for Inactive)
REMARK    1  A    between atoms: C_1  and  C_2
REMARK    2  A    between atoms: C_6  and  N_20
REMARK    3  A    between atoms: C_7  and  S_8
REMARK    4  A    between atoms: S_8  and  N_11
REMARK    5  A    between atoms: N_11  and  C_12
REMARK    6  A    between atoms: C_17  and  N_19
REMARK                            x       y       z     vdW  Elec       q    Type
REMARK                         _______ _______ _______ _____ _____    ______ ____
ROOT
ATOM      1  S   UNL     1       1.183   1.007   1.668  0.00  0.00    +0.061 S 
ATOM      2  O   UNL     1       2.415   0.559   2.217  0.00  0.00    -0.153 OA
ATOM      3  O   UNL     1       1.092   2.162   0.844  0.00  0.00    -0.153 OA
ENDROOT
BRANCH   1  10
ATOM      4  C   UNL     1       2.444  -1.738   1.526  0.00  0.00    +0.046 C 
ATOM      5  C   UNL     1       1.180  -1.555   0.727  0.00  0.00    -0.022 A 
ATOM      6  C   UNL     1       0.665  -2.609  -0.005  0.00  0.00    +0.005 A 
ATOM      7  C   UNL     1      -0.494  -2.440  -0.738  0.00  0.00    +0.003 A 
ATOM      8  C   UNL     1      -1.139  -1.218  -0.740  0.00  0.00    +0.035 A 
ATOM      9  C   UNL     1      -0.626  -0.164  -0.007  0.00  0.00    +0.153 A 
ATOM     10  C   UNL     1       0.532  -0.334   0.730  0.00  0.00    +0.138 A 
BRANCH   9  11
ATOM     11  N   UNL     1      -1.317   1.145  -0.009  0.00  0.00    +0.058 N 
ATOM     12  O   UNL     1      -1.826   1.558  -1.025  0.00  0.00    -0.126 OA
ATOM     13  O   UNL     1      -1.372   1.801   1.005  0.00  0.00    -0.126 OA
ENDBRANCH   9  11
ENDBRANCH   1  10
BRANCH   1  14
ATOM     14  N   UNL     1       0.158   1.255   2.945  0.00  0.00    -0.188 NA
ATOM     15  H   UNL     1      -0.341   2.084   3.013  0.00  0.00    +0.148 HD
BRANCH  14  16
ATOM     16  C   UNL     1       0.005   0.222   3.973  0.00  0.00    +0.062 C 
ATOM     17  C   UNL     1       0.910   0.540   5.181  0.00  0.00    +0.019 C 
ATOM     18  C   UNL     1      -0.024   1.281   6.170  0.00  0.00    -0.000 C 
ATOM     19  C   UNL     1      -1.364   0.523   6.006  0.00  0.00    -0.015 C 
ATOM     20  C   UNL     1      -1.441   0.210   4.497  0.00  0.00    -0.056 C 
BRANCH  20  21
ATOM     21  N   UNL     1      -2.042  -1.114   4.286  0.00  0.00    +0.381 N 
ATOM     22  H   UNL     1      -1.504  -1.810   4.781  0.00  0.00    -0.090 HD
ATOM     23  H   UNL     1      -2.989  -1.113   4.633  0.00  0.00    -0.090 HD
ATOM     24  H   UNL     1      -2.044  -1.329   3.300  0.00  0.00    -0.090 HD
ENDBRANCH  20  21
ENDBRANCH  14  16
ENDBRANCH   1  14
TORSDOF 5
