REMARK  Name = ZINC61813347
REMARK  4 active torsions:
REMARK  status: ('A' for Active; 'I' for Inactive)
REMARK    1  A    between atoms: C_4  and  C_17
REMARK    2  A    between atoms: C_6  and  N_7
REMARK    3  A    between atoms: N_7  and  C_8
REMARK    4  A    between atoms: C_17  and  N_19
REMARK                            x       y       z     vdW  Elec       q    Type
REMARK                         _______ _______ _______ _____ _____    ______ ____
ROOT
ATOM      1  C   UNL     1      -0.087   1.420   0.184  0.00  0.00    +0.041 A 
ATOM      2  C   UNL     1       1.086   2.148   0.263  0.00  0.00    +0.085 A 
ATOM      3  N   UNL     1       2.258   1.548   0.251  0.00  0.00    -0.359 N 
ATOM      4  C   UNL     1       2.368   0.226   0.163  0.00  0.00    +0.069 A 
ATOM      5  C   UNL     1       1.233  -0.575   0.080  0.00  0.00    +0.051 A 
ATOM      6  C   UNL     1      -0.023   0.030   0.090  0.00  0.00    +0.035 A 
ATOM      7  H   UNL     1       3.063   2.086   0.307  0.00  0.00    +0.165 HD
ENDROOT
BRANCH   6   8
ATOM      8  N   UNL     1      -1.184  -0.734   0.010  0.00  0.00    -0.314 N 
ATOM      9  H   UNL     1      -1.982  -0.362  -0.397  0.00  0.00    +0.152 HD
BRANCH   8  10
ATOM     10  C   UNL     1      -1.199  -2.038   0.515  0.00  0.00    +0.037 A 
ATOM     11  C   UNL     1      -0.395  -2.374   1.596  0.00  0.00    +0.064 A 
ATOM     12  C   UNL     1      -0.411  -3.664   2.095  0.00  0.00    +0.163 A 
ATOM     13  C   UNL     1      -1.230  -4.621   1.516  0.00  0.00    +0.193 A 
ATOM     14  C   UNL     1      -2.033  -4.287   0.437  0.00  0.00    +0.163 A 
ATOM     15  C   UNL     1      -2.022  -2.997  -0.061  0.00  0.00    +0.064 A 
ATOM     16  F   UNL     1      -2.830  -5.222  -0.127  0.00  0.00    -0.202 F 
ATOM     17  F   UNL     1      -1.245  -5.881   2.004  0.00  0.00    -0.199 F 
ATOM     18  F   UNL     1       0.371  -3.991   3.147  0.00  0.00    -0.202 F 
ENDBRANCH   8  10
ENDBRANCH   6   8
BRANCH   4  19
ATOM     19  C   UNL     1       3.708  -0.398   0.153  0.00  0.00    +0.093 C 
ATOM     20  S   UNL     1       3.951  -1.916   0.907  0.00  0.00    -0.034 S 
BRANCH  19  21
ATOM     21  N   UNL     1       4.739   0.227  -0.451  0.00  0.00    -0.351 N 
ATOM     22  H   UNL     1       4.601   1.087  -0.878  0.00  0.00    +0.143 HD
ATOM     23  H   UNL     1       5.618  -0.183  -0.457  0.00  0.00    +0.143 HD
ENDBRANCH  19  21
ENDBRANCH   4  19
TORSDOF 4
