REMARK  Name = ZINC08566902
REMARK  11 active torsions:
REMARK  status: ('A' for Active; 'I' for Inactive)
REMARK    1  A    between atoms: C_1  and  C_2
REMARK    2  A    between atoms: C_2  and  C_3
REMARK    3  A    between atoms: C_2  and  O_4
REMARK    4  A    between atoms: O_4  and  C_5
REMARK    5  A    between atoms: C_8  and  C_11
REMARK    6  A    between atoms: C_18  and  N_39
REMARK    7  A    between atoms: C_19  and  C_37
REMARK    8  A    between atoms: C_20  and  C_22
REMARK    9  A    between atoms: C_26  and  O_28
REMARK   10  A    between atoms: O_28  and  C_29
REMARK   11  A    between atoms: C_29  and  C_30
REMARK                            x       y       z     vdW  Elec       q    Type
REMARK                         _______ _______ _______ _____ _____    ______ ____
ROOT
ATOM      1  C   UNL     1      -2.296  -0.983   5.883  0.00  0.00    +0.100 A 
ATOM      2  C   UNL     1      -2.062  -1.901   6.911  0.00  0.00    +0.054 A 
ATOM      3  C   UNL     1      -3.003  -1.700   7.879  0.00  0.00    +0.223 A 
ATOM      4  N   UNL     1      -3.802  -0.693   7.473  0.00  0.00    -0.246 N 
ATOM      5  H   UNL     1      -4.560  -0.333   7.960  0.00  0.00    +0.192 HD
ATOM      6  N   UNL     1      -3.341  -0.251   6.223  0.00  0.00    -0.171 NA
ATOM      7  O   UNL     1      -3.048  -2.434   9.020  0.00  0.00    -0.423 OA
ATOM      8  C   UNL     1      -1.975  -3.195   9.316  0.00  0.00    +0.200 C 
ATOM      9  C   UNL     1      -0.985  -3.474   8.438  0.00  0.00    +0.098 C 
ATOM     10  C   UNL     1      -0.992  -2.956   7.021  0.00  0.00    +0.102 C 
ENDROOT
BRANCH   1  14
ATOM     11  C   UNL     1      -0.030  -0.600   2.303  0.00  0.00    +0.121 A 
ATOM     12  C   UNL     1      -1.400  -0.376   2.283  0.00  0.00    +0.046 A 
ATOM     13  C   UNL     1      -2.138  -0.499   3.443  0.00  0.00    +0.013 A 
ATOM     14  C   UNL     1      -1.506  -0.849   4.634  0.00  0.00    +0.003 A 
ATOM     15  C   UNL     1      -0.131  -1.074   4.651  0.00  0.00    +0.013 A 
ATOM     16  C   UNL     1       0.601  -0.954   3.488  0.00  0.00    +0.046 A 
BRANCH  11  17
ATOM     17  O   UNL     1       0.693  -0.477   1.160  0.00  0.00    -0.489 OA
BRANCH  17  19
ATOM     18  C   UNL     1      -0.292   1.273  -0.184  0.00  0.00    +0.051 C 
ATOM     19  C   UNL     1      -0.034  -0.229  -0.045  0.00  0.00    +0.167 C 
ATOM     20  C   UNL     1       0.781  -0.719  -1.243  0.00  0.00    +0.051 C 
ENDBRANCH  17  19
ENDBRANCH  11  17
ENDBRANCH   1  14
BRANCH  10  21
ATOM     21  C   UNL     1      -1.292  -4.085   6.069  0.00  0.00    -0.031 A 
ATOM     22  C   UNL     1      -2.475  -4.792   6.186  0.00  0.00    +0.005 A 
ATOM     23  C   UNL     1      -2.753  -5.828   5.314  0.00  0.00    +0.004 A 
ATOM     24  C   UNL     1      -1.849  -6.159   4.322  0.00  0.00    +0.045 A 
ATOM     25  C   UNL     1      -0.662  -5.452   4.203  0.00  0.00    +0.121 A 
ATOM     26  C   UNL     1      -0.388  -4.408   5.076  0.00  0.00    +0.050 A 
BRANCH  25  27
ATOM     27  O   UNL     1       0.229  -5.776   3.229  0.00  0.00    -0.487 OA
BRANCH  27  28
ATOM     28  C   UNL     1      -0.122  -6.857   2.363  0.00  0.00    +0.267 C 
BRANCH  28  29
ATOM     29  C   UNL     1       0.978  -7.069   1.354  0.00  0.00    +0.025 A 
ATOM     30  C   UNL     1       2.105  -6.270   1.382  0.00  0.00    +0.010 A 
ATOM     31  C   UNL     1       3.114  -6.465   0.457  0.00  0.00    +0.001 A 
ATOM     32  C   UNL     1       2.996  -7.460  -0.496  0.00  0.00    +0.003 A 
ATOM     33  C   UNL     1       1.870  -8.260  -0.525  0.00  0.00    +0.039 A 
ATOM     34  C   UNL     1       0.862  -8.069   0.404  0.00  0.00    +0.130 A 
ATOM     35  F   UNL     1      -0.237  -8.854   0.380  0.00  0.00    -0.205 F 
ENDBRANCH  28  29
ENDBRANCH  27  28
ENDBRANCH  25  27
ENDBRANCH  10  21
BRANCH   8  36
ATOM     36  N   UNL     1      -1.881  -3.716  10.582  0.00  0.00    -0.328 N 
ATOM     37  H   UNL     1      -2.576  -3.533  11.235  0.00  0.00    +0.145 HD
ATOM     38  H   UNL     1      -1.121  -4.267  10.825  0.00  0.00    +0.145 HD
ENDBRANCH   8  36
BRANCH   9  39
ATOM     39  C   UNL     1       0.109  -4.290   8.869  0.00  0.00    +0.101 C 
ATOM     40  N   UNL     1       0.978  -4.938   9.211  0.00  0.00    -0.191 NA
ENDBRANCH   9  39
TORSDOF 9
