REMARK  Name = ZINC43407207
REMARK  3 active torsions:
REMARK  status: ('A' for Active; 'I' for Inactive)
REMARK    1  A    between atoms: C_6  and  S_7
REMARK    2  A    between atoms: S_7  and  C_8
REMARK    3  A    between atoms: C_9  and  C_17
REMARK                            x       y       z     vdW  Elec       q    Type
REMARK                         _______ _______ _______ _____ _____    ______ ____
ROOT
ATOM      1  C   UNL     1      -1.133  -2.301   0.084  0.00  0.00    +0.112 A 
ATOM      2  C   UNL     1      -1.951  -3.421  -0.149  0.00  0.00    +0.045 A 
ATOM      3  C   UNL     1      -1.353  -4.681  -0.229  0.00  0.00    +0.019 A 
ATOM      4  C   UNL     1       0.021  -4.774  -0.076  0.00  0.00    -0.025 A 
ATOM      5  C   UNL     1       0.764  -3.629   0.151  0.00  0.00    +0.046 A 
ATOM      6  N   UNL     1       0.175  -2.446   0.218  0.00  0.00    -0.244 NA
ATOM      7  C   UNL     1       2.229  -3.993   0.283  0.00  0.00    +0.056 C 
ATOM      8  C   UNL     1       2.247  -5.513   0.550  0.00  0.00    +0.011 C 
ATOM      9  C   UNL     1       0.933  -5.981  -0.111  0.00  0.00    +0.037 C 
ENDROOT
BRANCH   2  10
ATOM     10  C   UNL     1      -3.410  -3.268  -0.306  0.00  0.00    +0.097 C 
ATOM     11  N   UNL     1      -3.898  -2.453  -1.241  0.00  0.00    -0.387 N 
ATOM     12  N   UNL     1      -4.240  -3.945   0.488  0.00  0.00    -0.344 N 
ATOM     13  H   UNL     1      -3.299  -2.019  -1.868  0.00  0.00    +0.157 HD
ATOM     14  H   UNL     1      -3.885  -4.537   1.169  0.00  0.00    +0.144 HD
ATOM     15  H   UNL     1      -5.199  -3.844   0.386  0.00  0.00    +0.144 HD
ATOM     16  H   UNL     1      -4.854  -2.293  -1.294  0.00  0.00    +0.157 HD
ENDBRANCH   2  10
BRANCH   1  17
ATOM     17  S   UNL     1      -1.853  -0.697   0.191  0.00  0.00    -0.069 S 
BRANCH  17  23
ATOM     18  C   UNL     1       0.149   0.875  -0.813  0.00  0.00    +0.016 A 
ATOM     19  C   UNL     1       1.234   1.722  -0.700  0.00  0.00    +0.021 A 
ATOM     20  C   UNL     1       1.707   2.080   0.550  0.00  0.00    +0.041 A 
ATOM     21  C   UNL     1       1.094   1.592   1.691  0.00  0.00    +0.021 A 
ATOM     22  C   UNL     1       0.008   0.745   1.585  0.00  0.00    +0.016 A 
ATOM     23  C   UNL     1      -0.468   0.384   0.331  0.00  0.00    +0.014 A 
ATOM     24 CL   UNL     1       3.071   3.145   0.689  0.00  0.00    -0.084 Cl
ENDBRANCH  17  23
ENDBRANCH   1  17
TORSDOF 3
