REMARK  Name = ZINC54793599
REMARK  4 active torsions:
REMARK  status: ('A' for Active; 'I' for Inactive)
REMARK    1  A    between atoms: C_1  and  C_2
REMARK    2  A    between atoms: C_3  and  C_8
REMARK    3  A    between atoms: C_8  and  N_9
REMARK    4  A    between atoms: N_9  and  C_10
REMARK                            x       y       z     vdW  Elec       q    Type
REMARK                         _______ _______ _______ _____ _____    ______ ____
ROOT
ATOM      1  N   UNL     1       1.347   0.066  -2.926  0.00  0.00    -0.337 N 
ATOM      2  H   UNL     1       2.077   0.007  -2.291  0.00  0.00    +0.146 HD
ENDROOT
BRANCH   1   3
ATOM      3  C   UNL     1       1.585   0.531  -4.223  0.00  0.00    +0.047 A 
ATOM      4  C   UNL     1       0.539   0.622  -5.133  0.00  0.00    +0.045 A 
ATOM      5  C   UNL     1       0.778   1.081  -6.414  0.00  0.00    +0.061 A 
ATOM      6  C   UNL     1       2.058   1.450  -6.792  0.00  0.00    +0.061 A 
ATOM      7  C   UNL     1       3.102   1.360  -5.888  0.00  0.00    +0.043 A 
ATOM      8  C   UNL     1       2.868   0.907  -4.603  0.00  0.00    +0.063 A 
ATOM      9 CL   UNL     1       4.176   0.802  -3.467  0.00  0.00    -0.082 Cl
ATOM     10 CL   UNL     1       2.354   2.026  -8.402  0.00  0.00    -0.082 Cl
ATOM     11 CL   UNL     1      -0.529   1.196  -7.552  0.00  0.00    -0.082 Cl
ENDBRANCH   1   3
BRANCH   1  12
ATOM     12  C   UNL     1      -0.006  -0.331  -2.527  0.00  0.00    +0.156 C 
BRANCH  12  15
ATOM     13  C   UNL     1      -0.018   1.503   0.010  0.00  0.00    +0.065 C 
ATOM     14  C   UNL     1       0.002  -0.004   0.002  0.00  0.00    +0.035 A 
ATOM     15  C   UNL     1       0.008  -0.789  -1.092  0.00  0.00    +0.053 A 
ATOM     16  N   UNL     1       0.028  -2.085  -0.650  0.00  0.00    -0.348 N 
ATOM     17  H   UNL     1       0.037  -2.882  -1.202  0.00  0.00    +0.166 HD
ATOM     18  C   UNL     1       0.034  -2.046   0.700  0.00  0.00    +0.171 A 
ATOM     19  N   UNL     1       0.024  -0.798   1.083  0.00  0.00    -0.350 N 
ATOM     20  H   UNL     1       0.029  -0.493   2.004  0.00  0.00    +0.166 HD
ENDBRANCH  12  15
ENDBRANCH   1  12
TORSDOF 3
