REMARK  Name = ZINC59305181
REMARK  10 active torsions:
REMARK  status: ('A' for Active; 'I' for Inactive)
REMARK    1  A    between atoms: C_1  and  C_2
REMARK    2  A    between atoms: C_5  and  C_34
REMARK    3  A    between atoms: N_6  and  C_7
REMARK    4  A    between atoms: C_10  and  C_13
REMARK    5  A    between atoms: N_15  and  N_16
REMARK    6  A    between atoms: C_17  and  C_18
REMARK    7  A    between atoms: C_21  and  C_23
REMARK    8  A    between atoms: C_25  and  C_33
REMARK    9  A    between atoms: C_26  and  C_32
REMARK   10  A    between atoms: C_27  and  N_29
REMARK                            x       y       z     vdW  Elec       q    Type
REMARK                         _______ _______ _______ _____ _____    ______ ____
ROOT
ATOM      1  C   UNL     1      -0.763   1.425   6.434  0.00  0.00    +0.263 C 
ATOM      2  O   UNL     1       0.115   1.114   7.214  0.00  0.00    -0.268 OA
ATOM      3  N   UNL     1      -1.907   1.973   6.889  0.00  0.00    -0.203 N 
ATOM      4  H   UNL     1      -2.607   2.222   6.266  0.00  0.00    +0.178 HD
ENDROOT
BRANCH   1   8
ATOM      5  C   UNL     1      -0.227   0.784   2.271  0.00  0.00    +0.047 A 
ATOM      6  C   UNL     1       0.780   0.428   3.163  0.00  0.00    +0.027 A 
ATOM      7  C   UNL     1       0.610   0.634   4.513  0.00  0.00    +0.015 A 
ATOM      8  C   UNL     1      -0.576   1.203   4.988  0.00  0.00    +0.038 A 
ATOM      9  C   UNL     1      -1.586   1.560   4.088  0.00  0.00    +0.015 A 
ATOM     10  C   UNL     1      -1.406   1.355   2.739  0.00  0.00    +0.027 A 
BRANCH   5  16
ATOM     11  C   UNL     1       0.068   3.033   0.211  0.00  0.00    +0.064 C 
ATOM     12  C   UNL     1       0.084   1.548  -0.045  0.00  0.00    +0.021 A 
ATOM     13  C   UNL     1       0.240   0.957  -1.249  0.00  0.00    +0.023 A 
ATOM     14  C   UNL     1       0.197  -0.434  -1.052  0.00  0.00    +0.028 A 
ATOM     15  C   UNL     1       0.013  -0.651   0.280  0.00  0.00    +0.054 A 
ATOM     16  N   UNL     1      -0.051   0.573   0.902  0.00  0.00    -0.313 N 
BRANCH  15  17
ATOM     17  C   UNL     1      -0.092  -1.970   0.941  0.00  0.00    -0.001 A 
ATOM     18  C   UNL     1      -0.641  -2.071   2.220  0.00  0.00    +0.010 A 
ATOM     19  C   UNL     1      -0.737  -3.304   2.831  0.00  0.00    +0.001 A 
ATOM     20  C   UNL     1      -0.290  -4.439   2.178  0.00  0.00    +0.000 A 
ATOM     21  C   UNL     1       0.255  -4.346   0.909  0.00  0.00    +0.001 A 
ATOM     22  C   UNL     1       0.351  -3.119   0.285  0.00  0.00    +0.010 A 
ENDBRANCH  15  17
ENDBRANCH   5  16
ENDBRANCH   1   8
BRANCH   3  23
ATOM     23  N   UNL     1      -2.070   2.168   8.154  0.00  0.00    -0.184 NA
ATOM     24  C   UNL     1      -3.197   2.708   8.603  0.00  0.00    +0.176 C 
BRANCH  24  25
ATOM     25  C   UNL     1      -3.372   2.917   9.964  0.00  0.00    +0.148 A 
ATOM     26  C   UNL     1      -4.560   3.496  10.611  0.00  0.00    +0.051 A 
ATOM     27  C   UNL     1      -4.298   3.512  11.943  0.00  0.00    +0.050 A 
ATOM     28  C   UNL     1      -3.004   2.968  12.131  0.00  0.00    +0.136 A 
ATOM     29  O   UNL     1      -2.487   2.621  10.940  0.00  0.00    -0.454 OA
BRANCH  28  30
ATOM     30  C   UNL     1      -2.357   2.808  13.382  0.00  0.00    +0.020 A 
ATOM     31  C   UNL     1      -1.063   2.258  13.446  0.00  0.00    +0.015 A 
ATOM     32  C   UNL     1      -0.447   2.108  14.655  0.00  0.00    -0.045 A 
ATOM     33  C   UNL     1      -1.089   2.495  15.823  0.00  0.00    -0.017 A 
ATOM     34  C   UNL     1      -2.364   3.039  15.778  0.00  0.00    +0.130 A 
ATOM     35  C   UNL     1      -3.002   3.204  14.569  0.00  0.00    +0.044 A 
ATOM     36  C   UNL     1      -0.396   2.322  17.150  0.00  0.00    +0.046 C 
ATOM     37  C   UNL     1       0.939   1.519  14.723  0.00  0.00    +0.044 C 
BRANCH  34  38
ATOM     38  N   UNL     1      -3.038   3.447  17.031  0.00  0.00    +0.057 N 
ATOM     39  O   UNL     1      -4.335   3.265  17.170  0.00  0.00    -0.126 OA
ATOM     40  O   UNL     1      -2.341   3.991  18.006  0.00  0.00    -0.126 OA
ENDBRANCH  34  38
ENDBRANCH  28  30
ENDBRANCH  24  25
ENDBRANCH   3  23
TORSDOF 7
