REMARK  Name = ZINC38671039
REMARK  9 active torsions:
REMARK  status: ('A' for Active; 'I' for Inactive)
REMARK    1  A    between atoms: C_1  and  C_2
REMARK    2  A    between atoms: C_5  and  N_9
REMARK    3  A    between atoms: C_7  and  C_8
REMARK    4  A    between atoms: C_11  and  C_16
REMARK    5  A    between atoms: N_18  and  C_19
REMARK    6  A    between atoms: C_19  and  C_20
REMARK    7  A    between atoms: C_20  and  C_22
REMARK    8  A    between atoms: C_20  and  N_33
REMARK    9  A    between atoms: N_31  and  C_32
REMARK                            x       y       z     vdW  Elec       q    Type
REMARK                         _______ _______ _______ _____ _____    ______ ____
ROOT
ATOM      1  C   UNL     1      -0.486  -9.714  -1.957  0.00  0.00    +0.093 C 
ENDROOT
BRANCH   1   4
ATOM      2  C   UNL     1      -0.468  -8.394  -4.005  0.00  0.00    +0.218 C 
ATOM      3  O   UNL     1      -0.948  -7.472  -3.380  0.00  0.00    -0.275 OA
ATOM      4  N   UNL     1      -0.200  -9.561  -3.385  0.00  0.00    -0.316 N 
ATOM      5  H   UNL     1       0.184 -10.298  -3.885  0.00  0.00    +0.149 HD
BRANCH   2   8
ATOM      6  N   UNL     1       0.461  -6.461  -6.956  0.00  0.00    -0.271 N 
ATOM      7  C   UNL     1      -0.560  -6.824  -5.967  0.00  0.00    +0.127 C 
ATOM      8  C   UNL     1      -0.173  -8.236  -5.474  0.00  0.00    +0.101 C 
ATOM      9  C   UNL     1       1.350  -8.256  -5.738  0.00  0.00    +0.110 C 
ATOM     10  C   UNL     1       1.545  -7.249  -6.851  0.00  0.00    +0.221 C 
ATOM     11  O   UNL     1       2.536  -7.164  -7.545  0.00  0.00    -0.275 OA
BRANCH   6  16
ATOM     12  C   UNL     1      -0.102  -2.285 -10.755  0.00  0.00    +0.044 C 
ATOM     13  C   UNL     1       0.047  -3.395  -9.746  0.00  0.00    -0.047 A 
ATOM     14  C   UNL     1       1.248  -4.074  -9.640  0.00  0.00    +0.005 A 
ATOM     15  C   UNL     1       1.388  -5.090  -8.716  0.00  0.00    +0.024 A 
ATOM     16  C   UNL     1       0.323  -5.431  -7.893  0.00  0.00    +0.037 A 
ATOM     17  C   UNL     1      -0.881  -4.747  -8.001  0.00  0.00    +0.027 A 
ATOM     18  C   UNL     1      -1.014  -3.728  -8.924  0.00  0.00    -0.046 A 
ATOM     19  C   UNL     1      -2.318  -2.981  -9.039  0.00  0.00    +0.044 C 
ENDBRANCH   6  16
ENDBRANCH   2   8
ENDBRANCH   1   4
BRANCH   1  20
ATOM     20  C   UNL     1       0.018 -11.078  -1.479  0.00  0.00    -0.020 C 
BRANCH  20  21
ATOM     21  C   UNL     1      -0.741 -12.170  -2.187  0.00  0.00    -0.059 A 
ATOM     22  C   UNL     1      -2.008 -12.521  -1.756  0.00  0.00    +0.004 A 
ATOM     23  C   UNL     1      -2.702 -13.522  -2.404  0.00  0.00    +0.023 A 
ATOM     24  C   UNL     1      -2.128 -14.178  -3.488  0.00  0.00    +0.033 A 
ATOM     25  C   UNL     1      -0.860 -13.825  -3.921  0.00  0.00    -0.026 A 
ATOM     26  C   UNL     1      -0.171 -12.816  -3.267  0.00  0.00    +0.007 A 
ATOM     27  C   UNL     1      -0.211 -14.505  -5.097  0.00  0.00    +0.038 C 
ATOM     28  C   UNL     1      -0.863 -15.864  -5.356  0.00  0.00    +0.024 C 
ATOM     29  C   UNL     1      -2.384 -15.677  -5.436  0.00  0.00    +0.105 C 
ATOM     30  N   UNL     1      -2.847 -15.194  -4.127  0.00  0.00    -0.333 N 
ATOM     31  C   UNL     1      -4.041 -15.769  -3.502  0.00  0.00    +0.129 C 
ENDBRANCH  20  21
BRANCH  20  32
ATOM     32  N   UNL     1      -0.190 -11.196  -0.030  0.00  0.00    +0.385 N 
ATOM     33  C   UNL     1       0.612 -10.181   0.663  0.00  0.00    -0.078 C 
ATOM     34  C   UNL     1       0.336 -10.247   2.167  0.00  0.00    -0.019 C 
ATOM     35  C   UNL     1       0.710 -11.637   2.688  0.00  0.00    -0.004 C 
ATOM     36  C   UNL     1      -0.077 -12.693   1.907  0.00  0.00    -0.019 C 
ATOM     37  C   UNL     1       0.213 -12.536   0.413  0.00  0.00    -0.078 C 
ATOM     38  H   UNL     1      -1.166 -11.053   0.182  0.00  0.00    -0.081 HD
ENDBRANCH  20  32
ENDBRANCH   1  20
TORSDOF 6
