REMARK  Name = ZINC49974358
REMARK  10 active torsions:
REMARK  status: ('A' for Active; 'I' for Inactive)
REMARK    1  A    between atoms: C_1  and  C_2
REMARK    2  A    between atoms: C_2  and  C_4
REMARK    3  A    between atoms: C_2  and  N_17
REMARK    4  A    between atoms: C_4  and  C_6
REMARK    5  A    between atoms: C_7  and  N_16
REMARK    6  A    between atoms: N_8  and  C_15
REMARK    7  A    between atoms: N_11  and  C_14
REMARK    8  A    between atoms: N_17  and  C_18
REMARK    9  A    between atoms: C_18  and  C_20
REMARK   10  A    between atoms: C_18  and  C_26
REMARK                            x       y       z     vdW  Elec       q    Type
REMARK                         _______ _______ _______ _____ _____    ______ ____
ROOT
ATOM      1  C   UNL     1       0.308   0.482   0.071  0.00  0.00    -0.006 C 
ATOM      2  C   UNL     1       0.138  -1.032   0.206  0.00  0.00    -0.000 C 
ENDROOT
BRANCH   2   3
ATOM      3  N   UNL     1       0.973  -1.710  -0.794  0.00  0.00    +0.395 N 
ATOM      4  H   UNL     1       0.638  -1.487  -1.719  0.00  0.00    -0.083 HD
ATOM      5  H   UNL     1       1.929  -1.400  -0.699  0.00  0.00    -0.083 HD
BRANCH   3   6
ATOM      6  C   UNL     1       0.906  -3.162  -0.585  0.00  0.00    +0.028 C 
BRANCH   6   7
ATOM      7  C   UNL     1       1.610  -3.866  -1.716  0.00  0.00    -0.054 A 
ATOM      8  C   UNL     1       2.792  -3.355  -2.219  0.00  0.00    +0.002 A 
ATOM      9  C   UNL     1       3.438  -4.000  -3.257  0.00  0.00    +0.000 A 
ATOM     10  C   UNL     1       2.902  -5.157  -3.792  0.00  0.00    +0.000 A 
ATOM     11  C   UNL     1       1.720  -5.668  -3.289  0.00  0.00    +0.000 A 
ATOM     12  C   UNL     1       1.077  -5.025  -2.248  0.00  0.00    +0.002 A 
ENDBRANCH   6   7
BRANCH   6  13
ATOM     13  C   UNL     1       1.575  -3.514   0.719  0.00  0.00    +0.095 A 
ATOM     14  C   UNL     1       1.143  -4.432   1.602  0.00  0.00    +0.043 A 
ATOM     15  C   UNL     1       2.066  -4.435   2.674  0.00  0.00    +0.041 A 
ATOM     16  C   UNL     1       3.005  -3.518   2.382  0.00  0.00    +0.195 A 
ATOM     17  O   UNL     1       2.706  -2.967   1.194  0.00  0.00    -0.469 OA
ENDBRANCH   6  13
ENDBRANCH   3   6
ENDBRANCH   2   3
BRANCH   2  18
ATOM     18  C   UNL     1      -1.308  -1.396  -0.017  0.00  0.00    +0.158 C 
ATOM     19  O   UNL     1      -1.649  -1.915  -1.061  0.00  0.00    -0.294 OA
BRANCH  18  20
ATOM     20  C   UNL     1      -2.264  -1.136   0.988  0.00  0.00    +0.118 A 
ATOM     21  C   UNL     1      -3.634  -1.353   0.759  0.00  0.00    +0.116 A 
ATOM     22  N   UNL     1      -4.521  -1.086   1.762  0.00  0.00    -0.284 N 
ATOM     23  C   UNL     1      -4.110  -0.623   2.953  0.00  0.00    +0.333 A 
ATOM     24  O   UNL     1      -4.940  -0.401   3.813  0.00  0.00    -0.246 OA
ATOM     25  N   UNL     1      -2.816  -0.396   3.229  0.00  0.00    -0.263 N 
ATOM     26  C   UNL     1      -1.860  -0.634   2.308  0.00  0.00    +0.269 A 
ATOM     27  O   UNL     1      -0.687  -0.432   2.563  0.00  0.00    -0.267 OA
ATOM     28  C   UNL     1      -2.436   0.110   4.550  0.00  0.00    +0.157 C 
ATOM     29  C   UNL     1      -5.951  -1.310   1.534  0.00  0.00    +0.155 C 
BRANCH  21  30
ATOM     30  N   UNL     1      -4.068  -1.821  -0.442  0.00  0.00    -0.344 N 
ATOM     31  H   UNL     1      -3.531  -1.687  -1.238  0.00  0.00    +0.144 HD
ATOM     32  H   UNL     1      -4.916  -2.289  -0.503  0.00  0.00    +0.144 HD
ENDBRANCH  21  30
ENDBRANCH  18  20
ENDBRANCH   2  18
TORSDOF 7
