REMARK  Name = ZINC40679828
REMARK  6 active torsions:
REMARK  status: ('A' for Active; 'I' for Inactive)
REMARK    1  A    between atoms: C_1  and  C_2
REMARK    2  A    between atoms: C_2  and  N_3
REMARK    3  A    between atoms: N_3  and  C_4
REMARK    4  A    between atoms: C_11  and  N_24
REMARK    5  A    between atoms: C_12  and  N_16
REMARK    6  A    between atoms: N_16  and  C_17
REMARK                            x       y       z     vdW  Elec       q    Type
REMARK                         _______ _______ _______ _____ _____    ______ ____
ROOT
ATOM      1  N   UNL     1      -1.391  -0.605  -0.031  0.00  0.00    -0.285 N 
ATOM      2  C   UNL     1      -2.024  -0.815   1.189  0.00  0.00    +0.129 A 
ATOM      3  C   UNL     1      -3.287  -1.410   1.240  0.00  0.00    +0.104 A 
ATOM      4  C   UNL     1      -3.877  -1.597   2.491  0.00  0.00    +0.149 A 
ATOM      5  N   UNL     1      -3.219  -1.206   3.579  0.00  0.00    -0.221 NA
ATOM      6  C   UNL     1      -2.028  -0.648   3.487  0.00  0.00    +0.200 A 
ATOM      7  N   UNL     1      -1.434  -0.458   2.327  0.00  0.00    -0.332 N 
ATOM      8  H   UNL     1      -0.555  -0.047   2.301  0.00  0.00    +0.168 HD
ENDROOT
BRANCH   1   9
ATOM      9  C   UNL     1      -1.501   0.632  -0.672  0.00  0.00    +0.035 A 
ATOM     10  C   UNL     1      -2.325   1.618  -0.144  0.00  0.00    +0.023 A 
ATOM     11  C   UNL     1      -2.431   2.840  -0.779  0.00  0.00    +0.002 A 
ATOM     12  C   UNL     1      -1.719   3.082  -1.940  0.00  0.00    +0.000 A 
ATOM     13  C   UNL     1      -0.898   2.102  -2.468  0.00  0.00    +0.002 A 
ATOM     14  C   UNL     1      -0.783   0.880  -1.835  0.00  0.00    +0.023 A 
ENDBRANCH   1   9
BRANCH   3  15
ATOM     15  N   UNL     1      -3.945  -1.807   0.065  0.00  0.00    -0.353 N 
ATOM     16  H   UNL     1      -3.494  -1.737  -0.791  0.00  0.00    +0.143 HD
ATOM     17  H   UNL     1      -4.851  -2.151   0.109  0.00  0.00    +0.143 HD
ENDBRANCH   3  15
BRANCH   1  19
ATOM     18  C   UNL     1       0.842  -1.593  -0.168  0.00  0.00    +0.025 C 
ATOM     19  C   UNL     1      -0.609  -1.681  -0.645  0.00  0.00    +0.109 C 
ENDBRANCH   1  19
BRANCH   4  20
ATOM     20  N   UNL     1      -5.133  -2.184   2.598  0.00  0.00    -0.295 N 
ATOM     21  H   UNL     1      -5.644  -2.385   1.799  0.00  0.00    +0.154 HD
BRANCH  20  22
ATOM     22  C   UNL     1      -5.659  -2.484   3.859  0.00  0.00    +0.070 A 
ATOM     23  C   UNL     1      -4.815  -2.683   4.948  0.00  0.00    +0.028 A 
ATOM     24  C   UNL     1      -5.383  -2.977   6.176  0.00  0.00    +0.022 A 
ATOM     25  C   UNL     1      -6.759  -3.063   6.281  0.00  0.00    +0.112 A 
ATOM     26  N   UNL     1      -7.533  -2.869   5.231  0.00  0.00    -0.242 NA
ATOM     27  C   UNL     1      -7.034  -2.581   4.044  0.00  0.00    +0.150 A 
ATOM     28 CL   UNL     1      -8.103  -2.329   2.700  0.00  0.00    -0.060 Cl
ENDBRANCH  20  22
ENDBRANCH   4  20
TORSDOF 5
