REMARK  Name = ZINC59276669
REMARK  10 active torsions:
REMARK  status: ('A' for Active; 'I' for Inactive)
REMARK    1  A    between atoms: C_1  and  C_2
REMARK    2  A    between atoms: C_7  and  N_8
REMARK    3  A    between atoms: N_11  and  C_12
REMARK    4  A    between atoms: N_11  and  C_19
REMARK    5  A    between atoms: C_12  and  C_13
REMARK    6  A    between atoms: C_16  and  C_18
REMARK    7  A    between atoms: C_21  and  C_27
REMARK    8  A    between atoms: C_21  and  C_28
REMARK    9  A    between atoms: C_23  and  C_25
REMARK   10  A    between atoms: C_23  and  C_26
REMARK                            x       y       z     vdW  Elec       q    Type
REMARK                         _______ _______ _______ _____ _____    ______ ____
ROOT
ATOM      1  N   UNL     1       0.336  -1.869   3.683  0.00  0.00    -0.269 N 
ATOM      2  C   UNL     1       0.360  -0.522   3.654  0.00  0.00    +0.307 C 
ATOM      3  O   UNL     1       0.412   0.062   2.588  0.00  0.00    -0.252 OA
ATOM      4  N   UNL     1       0.325   0.178   4.805  0.00  0.00    -0.275 N 
ATOM      5  H   UNL     1       0.253  -2.334   4.531  0.00  0.00    +0.156 HD
ENDROOT
BRANCH   4   6
ATOM      6  C   UNL     1       0.269   1.645   4.770  0.00  0.00    +0.075 C 
ATOM      7  C   UNL     1      -0.988   2.083   4.016  0.00  0.00    +0.009 C 
ATOM      8  C   UNL     1      -1.054   3.609   3.961  0.00  0.00    -0.072 C 
ATOM      9  N   UNL     1       0.160   4.191   3.408  0.00  0.00    +0.386 N 
ATOM     10  C   UNL     1       1.434   3.698   3.907  0.00  0.00    -0.072 C 
ATOM     11  C   UNL     1       1.489   2.178   4.020  0.00  0.00    +0.009 C 
ATOM     12  C   UNL     1       2.525   4.123   2.895  0.00  0.00    -0.010 C 
ATOM     13  C   UNL     1       1.799   4.335   5.251  0.00  0.00    -0.010 C 
ATOM     14  C   UNL     1      -1.385   4.174   5.342  0.00  0.00    -0.010 C 
ATOM     15  C   UNL     1      -2.222   3.984   3.021  0.00  0.00    -0.010 C 
ATOM     16  H   UNL     1       0.142   4.064   2.392  0.00  0.00    -0.084 HD
ATOM     17  H   UNL     1       0.126   5.203   3.552  0.00  0.00    -0.084 HD
ENDBRANCH   4   6
BRANCH   1  24
ATOM     18  C   UNL     1       1.310  -4.540   3.816  0.00  0.00    +0.045 C 
ATOM     19  C   UNL     1       0.903  -3.903   2.511  0.00  0.00    -0.029 A 
ATOM     20  C   UNL     1       0.992  -4.621   1.335  0.00  0.00    +0.005 A 
ATOM     21  C   UNL     1       0.619  -4.038   0.138  0.00  0.00    +0.000 A 
ATOM     22  C   UNL     1       0.156  -2.735   0.114  0.00  0.00    +0.002 A 
ATOM     23  C   UNL     1       0.065  -2.012   1.288  0.00  0.00    +0.023 A 
ATOM     24  C   UNL     1       0.433  -2.597   2.492  0.00  0.00    +0.038 A 
ENDBRANCH   1  24
BRANCH   4  25
ATOM     25  C   UNL     1       0.342  -0.524   6.090  0.00  0.00    +0.183 C 
BRANCH  25  26
ATOM     26  C   UNL     1       1.768  -0.711   6.541  0.00  0.00    +0.122 A 
ATOM     27  C   UNL     1       2.470   0.146   7.304  0.00  0.00    +0.046 A 
ATOM     28  C   UNL     1       3.753  -0.422   7.483  0.00  0.00    +0.045 A 
ATOM     29  C   UNL     1       3.758  -1.591   6.818  0.00  0.00    +0.102 A 
ATOM     30  O   UNL     1       2.551  -1.764   6.254  0.00  0.00    -0.463 OA
ATOM     31  C   UNL     1       4.918  -2.548   6.725  0.00  0.00    +0.086 C 
ENDBRANCH  25  26
ENDBRANCH   4  25
TORSDOF 4
