REMARK  Name = ZINC45237941
REMARK  3 active torsions:
REMARK  status: ('A' for Active; 'I' for Inactive)
REMARK    1  A    between atoms: C_9  and  C_12
REMARK    2  A    between atoms: C_12  and  C_13
REMARK    3  A    between atoms: C_13  and  C_14
REMARK                            x       y       z     vdW  Elec       q    Type
REMARK                         _______ _______ _______ _____ _____    ______ ____
ROOT
ATOM      1  C   UNL     1      -0.019   1.536   0.011  0.00  0.00    +0.068 C 
ATOM      2  C   UNL     1       1.412   2.016  -0.001  0.00  0.00    -0.024 C 
ATOM      3  C   UNL     1       2.401   1.351  -0.583  0.00  0.00    -0.003 C 
ATOM      4  C   UNL     1       2.161   0.071  -1.281  0.00  0.00    +0.013 C 
ATOM      5  C   UNL     1       1.017  -0.543  -0.998  0.00  0.00    +0.020 C 
ATOM      6  C   UNL     1       0.002  -0.004   0.002  0.00  0.00    +0.127 C 
ATOM      7  N   UNL     1      -1.144  -0.848   0.226  0.00  0.00    -0.213 NA
ATOM      8  S   UNL     1      -0.072  -0.824   1.628  0.00  0.00    -0.046 S 
ATOM      9  C   UNL     1      -1.105  -2.184  -0.410  0.00  0.00    +0.132 C 
ATOM     10  S   UNL     1       0.280  -2.026  -1.610  0.00  0.00    -0.107 S 
ENDROOT
BRANCH   9  11
ATOM     11  C   UNL     1      -0.809  -3.269   0.627  0.00  0.00    +0.040 C 
BRANCH  11  12
ATOM     12  C   UNL     1      -0.775  -4.636  -0.060  0.00  0.00    +0.098 C 
BRANCH  12  13
ATOM     13  C   UNL     1      -0.483  -5.705   0.961  0.00  0.00    +0.211 C 
ATOM     14  O   UNL     1      -0.318  -5.403   2.124  0.00  0.00    -0.276 OA
ATOM     15  N   UNL     1      -0.405  -6.995   0.583  0.00  0.00    -0.329 N 
ATOM     16  H   UNL     1      -0.538  -7.237  -0.348  0.00  0.00    +0.145 HD
ATOM     17  H   UNL     1      -0.217  -7.684   1.240  0.00  0.00    +0.145 HD
ENDBRANCH  12  13
ENDBRANCH  11  12
ENDBRANCH   9  11
TORSDOF 3
