REMARK  Name = ZINC42952072
REMARK  6 active torsions:
REMARK  status: ('A' for Active; 'I' for Inactive)
REMARK    1  A    between atoms: C_1  and  C_2
REMARK    2  A    between atoms: C_2  and  C_3
REMARK    3  A    between atoms: C_3  and  C_5
REMARK    4  A    between atoms: C_3  and  N_21
REMARK    5  A    between atoms: C_5  and  C_7
REMARK    6  A    between atoms: C_5  and  N_14
REMARK                            x       y       z     vdW  Elec       q    Type
REMARK                         _______ _______ _______ _____ _____    ______ ____
ROOT
ATOM      1  C   UNL     1       0.627  -2.033   1.329  0.00  0.00    +0.073 C 
ENDROOT
BRANCH   1   2
ATOM      2  N   UNL     1       1.437  -2.522   2.453  0.00  0.00    -0.287 NA
ATOM      3  C   UNL     1       1.511  -3.992   2.449  0.00  0.00    +0.104 C 
ATOM      4  C   UNL     1       2.598  -4.432   3.431  0.00  0.00    +0.119 C 
ATOM      5  N   UNL     1       2.403  -3.775   4.720  0.00  0.00    -0.313 N 
ATOM      6  C   UNL     1       1.650  -2.681   4.872  0.00  0.00    +0.227 C 
ATOM      7  O   UNL     1       1.567  -2.181   5.974  0.00  0.00    -0.274 OA
ATOM      8  C   UNL     1       0.901  -2.045   3.735  0.00  0.00    +0.181 C 
ATOM      9  H   UNL     1       2.840  -4.149   5.502  0.00  0.00    +0.149 HD
ENDBRANCH   1   2
BRANCH   1  10
ATOM     10  C   UNL     1       1.260  -2.459   0.030  0.00  0.00    -0.032 A 
ATOM     11  C   UNL     1       2.635  -2.424  -0.112  0.00  0.00    +0.006 A 
ATOM     12  C   UNL     1       3.217  -2.815  -1.303  0.00  0.00    +0.015 A 
ATOM     13  C   UNL     1       2.423  -3.240  -2.353  0.00  0.00    +0.018 A 
ATOM     14  C   UNL     1       1.048  -3.275  -2.211  0.00  0.00    +0.015 A 
ATOM     15  C   UNL     1       0.467  -2.889  -1.017  0.00  0.00    +0.006 A 
ATOM     16 BR   UNL     1       3.219  -3.775  -3.984  0.00  0.00    -0.050 Br
ENDBRANCH   1  10
BRANCH   1  17
ATOM     17  C   UNL     1       0.550  -0.506   1.383  0.00  0.00    -0.053 C 
BRANCH  17  18
ATOM     18  N   UNL     1      -0.179  -0.011   0.208  0.00  0.00    +0.381 N 
ATOM     19  H   UNL     1       0.355  -0.205  -0.626  0.00  0.00    -0.090 HD
ATOM     20  H   UNL     1      -1.075  -0.471   0.148  0.00  0.00    -0.090 HD
ATOM     21  H   UNL     1      -0.318   0.985   0.293  0.00  0.00    -0.090 HD
ENDBRANCH  17  18
BRANCH  17  23
ATOM     22  C   UNL     1       1.891   1.594   1.567  0.00  0.00    +0.002 C 
ATOM     23  C   UNL     1       1.965   0.076   1.388  0.00  0.00    -0.018 C 
ENDBRANCH  17  23
ENDBRANCH   1  17
TORSDOF 5
