REMARK  Name = ZINC36954823
REMARK  7 active torsions:
REMARK  status: ('A' for Active; 'I' for Inactive)
REMARK    1  A    between atoms: C_1  and  C_2
REMARK    2  A    between atoms: C_8  and  N_10
REMARK    3  A    between atoms: N_10  and  C_11
REMARK    4  A    between atoms: C_11  and  C_13
REMARK    5  A    between atoms: C_11  and  C_14
REMARK    6  A    between atoms: C_17  and  S_20
REMARK    7  A    between atoms: S_20  and  N_23
REMARK                            x       y       z     vdW  Elec       q    Type
REMARK                         _______ _______ _______ _____ _____    ______ ____
ROOT
ATOM      1  C   UNL     1       2.756  -0.284   2.525  0.00  0.00    -0.044 C 
ATOM      2  C   UNL     1       4.191   0.245   2.514  0.00  0.00    -0.009 C 
ENDROOT
BRANCH   1   3
ATOM      3  C   UNL     1       2.032   0.251   3.733  0.00  0.00    -0.062 A 
ATOM      4  C   UNL     1       1.516   1.534   3.718  0.00  0.00    +0.004 A 
ATOM      5  C   UNL     1       0.853   2.025   4.827  0.00  0.00    +0.029 A 
ATOM      6  C   UNL     1       0.704   1.233   5.950  0.00  0.00    +0.105 A 
ATOM      7  C   UNL     1       1.218  -0.050   5.965  0.00  0.00    +0.029 A 
ATOM      8  C   UNL     1       1.879  -0.542   4.855  0.00  0.00    +0.004 A 
BRANCH   6   9
ATOM      9  S   UNL     1      -0.142   1.860   7.364  0.00  0.00    +0.056 S 
ATOM     10  O   UNL     1       0.330   1.118   8.480  0.00  0.00    -0.153 OA
ATOM     11  O   UNL     1      -0.051   3.276   7.296  0.00  0.00    -0.153 OA
BRANCH   9  12
ATOM     12  N   UNL     1      -1.743   1.479   7.185  0.00  0.00    -0.204 NA
ATOM     13  H   UNL     1      -2.042   0.996   6.399  0.00  0.00    +0.144 HD
ATOM     14  H   UNL     1      -2.383   1.740   7.866  0.00  0.00    +0.144 HD
ENDBRANCH   9  12
ENDBRANCH   6   9
ENDBRANCH   1   3
BRANCH   1  15
ATOM     15  N   UNL     1       2.063   0.153   1.306  0.00  0.00    +0.385 N 
ATOM     16  H   UNL     1       2.598  -0.126   0.497  0.00  0.00    -0.085 HD
ATOM     17  H   UNL     1       1.968   1.158   1.315  0.00  0.00    -0.085 HD
BRANCH  15  24
ATOM     18  C   UNL     1      -0.191   1.617   0.222  0.00  0.00    +0.006 C 
ATOM     19  C   UNL     1      -0.044   0.102   0.060  0.00  0.00    -0.028 C 
ATOM     20  C   UNL     1      -1.431  -0.541   0.003  0.00  0.00    +0.002 C 
ATOM     21  C   UNL     1      -1.284  -2.056  -0.159  0.00  0.00    +0.000 C 
ATOM     22  C   UNL     1      -0.508  -2.623   1.031  0.00  0.00    -0.002 C 
ATOM     23  C   UNL     1       0.879  -1.979   1.089  0.00  0.00    -0.015 C 
ATOM     24  C   UNL     1       0.732  -0.465   1.250  0.00  0.00    -0.068 C 
ENDBRANCH  15  24
ENDBRANCH   1  15
TORSDOF 5
