REMARK  Name = ZINC24973988
REMARK  9 active torsions:
REMARK  status: ('A' for Active; 'I' for Inactive)
REMARK    1  A    between atoms: C_1  and  N_2
REMARK    2  A    between atoms: N_2  and  C_3
REMARK    3  A    between atoms: N_2  and  S_4
REMARK    4  A    between atoms: S_4  and  C_7
REMARK    5  A    between atoms: N_18  and  C_19
REMARK    6  A    between atoms: N_24  and  C_26
REMARK    7  A    between atoms: C_26  and  C_27
REMARK    8  A    between atoms: C_32  and  O_33
REMARK    9  A    between atoms: O_33  and  C_34
REMARK                            x       y       z     vdW  Elec       q    Type
REMARK                         _______ _______ _______ _____ _____    ______ ____
ROOT
ATOM      1  C   UNL     1      -5.315   9.163  -3.439  0.00  0.00    +0.106 A 
ATOM      2  C   UNL     1      -4.697   8.947  -2.221  0.00  0.00    +0.030 A 
ATOM      3  C   UNL     1      -3.935   7.816  -2.020  0.00  0.00    +0.026 A 
ATOM      4  C   UNL     1      -3.787   6.876  -3.043  0.00  0.00    +0.041 A 
ATOM      5  C   UNL     1      -4.406   7.105  -4.261  0.00  0.00    -0.023 A 
ATOM      6  C   UNL     1      -5.169   8.240  -4.458  0.00  0.00    +0.034 A 
ATOM      7  C   UNL     1      -4.085   5.954  -5.188  0.00  0.00    +0.056 C 
ATOM      8  C   UNL     1      -3.190   5.023  -4.353  0.00  0.00    +0.120 C 
ATOM      9  N   UNL     1      -3.062   5.680  -3.050  0.00  0.00    -0.255 N 
ATOM     10  C   UNL     1      -2.354   5.200  -2.008  0.00  0.00    +0.307 C 
ATOM     11  O   UNL     1      -2.311   5.822  -0.964  0.00  0.00    -0.252 OA
ATOM     12  N   UNL     1      -1.696   4.030  -2.123  0.00  0.00    -0.298 N 
ATOM     13  H   UNL     1      -1.735   3.467  -3.068  0.00  0.00    +0.150 HD
ENDROOT
BRANCH  12  14
ATOM     14  C   UNL     1      -0.927   3.507  -0.991  0.00  0.00    +0.058 C 
ATOM     15  C   UNL     1       0.473   4.127  -0.995  0.00  0.00    +0.018 C 
ATOM     16  C   UNL     1       1.290   3.531   0.155  0.00  0.00    -0.017 C 
ATOM     17  C   UNL     1       1.346   2.010   0.000  0.00  0.00    -0.078 C 
ATOM     18  N   UNL     1      -0.018   1.465   0.010  0.00  0.00    +0.384 N 
ATOM     19  C   UNL     1      -0.806   1.987  -1.113  0.00  0.00    -0.056 C 
ATOM     20  H   UNL     1      -0.503   1.793   0.941  0.00  0.00    -0.081 HD
BRANCH  18  21
ATOM     21  C   UNL     1       0.002  -0.004   0.002  0.00  0.00    -0.039 C 
BRANCH  21  22
ATOM     22  C   UNL     1       0.598  -0.505   1.292  0.00  0.00    -0.022 A 
ATOM     23  C   UNL     1       1.917  -0.914   1.331  0.00  0.00    +0.005 A 
ATOM     24  C   UNL     1       2.465  -1.374   2.515  0.00  0.00    +0.000 A 
ATOM     25  C   UNL     1       1.694  -1.426   3.662  0.00  0.00    +0.004 A 
ATOM     26  C   UNL     1       0.375  -1.018   3.628  0.00  0.00    +0.046 A 
ATOM     27  C   UNL     1      -0.176  -0.552   2.442  0.00  0.00    +0.128 A 
BRANCH  27  28
ATOM     28  O   UNL     1      -1.472  -0.145   2.408  0.00  0.00    -0.434 OA
BRANCH  28  29
ATOM     29  C   UNL     1      -2.209  -0.220   3.630  0.00  0.00    +0.541 C 
ATOM     30  F   UNL     1      -2.243  -1.547   4.073  0.00  0.00    -0.166 F 
ATOM     31  F   UNL     1      -1.590   0.579   4.597  0.00  0.00    -0.166 F 
ENDBRANCH  28  29
ENDBRANCH  27  28
ENDBRANCH  21  22
ENDBRANCH  18  21
ENDBRANCH  12  14
BRANCH   1  32
ATOM     32  S   UNL     1      -6.288  10.610  -3.691  0.00  0.00    +0.060 S 
ATOM     33  O   UNL     1      -5.821  11.581  -2.764  0.00  0.00    -0.153 OA
ATOM     34  O   UNL     1      -6.312  10.844  -5.092  0.00  0.00    -0.153 OA
BRANCH  32  36
ATOM     35  C   UNL     1      -8.276  10.452  -1.864  0.00  0.00    +0.131 C 
ATOM     36  N   UNL     1      -7.840  10.240  -3.246  0.00  0.00    -0.183 NA
ATOM     37  C   UNL     1      -8.777   9.702  -4.236  0.00  0.00    +0.131 C 
ENDBRANCH  32  36
ENDBRANCH   1  32
TORSDOF 7
