REMARK  Name = ZINC12439985
REMARK  9 active torsions:
REMARK  status: ('A' for Active; 'I' for Inactive)
REMARK    1  A    between atoms: C_1  and  C_2
REMARK    2  A    between atoms: C_2  and  C_3
REMARK    3  A    between atoms: C_2  and  C_4
REMARK    4  A    between atoms: C_4  and  N_54
REMARK    5  A    between atoms: C_10  and  C_12
REMARK    6  A    between atoms: C_12  and  C_13
REMARK    7  A    between atoms: N_15  and  C_16
REMARK    8  A    between atoms: C_16  and  C_17
REMARK    9  A    between atoms: C_17  and  O_23
REMARK                            x       y       z     vdW  Elec       q    Type
REMARK                         _______ _______ _______ _____ _____    ______ ____
ROOT
ATOM      1  C   UNL     1      -0.544  -0.723   1.235  0.00  0.00    +0.089 C 
ENDROOT
BRANCH   1   7
ATOM      2  C   UNL     1       1.310  -0.475  -2.020  0.00  0.00    -0.059 C 
ATOM      3  C   UNL     1       0.867   0.946  -2.372  0.00  0.00    +0.085 C 
ATOM      4  N   UNL     1       0.675   1.727  -1.154  0.00  0.00    -0.318 N 
ATOM      5  C   UNL     1       0.523   1.168   0.051  0.00  0.00    +0.200 C 
ATOM      6  O   UNL     1       0.338   1.891   1.008  0.00  0.00    -0.278 OA
ATOM      7  C   UNL     1       0.572  -0.317   0.271  0.00  0.00    +0.028 C 
ATOM      8  H   UNL     1       0.658   2.695  -1.222  0.00  0.00    +0.149 HD
ATOM      9  N   UNL     1       0.370  -1.012  -1.015  0.00  0.00    +0.389 N 
ATOM     10  H   UNL     1      -0.592  -0.851  -1.336  0.00  0.00    -0.081 HD
BRANCH   9  11
ATOM     11  C   UNL     1       0.584  -2.467  -0.844  0.00  0.00    -0.075 C 
BRANCH  11  13
ATOM     12  C   UNL     1      -1.683  -3.027  -1.732  0.00  0.00    +0.005 C 
ATOM     13  C   UNL     1      -0.757  -3.127  -0.518  0.00  0.00    -0.034 C 
ATOM     14  C   UNL     1      -0.530  -4.599  -0.169  0.00  0.00    +0.005 C 
ENDBRANCH  11  13
ENDBRANCH   9  11
ENDBRANCH   1   7
BRANCH   1  15
ATOM     15  C   UNL     1      -1.880  -0.356   0.642  0.00  0.00    +0.212 C 
ATOM     16  O   UNL     1      -1.932   0.218  -0.426  0.00  0.00    -0.276 OA
ATOM     17  N   UNL     1      -3.017  -0.665   1.297  0.00  0.00    -0.313 N 
ATOM     18  H   UNL     1      -2.975  -1.124   2.150  0.00  0.00    +0.149 HD
BRANCH  17  19
ATOM     19  C   UNL     1      -4.315  -0.308   0.719  0.00  0.00    +0.138 C 
BRANCH  19  20
ATOM     20  C   UNL     1      -5.434  -0.769   1.656  0.00  0.00    +0.081 C 
ATOM     21  C   UNL     1      -5.281  -2.265   1.935  0.00  0.00    +0.036 C 
ATOM     22  C   UNL     1      -6.399  -2.726   2.872  0.00  0.00    +0.003 C 
ATOM     23  C   UNL     1      -7.756  -2.466   2.213  0.00  0.00    +0.000 C 
ATOM     24  C   UNL     1      -7.908  -0.970   1.934  0.00  0.00    +0.003 C 
ATOM     25  C   UNL     1      -6.790  -0.509   0.997  0.00  0.00    +0.036 C 
BRANCH  20  26
ATOM     26  O   UNL     1      -5.354  -0.044   2.885  0.00  0.00    -0.387 OA
ATOM     27  H   UNL     1      -4.519  -0.162   3.358  0.00  0.00    +0.210 HD
ENDBRANCH  20  26
ENDBRANCH  19  20
ENDBRANCH  17  19
ENDBRANCH   1  15
TORSDOF 7
