REMARK  Name = ZINC62640173
REMARK  10 active torsions:
REMARK  status: ('A' for Active; 'I' for Inactive)
REMARK    1  A    between atoms: C_1  and  N_2
REMARK    2  A    between atoms: C_5  and  N_8
REMARK    3  A    between atoms: N_8  and  C_9
REMARK    4  A    between atoms: N_8  and  C_10
REMARK    5  A    between atoms: C_10  and  C_11
REMARK    6  A    between atoms: C_11  and  C_13
REMARK    7  A    between atoms: C_11  and  N_19
REMARK    8  A    between atoms: N_19  and  S_20
REMARK    9  A    between atoms: S_20  and  C_23
REMARK   10  A    between atoms: C_27  and  C_29
REMARK                            x       y       z     vdW  Elec       q    Type
REMARK                         _______ _______ _______ _____ _____    ______ ____
ROOT
ATOM      1  C   UNL     1       2.219  -5.805   1.091  0.00  0.00    +0.120 C 
ENDROOT
BRANCH   1   2
ATOM      2  C   UNL     1       3.237  -6.016   2.182  0.00  0.00    -0.028 A 
ATOM      3  C   UNL     1       4.579  -5.806   1.925  0.00  0.00    +0.005 A 
ATOM      4  C   UNL     1       5.512  -5.999   2.926  0.00  0.00    +0.000 A 
ATOM      5  C   UNL     1       5.104  -6.402   4.184  0.00  0.00    +0.000 A 
ATOM      6  C   UNL     1       3.762  -6.611   4.441  0.00  0.00    +0.000 A 
ATOM      7  C   UNL     1       2.828  -6.413   3.441  0.00  0.00    +0.005 A 
ENDBRANCH   1   2
BRANCH   1   8
ATOM      8  N   UNL     1       2.746  -6.321  -0.175  0.00  0.00    -0.181 NA
ATOM      9  H   UNL     1       3.337  -5.771  -0.714  0.00  0.00    +0.149 HD
BRANCH   8  10
ATOM     10  S   UNL     1       2.334  -7.841  -0.685  0.00  0.00    +0.059 S 
ATOM     11  O   UNL     1       2.973  -8.035  -1.940  0.00  0.00    -0.153 OA
ATOM     12  O   UNL     1       2.542  -8.711   0.419  0.00  0.00    -0.153 OA
BRANCH  10  13
ATOM     13  C   UNL     1       0.600  -7.833  -0.999  0.00  0.00    +0.106 A 
ATOM     14  C   UNL     1      -0.287  -8.149   0.013  0.00  0.00    +0.030 A 
ATOM     15  C   UNL     1      -1.647  -8.143  -0.233  0.00  0.00    +0.022 A 
ATOM     16  C   UNL     1      -2.121  -7.820  -1.492  0.00  0.00    +0.053 A 
ATOM     17  C   UNL     1      -1.233  -7.504  -2.505  0.00  0.00    +0.075 A 
ATOM     18  C   UNL     1       0.127  -7.505  -2.256  0.00  0.00    +0.042 A 
ATOM     19 CL   UNL     1      -3.829  -7.813  -1.802  0.00  0.00    -0.083 Cl
BRANCH  17  20
ATOM     20  C   UNL     1      -1.748  -7.152  -3.876  0.00  0.00    +0.419 C 
ATOM     21  F   UNL     1      -0.669  -6.873  -4.722  0.00  0.00    -0.166 F 
ATOM     22  F   UNL     1      -2.477  -8.230  -4.391  0.00  0.00    -0.166 F 
ATOM     23  F   UNL     1      -2.576  -6.028  -3.790  0.00  0.00    -0.166 F 
ENDBRANCH  17  20
ENDBRANCH  10  13
ENDBRANCH   8  10
ENDBRANCH   1   8
BRANCH   1  24
ATOM     24  C   UNL     1       1.925  -4.310   0.950  0.00  0.00    +0.109 C 
BRANCH  24  25
ATOM     25  N   UNL     1       0.891  -4.109  -0.074  0.00  0.00    -0.301 NA
ATOM     26  C   UNL     1       1.437  -4.321  -1.422  0.00  0.00    +0.105 C 
BRANCH  25  31
ATOM     27  C   UNL     1      -2.814   0.094   0.605  0.00  0.00    -0.096 C 
ATOM     28  N   UNL     1      -2.095  -1.179   0.468  0.00  0.00    +0.378 N 
ATOM     29  C   UNL     1      -1.469  -1.245  -0.858  0.00  0.00    -0.078 C 
ATOM     30  C   UNL     1      -0.786  -2.603  -1.037  0.00  0.00    +0.000 C 
ATOM     31  C   UNL     1       0.284  -2.776   0.044  0.00  0.00    +0.053 C 
ATOM     32  C   UNL     1      -0.368  -2.632   1.422  0.00  0.00    +0.000 C 
ATOM     33  C   UNL     1      -1.066  -1.273   1.510  0.00  0.00    -0.078 C 
ATOM     34  H   UNL     1      -2.745  -1.944   0.569  0.00  0.00    -0.082 HD
ENDBRANCH  25  31
ENDBRANCH  24  25
ENDBRANCH   1  24
TORSDOF 8
