REMARK  Name = ZINC60554243
REMARK  5 active torsions:
REMARK  status: ('A' for Active; 'I' for Inactive)
REMARK    1  A    between atoms: C_1  and  N_2
REMARK    2  A    between atoms: C_4  and  C_7
REMARK    3  A    between atoms: C_8  and  C_9
REMARK    4  A    between atoms: N_11  and  C_12
REMARK    5  A    between atoms: C_13  and  C_22
REMARK                            x       y       z     vdW  Elec       q    Type
REMARK                         _______ _______ _______ _____ _____    ______ ____
ROOT
ATOM      1  C   UNL     1       0.101  -8.031  -2.025  0.00  0.00    +0.085 A 
ATOM      2  C   UNL     1       0.115  -9.358  -1.631  0.00  0.00    +0.068 A 
ATOM      3  C   UNL     1       0.126 -10.369  -2.680  0.00  0.00    -0.023 A 
ATOM      4  C   UNL     1       0.126  -9.860  -3.929  0.00  0.00    -0.004 A 
ATOM      5  S   UNL     1       0.093  -8.104  -3.702  0.00  0.00    -0.077 S 
ATOM      6  C   UNL     1       0.154 -10.612  -5.223  0.00  0.00    +0.043 C 
ATOM      7  C   UNL     1      -0.912 -11.714  -5.188  0.00  0.00    +0.005 C 
ATOM      8  C   UNL     1      -0.287 -12.978  -4.605  0.00  0.00    +0.001 C 
ATOM      9  C   UNL     1       0.765 -12.612  -3.560  0.00  0.00    +0.005 C 
ATOM     10  C   UNL     1       0.122 -11.864  -2.396  0.00  0.00    +0.037 C 
ENDROOT
BRANCH   2  11
ATOM     11  C   UNL     1       0.119  -9.732  -0.213  0.00  0.00    +0.244 C 
ATOM     12  O   UNL     1      -0.933  -9.899   0.375  0.00  0.00    -0.270 OA
ATOM     13  N   UNL     1       1.289  -9.891   0.438  0.00  0.00    -0.325 N 
ATOM     14  H   UNL     1       2.127  -9.758  -0.031  0.00  0.00    +0.145 HD
ATOM     15  H   UNL     1       1.292 -10.138   1.376  0.00  0.00    +0.145 HD
ENDBRANCH   2  11
BRANCH   1  18
ATOM     16  C   UNL     1       0.070  -5.677  -1.780  0.00  0.00    +0.241 C 
ATOM     17  O   UNL     1       0.063  -5.561  -2.992  0.00  0.00    -0.270 OA
ATOM     18  N   UNL     1       0.089  -6.903  -1.221  0.00  0.00    -0.276 N 
ATOM     19  H   UNL     1       0.095  -6.996  -0.256  0.00  0.00    +0.156 HD
BRANCH  16  21
ATOM     20  C   UNL     1       0.039  -3.294  -1.518  0.00  0.00    +0.016 C 
ATOM     21  C   UNL     1       0.059  -4.523  -0.957  0.00  0.00    +0.068 C 
BRANCH  20  25
ATOM     22  C   UNL     1      -0.018   1.461   0.010  0.00  0.00    +0.172 C 
ATOM     23  N   UNL     1       0.002  -0.004   0.002  0.00  0.00    -0.274 N 
ATOM     24  C   UNL     1       0.008  -0.783  -1.093  0.00  0.00    +0.116 A 
ATOM     25  C   UNL     1       0.028  -2.098  -0.664  0.00  0.00    +0.013 A 
ATOM     26  C   UNL     1       0.034  -2.074   0.750  0.00  0.00    +0.142 A 
ATOM     27  N   UNL     1       0.025  -0.827   1.133  0.00  0.00    -0.179 NA
ENDBRANCH  20  25
ENDBRANCH  16  21
ENDBRANCH   1  18
TORSDOF 4
