REMARK  Name = ZINC35716609
REMARK  9 active torsions:
REMARK  status: ('A' for Active; 'I' for Inactive)
REMARK    1  A    between atoms: C_1  and  C_2
REMARK    2  A    between atoms: C_3  and  N_22
REMARK    3  A    between atoms: C_7  and  N_8
REMARK    4  A    between atoms: C_9  and  C_11
REMARK    5  A    between atoms: C_11  and  C_13
REMARK    6  A    between atoms: C_11  and  N_14
REMARK    7  A    between atoms: N_14  and  C_15
REMARK    8  A    between atoms: N_14  and  C_16
REMARK    9  A    between atoms: C_16  and  C_17
REMARK                            x       y       z     vdW  Elec       q    Type
REMARK                         _______ _______ _______ _____ _____    ______ ____
ROOT
ATOM      1  N   UNL     1      -0.716  -0.130   2.486  0.00  0.00    -0.287 N 
ATOM      2  C   UNL     1      -0.136  -0.668   3.578  0.00  0.00    +0.203 C 
ATOM      3  O   UNL     1       0.419  -1.744   3.502  0.00  0.00    -0.277 OA
ATOM      4  H   UNL     1      -1.103   0.759   2.531  0.00  0.00    +0.155 HD
ENDROOT
BRANCH   1  11
ATOM      5  C   UNL     1      -2.899   0.326   0.722  0.00  0.00    +0.047 C 
ATOM      6  C   UNL     1      -1.806  -0.660   0.400  0.00  0.00    -0.009 A 
ATOM      7  C   UNL     1      -1.843  -1.375  -0.789  0.00  0.00    +0.029 A 
ATOM      8  C   UNL     1      -0.834  -2.284  -1.083  0.00  0.00    +0.023 A 
ATOM      9  C   UNL     1       0.205  -2.477  -0.192  0.00  0.00    +0.004 A 
ATOM     10  C   UNL     1       0.244  -1.767   0.992  0.00  0.00    +0.024 A 
ATOM     11  C   UNL     1      -0.759  -0.852   1.289  0.00  0.00    +0.038 A 
BRANCH   7  12
ATOM     12  N   UNL     1      -2.892  -1.181  -1.690  0.00  0.00    -0.358 N 
ATOM     13  H   UNL     1      -3.597  -0.546  -1.484  0.00  0.00    +0.142 HD
ATOM     14  H   UNL     1      -2.917  -1.681  -2.521  0.00  0.00    +0.142 HD
ENDBRANCH   7  12
ENDBRANCH   1  11
BRANCH   2  15
ATOM     15  C   UNL     1      -0.178   0.066   4.893  0.00  0.00    +0.016 C 
ATOM     16  C   UNL     1       1.017   1.016   4.985  0.00  0.00    -0.004 C 
BRANCH  15  17
ATOM     17  N   UNL     1      -0.121  -0.902   5.997  0.00  0.00    +0.388 N 
ATOM     18  C   UNL     1      -1.302  -1.773   5.946  0.00  0.00    -0.095 C 
ATOM     19  H   UNL     1       0.714  -1.462   5.910  0.00  0.00    -0.081 HD
BRANCH  17  20
ATOM     20  C   UNL     1      -0.097  -0.183   7.278  0.00  0.00    -0.035 C 
BRANCH  20  21
ATOM     21  C   UNL     1       0.085  -1.168   8.403  0.00  0.00    -0.027 A 
ATOM     22  C   UNL     1       1.233  -1.618   8.966  0.00  0.00    +0.009 A 
ATOM     23  C   UNL     1       1.159  -2.532  10.000  0.00  0.00    +0.008 A 
ATOM     24  C   UNL     1      -0.059  -2.952  10.421  0.00  0.00    +0.045 A 
ATOM     25  S   UNL     1      -1.155  -2.041   9.346  0.00  0.00    -0.103 S 
ENDBRANCH  20  21
ENDBRANCH  17  20
ENDBRANCH  15  17
ENDBRANCH   2  15
TORSDOF 6
