REMARK  Name = ZINC35523153
REMARK  6 active torsions:
REMARK  status: ('A' for Active; 'I' for Inactive)
REMARK    1  A    between atoms: C_4  and  C_7
REMARK    2  A    between atoms: C_8  and  C_9
REMARK    3  A    between atoms: C_9  and  N_10
REMARK    4  A    between atoms: C_16  and  C_18
REMARK    5  A    between atoms: C_18  and  N_19
REMARK    6  A    between atoms: C_27  and  C_29
REMARK                            x       y       z     vdW  Elec       q    Type
REMARK                         _______ _______ _______ _____ _____    ______ ____
ROOT
ATOM      1  C   UNL     1       7.069  -7.821   3.004  0.00  0.00    +0.020 C 
ENDROOT
BRANCH   1   2
ATOM      2  N   UNL     1       7.077  -9.275   3.216  0.00  0.00    +0.395 N 
ATOM      3  C   UNL     1       6.293  -9.597   4.415  0.00  0.00    -0.055 C 
ATOM      4  C   UNL     1       6.027 -11.107   4.474  0.00  0.00    +0.103 C 
ATOM      5  N   UNL     1       7.309 -11.800   4.300  0.00  0.00    -0.353 N 
ATOM      6  C   UNL     1       7.608 -13.095   4.575  0.00  0.00    +0.086 A 
ATOM      7  C   UNL     1       8.907 -13.301   4.266  0.00  0.00    +0.019 A 
ATOM      8  C   UNL     1       9.426 -12.083   3.780  0.00  0.00    +0.021 A 
ATOM      9  C   UNL     1       8.431 -11.185   3.808  0.00  0.00    +0.009 A 
ATOM     10  C   UNL     1       8.465  -9.737   3.385  0.00  0.00    +0.011 C 
ATOM     11  H   UNL     1       6.667  -9.732   2.416  0.00  0.00    -0.080 HD
BRANCH  10  12
ATOM     12  C   UNL     1       9.207  -9.606   2.079  0.00  0.00    -0.054 A 
ATOM     13  C   UNL     1       8.575  -9.920   0.891  0.00  0.00    +0.004 A 
ATOM     14  C   UNL     1       9.254  -9.800  -0.307  0.00  0.00    +0.021 A 
ATOM     15  C   UNL     1      10.567  -9.366  -0.317  0.00  0.00    +0.059 A 
ATOM     16  C   UNL     1      11.201  -9.051   0.873  0.00  0.00    +0.059 A 
ATOM     17  C   UNL     1      10.518  -9.166   2.071  0.00  0.00    +0.023 A 
ATOM     18 CL   UNL     1      12.849  -8.507   0.863  0.00  0.00    -0.082 Cl
ATOM     19 CL   UNL     1      11.421  -9.217  -1.821  0.00  0.00    -0.082 Cl
ENDBRANCH  10  12
ENDBRANCH   1   2
BRANCH   1  26
ATOM     20  N   UNL     1       5.087  -3.681   1.066  0.00  0.00    -0.296 NA
ATOM     21  C   UNL     1       4.085  -4.745   0.914  0.00  0.00    +0.103 C 
ATOM     22  C   UNL     1       4.049  -5.593   2.190  0.00  0.00    +0.123 C 
ATOM     23  N   UNL     1       5.413  -6.060   2.479  0.00  0.00    -0.301 N 
ATOM     24  C   UNL     1       6.497  -5.066   2.511  0.00  0.00    +0.123 C 
ATOM     25  C   UNL     1       6.437  -4.239   1.223  0.00  0.00    +0.103 C 
ATOM     26  C   UNL     1       5.663  -7.364   2.709  0.00  0.00    +0.199 C 
ATOM     27  O   UNL     1       4.758  -8.170   2.679  0.00  0.00    -0.278 OA
BRANCH  20  28
ATOM     28  C   UNL     1       5.033  -2.743  -0.063  0.00  0.00    +0.111 C 
BRANCH  28  30
ATOM     29  C   UNL     1       3.695  -0.685  -0.038  0.00  0.00    +0.005 C 
ATOM     30  C   UNL     1       3.716  -2.010  -0.046  0.00  0.00    -0.011 C 
BRANCH  29  34
ATOM     31  C   UNL     1      -0.017   1.379   0.010  0.00  0.00    +0.000 A 
ATOM     32  C   UNL     1       1.168   2.093   0.002  0.00  0.00    +0.001 A 
ATOM     33  C   UNL     1       2.377   1.429  -0.013  0.00  0.00    +0.008 A 
ATOM     34  C   UNL     1       2.403   0.034  -0.021  0.00  0.00    -0.025 A 
ATOM     35  C   UNL     1       1.204  -0.681  -0.013  0.00  0.00    +0.008 A 
ATOM     36  C   UNL     1       0.002  -0.004   0.002  0.00  0.00    +0.001 A 
ENDBRANCH  29  34
ENDBRANCH  28  30
ENDBRANCH  20  28
ENDBRANCH   1  26
TORSDOF 6
