REMARK  Name = ZINC16577314
REMARK  8 active torsions:
REMARK  status: ('A' for Active; 'I' for Inactive)
REMARK    1  A    between atoms: C_1  and  C_2
REMARK    2  A    between atoms: C_7  and  S_8
REMARK    3  A    between atoms: S_8  and  N_11
REMARK    4  A    between atoms: N_11  and  C_12
REMARK    5  A    between atoms: C_14  and  C_19
REMARK    6  A    between atoms: C_14  and  C_20
REMARK    7  A    between atoms: C_15  and  C_17
REMARK    8  A    between atoms: C_15  and  C_18
REMARK                            x       y       z     vdW  Elec       q    Type
REMARK                         _______ _______ _______ _____ _____    ______ ____
ROOT
ATOM      1  N   UNL     1       0.554   3.115  -3.707  0.00  0.00    -0.187 NA
ATOM      2  H   UNL     1       0.903   2.362  -4.210  0.00  0.00    +0.148 HD
ENDROOT
BRANCH   1   3
ATOM      3  C   UNL     1       0.000   2.906  -2.363  0.00  0.00    +0.074 C 
ATOM      4  C   UNL     1       0.810   1.826  -1.647  0.00  0.00    +0.007 C 
ATOM      5  C   UNL     1       0.242   1.573  -0.252  0.00  0.00    -0.072 C 
ATOM      6  C   UNL     1      -2.042   2.181  -1.100  0.00  0.00    -0.072 C 
ATOM      7  C   UNL     1      -1.446   2.429  -2.483  0.00  0.00    +0.007 C 
ATOM      8  C   UNL     1      -3.380   1.434  -1.296  0.00  0.00    -0.010 C 
ATOM      9  C   UNL     1      -2.366   3.523  -0.434  0.00  0.00    -0.010 C 
ATOM     10  C   UNL     1       0.637   2.726   0.679  0.00  0.00    -0.010 C 
ATOM     11  C   UNL     1       0.910   0.293   0.297  0.00  0.00    -0.010 C 
ATOM     12  N   UNL     1      -1.222   1.316  -0.210  0.00  0.00    +0.386 N 
ATOM     13  H   UNL     1      -1.542   1.458   0.755  0.00  0.00    -0.084 HD
ATOM     14  H   UNL     1      -1.381   0.338  -0.482  0.00  0.00    -0.084 HD
ENDBRANCH   1   3
BRANCH   1  15
ATOM     15  S   UNL     1       0.584   4.635  -4.363  0.00  0.00    +0.059 S 
ATOM     16  O   UNL     1       1.231   4.520  -5.623  0.00  0.00    -0.153 OA
ATOM     17  O   UNL     1      -0.728   5.163  -4.225  0.00  0.00    -0.153 OA
BRANCH  15  24
ATOM     18  C   UNL     1       3.550   4.154  -4.011  0.00  0.00    +0.046 C 
ATOM     19  C   UNL     1       2.979   5.323  -3.249  0.00  0.00    -0.023 A 
ATOM     20  C   UNL     1       3.803   6.096  -2.452  0.00  0.00    +0.020 A 
ATOM     21  C   UNL     1       3.279   7.168  -1.753  0.00  0.00    +0.018 A 
ATOM     22  C   UNL     1       1.932   7.466  -1.851  0.00  0.00    +0.017 A 
ATOM     23  C   UNL     1       1.111   6.695  -2.652  0.00  0.00    +0.030 A 
ATOM     24  C   UNL     1       1.633   5.620  -3.347  0.00  0.00    +0.108 A 
ATOM     25 BR   UNL     1       4.405   8.227  -0.663  0.00  0.00    -0.050 Br
ENDBRANCH  15  24
ENDBRANCH   1  15
TORSDOF 3
