REMARK  Name = ZINC36346750
REMARK  14 active torsions:
REMARK  status: ('A' for Active; 'I' for Inactive)
REMARK    1  A    between atoms: C_1  and  C_2
REMARK    2  A    between atoms: C_2  and  C_3
REMARK    3  A    between atoms: C_3  and  N_4
REMARK    4  A    between atoms: N_4  and  C_5
REMARK    5  A    between atoms: N_4  and  C_27
REMARK    6  A    between atoms: C_5  and  C_6
REMARK    7  A    between atoms: C_7  and  C_26
REMARK    8  A    between atoms: N_9  and  C_19
REMARK    9  A    between atoms: C_10  and  O_11
REMARK   10  A    between atoms: O_11  and  C_12
REMARK   11  A    between atoms: C_27  and  C_28
REMARK   12  A    between atoms: C_28  and  C_30
REMARK   13  A    between atoms: C_28  and  O_37
REMARK   14  A    between atoms: C_30  and  C_31
REMARK                            x       y       z     vdW  Elec       q    Type
REMARK                         _______ _______ _______ _____ _____    ______ ____
ROOT
ATOM      1  C   UNL     1       2.812  -1.861  -1.778  0.00  0.00    +0.021 A 
ATOM      2  C   UNL     1       3.401  -0.634  -2.100  0.00  0.00    +0.065 A 
ATOM      3  N   UNL     1       4.507  -0.512  -1.412  0.00  0.00    -0.168 NA
ATOM      4  N   UNL     1       4.667  -1.660  -0.625  0.00  0.00    -0.200 N 
ATOM      5  C   UNL     1       3.606  -2.477  -0.862  0.00  0.00    +0.225 A 
ATOM      6  C   UNL     1       2.853   0.377  -3.074  0.00  0.00    +0.068 C 
ENDROOT
BRANCH   4   7
ATOM      7  C   UNL     1       5.728  -1.917   0.256  0.00  0.00    +0.069 A 
ATOM      8  C   UNL     1       5.481  -2.507   1.488  0.00  0.00    +0.031 A 
ATOM      9  C   UNL     1       6.527  -2.760   2.354  0.00  0.00    +0.040 A 
ATOM     10  C   UNL     1       7.821  -2.425   1.994  0.00  0.00    +0.124 A 
ATOM     11  C   UNL     1       8.069  -1.836   0.765  0.00  0.00    +0.040 A 
ATOM     12  C   UNL     1       7.027  -1.587  -0.106  0.00  0.00    +0.031 A 
ATOM     13  F   UNL     1       8.843  -2.672   2.842  0.00  0.00    -0.205 F 
ENDBRANCH   4   7
BRANCH   1  14
ATOM     14  C   UNL     1       1.524  -2.402  -2.343  0.00  0.00    -0.036 C 
BRANCH  14  15
ATOM     15  N   UNL     1       0.400  -1.965  -1.504  0.00  0.00    +0.384 N 
ATOM     16  H   UNL     1       0.568  -2.241  -0.548  0.00  0.00    -0.081 HD
BRANCH  15  17
ATOM     17  C   UNL     1       0.273  -0.504  -1.578  0.00  0.00    -0.079 C 
BRANCH  17  19
ATOM     18  C   UNL     1      -0.858   1.492  -0.588  0.00  0.00    +0.002 C 
ATOM     19  C   UNL     1      -0.820  -0.037  -0.614  0.00  0.00    -0.022 C 
ENDBRANCH  17  19
ENDBRANCH  15  17
BRANCH  15  20
ATOM     20  C   UNL     1      -0.840  -2.590  -1.984  0.00  0.00    -0.046 C 
BRANCH  20  21
ATOM     21  C   UNL     1      -0.770  -4.101  -1.759  0.00  0.00    +0.102 C 
BRANCH  21  22
ATOM     22  O   UNL     1      -0.700  -4.372  -0.358  0.00  0.00    -0.393 OA
ATOM     23  H   UNL     1      -1.492  -4.111   0.133  0.00  0.00    +0.210 HD
ENDBRANCH  21  22
BRANCH  21  24
ATOM     24  C   UNL     1      -2.020  -4.762  -2.344  0.00  0.00    +0.064 C 
BRANCH  24  25
ATOM     25  C   UNL     1      -1.895  -6.260  -2.233  0.00  0.00    -0.045 A 
ATOM     26  C   UNL     1      -1.309  -6.982  -3.256  0.00  0.00    +0.004 A 
ATOM     27  C   UNL     1      -1.195  -8.356  -3.154  0.00  0.00    +0.000 A 
ATOM     28  C   UNL     1      -1.665  -9.007  -2.029  0.00  0.00    +0.000 A 
ATOM     29  C   UNL     1      -2.250  -8.285  -1.006  0.00  0.00    +0.000 A 
ATOM     30  C   UNL     1      -2.361  -6.910  -1.106  0.00  0.00    +0.004 A 
ENDBRANCH  24  25
ENDBRANCH  21  24
ENDBRANCH  20  21
ENDBRANCH  15  20
ENDBRANCH  14  15
ENDBRANCH   1  14
BRANCH   5  31
ATOM     31  O   UNL     1       3.382  -3.688  -0.291  0.00  0.00    -0.438 OA
BRANCH  31  32
ATOM     32  C   UNL     1       3.975  -4.776  -0.849  0.00  0.00    +0.131 A 
ATOM     33  C   UNL     1       4.866  -4.618  -1.901  0.00  0.00    +0.049 A 
ATOM     34  C   UNL     1       5.468  -5.725  -2.467  0.00  0.00    +0.042 A 
ATOM     35  C   UNL     1       5.183  -6.992  -1.986  0.00  0.00    +0.124 A 
ATOM     36  C   UNL     1       4.293  -7.151  -0.937  0.00  0.00    +0.042 A 
ATOM     37  C   UNL     1       3.694  -6.045  -0.364  0.00  0.00    +0.049 A 
ATOM     38  F   UNL     1       5.772  -8.073  -2.541  0.00  0.00    -0.205 F 
ENDBRANCH  31  32
ENDBRANCH   5  31
TORSDOF 12
