REMARK  Name = ZINC09824381
REMARK  6 active torsions:
REMARK  status: ('A' for Active; 'I' for Inactive)
REMARK    1  A    between atoms: C_1  and  C_2
REMARK    2  A    between atoms: N_11  and  C_15
REMARK    3  A    between atoms: C_15  and  C_16
REMARK    4  A    between atoms: N_18  and  C_19
REMARK    5  A    between atoms: C_23  and  S_25
REMARK    6  A    between atoms: S_25  and  N_28
REMARK                            x       y       z     vdW  Elec       q    Type
REMARK                         _______ _______ _______ _____ _____    ______ ____
ROOT
ATOM      1  C   UNL     1       5.119  -0.848  -4.157  0.00  0.00    +0.235 C 
ATOM      2  O   UNL     1       4.903  -0.144  -5.122  0.00  0.00    -0.274 OA
ATOM      3  N   UNL     1       4.588  -0.532  -2.960  0.00  0.00    -0.284 N 
ATOM      4  H   UNL     1       4.815  -1.055  -2.175  0.00  0.00    +0.155 HD
ENDROOT
BRANCH   3   5
ATOM      5  C   UNL     1       3.710   0.552  -2.848  0.00  0.00    +0.035 A 
ATOM      6  C   UNL     1       3.898   1.684  -3.631  0.00  0.00    +0.023 A 
ATOM      7  C   UNL     1       3.030   2.752  -3.518  0.00  0.00    +0.004 A 
ATOM      8  C   UNL     1       1.974   2.695  -2.627  0.00  0.00    +0.029 A 
ATOM      9  C   UNL     1       1.783   1.569  -1.847  0.00  0.00    +0.110 A 
ATOM     10  C   UNL     1       2.651   0.500  -1.951  0.00  0.00    +0.052 A 
BRANCH   9  11
ATOM     11  S   UNL     1       0.436   1.502  -0.713  0.00  0.00    +0.073 S 
ATOM     12  O   UNL     1       0.094   2.847  -0.409  0.00  0.00    -0.150 OA
ATOM     13  O   UNL     1       0.796   0.562   0.290  0.00  0.00    -0.150 OA
BRANCH  11  14
ATOM     14  N   UNL     1      -0.855   0.857  -1.525  0.00  0.00    -0.205 N 
ATOM     15  C   UNL     1      -0.806  -0.436  -1.973  0.00  0.00    +0.088 C 
ATOM     16  C   UNL     1      -0.038  -2.552  -2.394  0.00  0.00    +0.114 C 
ATOM     17  C   UNL     1      -1.241  -2.367  -3.348  0.00  0.00    +0.028 C 
ATOM     18  C   UNL     1      -1.926  -1.128  -2.718  0.00  0.00    +0.072 C 
ATOM     19  H   UNL     1      -1.645   1.397  -1.687  0.00  0.00    +0.175 HD
ATOM     20  N   UNL     1       0.212  -1.221  -1.802  0.00  0.00    -0.375 N 
ATOM     21  H   UNL     1       1.078  -0.953  -1.319  0.00  0.00    +0.161 HD
ENDBRANCH  11  14
ENDBRANCH   9  11
ENDBRANCH   3   5
BRANCH   1  22
ATOM     22  C   UNL     1       5.982  -2.076  -4.298  0.00  0.00    +0.214 C 
BRANCH  22  32
ATOM     23  C   UNL     1       7.815  -4.810  -7.269  0.00  0.00    +0.010 C 
ATOM     24  C   UNL     1       7.059  -4.093  -8.390  0.00  0.00    +0.018 C 
ATOM     25  C   UNL     1       5.844  -4.928  -8.800  0.00  0.00    +0.006 C 
ATOM     26  C   UNL     1       5.077  -4.202  -9.906  0.00  0.00    +0.000 C 
ATOM     27  C   UNL     1       4.599  -2.843  -9.390  0.00  0.00    +0.003 C 
ATOM     28  C   UNL     1       5.810  -1.999  -8.982  0.00  0.00    +0.035 C 
ATOM     29  C   UNL     1       6.598  -2.726  -7.898  0.00  0.00    +0.115 C 
ATOM     30  C   UNL     1       5.766  -2.874  -6.645  0.00  0.00    +0.247 C 
ATOM     31  O   UNL     1       4.718  -3.472  -6.526  0.00  0.00    -0.273 OA
ATOM     32  N   UNL     1       6.434  -2.198  -5.687  0.00  0.00    -0.215 N 
ATOM     33  C   UNL     1       7.563  -1.659  -6.161  0.00  0.00    +0.310 C 
ATOM     34  O   UNL     1       8.336  -1.006  -5.486  0.00  0.00    -0.252 OA
ATOM     35  N   UNL     1       7.747  -1.919  -7.469  0.00  0.00    -0.285 N 
ATOM     36  H   UNL     1       8.492  -1.631  -8.020  0.00  0.00    +0.151 HD
ENDBRANCH  22  32
ENDBRANCH   1  22
TORSDOF 5
