REMARK  Name = ZINC35545583
REMARK  9 active torsions:
REMARK  status: ('A' for Active; 'I' for Inactive)
REMARK    1  A    between atoms: C_1  and  N_2
REMARK    2  A    between atoms: N_2  and  C_3
REMARK    3  A    between atoms: C_3  and  C_4
REMARK    4  A    between atoms: C_9  and  C_11
REMARK    5  A    between atoms: C_16  and  C_36
REMARK    6  A    between atoms: N_24  and  C_27
REMARK    7  A    between atoms: C_27  and  C_28
REMARK    8  A    between atoms: C_28  and  O_29
REMARK    9  A    between atoms: O_29  and  C_30
REMARK                            x       y       z     vdW  Elec       q    Type
REMARK                         _______ _______ _______ _____ _____    ______ ____
ROOT
ATOM      1  C   UNL     1      -0.124   0.083  -2.467  0.00  0.00    +0.098 C 
ATOM      2  C   UNL     1      -1.242   1.125  -2.432  0.00  0.00    +0.051 C 
ATOM      3  C   UNL     1      -2.576   0.426  -2.366  0.00  0.00    -0.025 A 
ATOM      4  C   UNL     1      -3.657   1.084  -1.807  0.00  0.00    +0.017 A 
ATOM      5  C   UNL     1      -4.887   0.460  -1.733  0.00  0.00    +0.055 A 
ATOM      6  C   UNL     1      -5.043  -0.826  -2.218  0.00  0.00    +0.014 A 
ATOM      7  C   UNL     1      -3.969  -1.487  -2.780  0.00  0.00    +0.024 A 
ATOM      8  C   UNL     1      -2.729  -0.859  -2.857  0.00  0.00    +0.033 A 
ATOM      9  N   UNL     1      -1.659  -1.552  -3.445  0.00  0.00    -0.329 N 
ATOM     10  C   UNL     1      -0.373  -0.895  -3.620  0.00  0.00    +0.069 C 
ATOM     11  C   UNL     1       0.795  -1.864  -3.706  0.00  0.00    -0.055 C 
ATOM     12  N   UNL     1       0.452  -3.068  -4.460  0.00  0.00    +0.384 N 
ATOM     13  C   UNL     1      -0.641  -3.768  -3.768  0.00  0.00    -0.059 C 
ATOM     14  C   UNL     1      -1.908  -2.925  -3.891  0.00  0.00    +0.087 C 
ATOM     15  H   UNL     1       0.154  -2.812  -5.389  0.00  0.00    -0.082 HD
ENDROOT
BRANCH   1  18
ATOM     16  C   UNL     1       1.150   1.171  -0.178  0.00  0.00    +0.132 C 
ATOM     17  N   UNL     1       0.554  -0.165  -0.101  0.00  0.00    -0.297 N 
ATOM     18  C   UNL     1      -0.102  -0.673  -1.163  0.00  0.00    +0.221 C 
ATOM     19  O   UNL     1      -0.674  -1.738  -1.070  0.00  0.00    -0.275 OA
BRANCH  17  20
ATOM     20  C   UNL     1       0.672  -0.950   1.130  0.00  0.00    +0.181 C 
BRANCH  20  21
ATOM     21  C   UNL     1      -0.499  -0.651   2.030  0.00  0.00    +0.122 A 
ATOM     22  C   UNL     1      -1.671  -1.311   2.040  0.00  0.00    +0.046 A 
ATOM     23  C   UNL     1      -2.475  -0.703   3.032  0.00  0.00    +0.041 A 
ATOM     24  C   UNL     1      -1.746   0.292   3.569  0.00  0.00    +0.195 A 
ATOM     25  O   UNL     1      -0.548   0.315   2.962  0.00  0.00    -0.466 OA
ENDBRANCH  20  21
ENDBRANCH  17  20
ENDBRANCH   1  18
BRANCH   5  26
ATOM     26  C   UNL     1      -6.061   1.180  -1.121  0.00  0.00    +0.417 C 
ATOM     27  F   UNL     1      -6.743   1.889  -2.116  0.00  0.00    -0.166 F 
ATOM     28  F   UNL     1      -6.926   0.249  -0.536  0.00  0.00    -0.166 F 
ATOM     29  F   UNL     1      -5.605   2.071  -0.144  0.00  0.00    -0.166 F 
ENDBRANCH   5  26
BRANCH  12  30
ATOM     30  C   UNL     1       1.625  -3.949  -4.542  0.00  0.00    -0.037 C 
BRANCH  30  31
ATOM     31  C   UNL     1       1.302  -5.148  -5.435  0.00  0.00    +0.210 C 
BRANCH  31  32
ATOM     32  O   UNL     1       1.072  -4.699  -6.772  0.00  0.00    -0.494 OA
BRANCH  32  33
ATOM     33  C   UNL     1       0.770  -5.646  -7.698  0.00  0.00    +0.120 A 
ATOM     34  C   UNL     1       0.691  -6.980  -7.327  0.00  0.00    +0.045 A 
ATOM     35  C   UNL     1       0.383  -7.941  -8.270  0.00  0.00    +0.004 A 
ATOM     36  C   UNL     1       0.155  -7.574  -9.584  0.00  0.00    +0.000 A 
ATOM     37  C   UNL     1       0.235  -6.245  -9.956  0.00  0.00    +0.004 A 
ATOM     38  C   UNL     1       0.536  -5.280  -9.015  0.00  0.00    +0.045 A 
ENDBRANCH  32  33
ENDBRANCH  31  32
ENDBRANCH  30  31
ENDBRANCH  12  30
TORSDOF 8
