REMARK  Name = ZINC35074963
REMARK  7 active torsions:
REMARK  status: ('A' for Active; 'I' for Inactive)
REMARK    1  A    between atoms: C_2  and  N_23
REMARK    2  A    between atoms: N_9  and  C1*_10
REMARK    3  A    between atoms: C2*_12  and  O2*_22
REMARK    4  A    between atoms: C3*_14  and  O3*_21
REMARK    5  A    between atoms: C4*_16  and  C5*_19
REMARK    6  A    between atoms: C5*_19  and  O5*_20
REMARK    7  A    between atoms: N_26  and  C_27
REMARK                            x       y       z     vdW  Elec       q    Type
REMARK                         _______ _______ _______ _____ _____    ______ ____
ROOT
ATOM      1  C   UNL     1       0.484   1.358   0.946  0.00  0.00    +0.122 A 
ATOM      2  C   UNL     1       1.152   2.053  -0.004  0.00  0.00    +0.116 A 
ATOM      3  C   UNL     1       1.849   1.340  -1.017  0.00  0.00    +0.275 A 
ATOM      4  O   UNL     1       2.458   1.942  -1.883  0.00  0.00    -0.266 OA
ATOM      5  N   UNL     1       1.831  -0.008  -1.008  0.00  0.00    -0.273 N 
ATOM      6  H   UNL     1       2.305  -0.501  -1.696  0.00  0.00    +0.173 HD
ATOM      7  C   UNL     1       1.160  -0.673  -0.051  0.00  0.00    +0.331 A 
ATOM      8  O   UNL     1       1.155  -1.889  -0.058  0.00  0.00    -0.246 OA
ATOM      9  N   UNL     1       0.494  -0.014   0.915  0.00  0.00    -0.270 N 
ENDROOT
BRANCH   2  10
ATOM     10  N   UNL     1       1.154   3.460   0.009  0.00  0.00    -0.264 N 
ATOM     11  C   UNL     1       2.320   4.130   0.103  0.00  0.00    +0.304 C 
ATOM     12  O   UNL     1       3.373   3.524   0.091  0.00  0.00    -0.252 OA
ATOM     13  N   UNL     1       2.317   5.474   0.212  0.00  0.00    -0.294 N 
ATOM     14  H   UNL     1       0.318   3.947  -0.049  0.00  0.00    +0.157 HD
ATOM     15  H   UNL     1       1.476   5.958   0.222  0.00  0.00    +0.151 HD
BRANCH  13  16
ATOM     16  C   UNL     1       3.583   6.203   0.314  0.00  0.00    +0.037 C 
ATOM     17  C   UNL     1       4.343   5.734   1.556  0.00  0.00    +0.029 C 
ATOM     18  C   UNL     1       5.666   6.495   1.663  0.00  0.00    -0.008 C 
ATOM     19  C   UNL     1       5.383   7.995   1.775  0.00  0.00    +0.007 C 
ATOM     20  C   UNL     1       4.623   8.464   0.532  0.00  0.00    -0.008 C 
ATOM     21  C   UNL     1       3.301   7.703   0.425  0.00  0.00    +0.029 C 
ATOM     22  C   UNL     1       5.469   8.196  -0.714  0.00  0.00    +0.007 C 
ATOM     23  C   UNL     1       5.751   6.696  -0.826  0.00  0.00    -0.008 C 
ATOM     24  C   UNL     1       6.511   6.227   0.417  0.00  0.00    +0.007 C 
ATOM     25  C   UNL     1       4.429   5.935  -0.932  0.00  0.00    +0.029 C 
ENDBRANCH  13  16
ENDBRANCH   2  10
BRANCH   9  26
ATOM     26  C1* UNL     1      -0.228  -0.768   1.943  0.00  0.00    +0.255 C 
ATOM     27  C2* UNL     1      -1.375  -1.589   1.302  0.00  0.00    +0.195 C 
ATOM     28  C3* UNL     1      -1.545  -2.725   2.347  0.00  0.00    +0.178 C 
ATOM     29  C4* UNL     1      -0.097  -2.936   2.840  0.00  0.00    +0.177 C 
ATOM     30  O4* UNL     1       0.639  -1.741   2.549  0.00  0.00    -0.346 OA
BRANCH  28  31
ATOM     31  O3* UNL     1      -2.395  -2.308   3.418  0.00  0.00    -0.386 OA
ATOM     32  H3* UNL     1      -2.532  -2.982   4.097  0.00  0.00    +0.210 HD
ENDBRANCH  28  31
BRANCH  27  33
ATOM     33  O2* UNL     1      -2.567  -0.809   1.189  0.00  0.00    -0.385 OA
ATOM     34  H2* UNL     1      -3.311  -1.282   0.793  0.00  0.00    +0.210 HD
ENDBRANCH  27  33
BRANCH  29  35
ATOM     35  C5* UNL     1      -0.094  -3.192   4.349  0.00  0.00    +0.190 C 
BRANCH  35  36
ATOM     36  O5* UNL     1       1.233  -3.501   4.777  0.00  0.00    -0.392 OA
ATOM     37  H5* UNL     1       1.310  -3.675   5.725  0.00  0.00    +0.210 HD
ENDBRANCH  35  36
ENDBRANCH  29  35
ENDBRANCH   9  26
TORSDOF 7
