REMARK  Name = ZINC22826623
REMARK  8 active torsions:
REMARK  status: ('A' for Active; 'I' for Inactive)
REMARK    1  A    between atoms: C_3  and  N_29
REMARK    2  A    between atoms: C_4  and  N_26
REMARK    3  A    between atoms: C_6  and  C_7
REMARK    4  A    between atoms: C_7  and  O_9
REMARK    5  A    between atoms: O_9  and  C_10
REMARK    6  A    between atoms: C_10  and  C_11
REMARK    7  A    between atoms: N_13  and  C_14
REMARK    8  A    between atoms: C_15  and  C_23
REMARK                            x       y       z     vdW  Elec       q    Type
REMARK                         _______ _______ _______ _____ _____    ______ ____
ROOT
ATOM      1  C   UNL     1       1.311   2.058  -1.126  0.00  0.00    +0.255 C 
ATOM      2  O   UNL     1       2.380   1.487  -1.079  0.00  0.00    -0.272 OA
ATOM      3  N   UNL     1       0.183   1.359  -1.362  0.00  0.00    -0.277 N 
ATOM      4  H   UNL     1      -0.786   1.877  -1.405  0.00  0.00    +0.155 HD
ENDROOT
BRANCH   3   5
ATOM      5  C   UNL     1       0.245  -0.014  -1.549  0.00  0.00    +0.084 A 
ATOM      6  C   UNL     1      -0.796  -0.898  -1.795  0.00  0.00    +0.068 A 
ATOM      7  C   UNL     1      -0.460  -2.302  -1.959  0.00  0.00    -0.023 A 
ATOM      8  C   UNL     1       0.853  -2.597  -1.842  0.00  0.00    -0.004 A 
ATOM      9  S   UNL     1       1.639  -1.042  -1.527  0.00  0.00    -0.077 S 
ATOM     10  C   UNL     1       1.489  -3.947  -1.956  0.00  0.00    +0.043 C 
ATOM     11  C   UNL     1       0.387  -5.011  -1.854  0.00  0.00    +0.005 C 
ATOM     12  C   UNL     1      -0.762  -4.622  -2.789  0.00  0.00    +0.005 C 
ATOM     13  C   UNL     1      -1.487  -3.393  -2.238  0.00  0.00    +0.037 C 
BRANCH   6  14
ATOM     14  C   UNL     1      -2.183  -0.432  -1.889  0.00  0.00    +0.244 C 
ATOM     15  O   UNL     1      -2.640  -0.092  -2.965  0.00  0.00    -0.270 OA
ATOM     16  N   UNL     1      -2.953  -0.381  -0.784  0.00  0.00    -0.325 N 
ATOM     17  H   UNL     1      -3.994  -0.032  -0.854  0.00  0.00    +0.145 HD
ATOM     18  H   UNL     1      -2.541  -0.688   0.189  0.00  0.00    +0.145 HD
ENDBRANCH   6  14
ENDBRANCH   3   5
BRANCH   1  19
ATOM     19  C   UNL     1       1.244   3.550  -0.922  0.00  0.00    +0.328 C 
BRANCH  19  20
ATOM     20  O   UNL     1       2.580   4.067  -0.688  0.00  0.00    -0.452 OA
BRANCH  20  21
ATOM     21  C   UNL     1       2.696   5.394  -0.485  0.00  0.00    +0.340 C 
ATOM     22  O   UNL     1       1.707   6.100  -0.504  0.00  0.00    -0.245 OA
BRANCH  21  28
ATOM     23  C   UNL     1       5.160   5.177  -0.212  0.00  0.00    +0.017 A 
ATOM     24  C   UNL     1       6.396   5.740   0.012  0.00  0.00    +0.026 A 
ATOM     25  C   UNL     1       6.508   7.112   0.220  0.00  0.00    +0.055 A 
ATOM     26  C   UNL     1       5.373   7.917   0.197  0.00  0.00    +0.147 A 
ATOM     27  C   UNL     1       4.144   7.366  -0.030  0.00  0.00    +0.049 A 
ATOM     28  C   UNL     1       4.022   5.989  -0.240  0.00  0.00    +0.061 A 
BRANCH  26  29
ATOM     29  N   UNL     1       5.498   9.376   0.419  0.00  0.00    +0.058 N 
ATOM     30  O   UNL     1       4.498  10.065   0.512  0.00  0.00    -0.126 OA
ATOM     31  O   UNL     1       6.600   9.886   0.508  0.00  0.00    -0.126 OA
ENDBRANCH  26  29
BRANCH  25  32
ATOM     32  N   UNL     1       7.756   7.679   0.452  0.00  0.00    -0.356 N 
ATOM     33  H   UNL     1       7.846   8.763   0.616  0.00  0.00    +0.142 HD
ATOM     34  H   UNL     1       8.654   7.043   0.471  0.00  0.00    +0.142 HD
ENDBRANCH  25  32
ENDBRANCH  21  28
ENDBRANCH  20  21
ENDBRANCH  19  20
ENDBRANCH   1  19
TORSDOF 8
