REMARK  Name = ZINC01694023
REMARK  0 active torsions:
REMARK  status: ('A' for Active; 'I' for Inactive)
REMARK                            x       y       z     vdW  Elec       q    Type
REMARK                         _______ _______ _______ _____ _____    ______ ____
ROOT
ATOM      1  C   UNL     1       5.891   2.845  -2.013  0.00  0.00    +0.017 A 
ATOM      2  C   UNL     1       5.427   2.515  -0.755  0.00  0.00    +0.025 A 
ATOM      3  C   UNL     1       4.071   2.290  -0.555  0.00  0.00    +0.039 A 
ATOM      4  C   UNL     1       3.183   2.396  -1.640  0.00  0.00    +0.041 A 
ATOM      5  C   UNL     1       3.667   2.736  -2.906  0.00  0.00    +0.028 A 
ATOM      6  C   UNL     1       5.016   2.957  -3.083  0.00  0.00    +0.019 A 
ATOM      7 BR   UNL     1       5.677   3.416  -4.794  0.00  0.00    -0.050 Br
ATOM      8  C   UNL     1       1.753   2.139  -1.424  0.00  0.00    +0.188 C 
ATOM      9  O   UNL     1       1.004   1.960  -2.361  0.00  0.00    -0.290 OA
ATOM     10  C   UNL     1       1.238   2.103   0.002  0.00  0.00    +0.189 C 
ATOM     11  C   UNL     1       2.267   1.364   0.864  0.00  0.00    +0.191 C 
ATOM     12  N   UNL     1       3.588   1.966   0.704  0.00  0.00    -0.320 N 
ATOM     13  C   UNL     1       2.292  -0.089   0.476  0.00  0.00    +0.257 C 
ATOM     14  O   UNL     1       3.334  -0.708   0.497  0.00  0.00    -0.272 OA
ATOM     15  N   UNL     1       1.148  -0.698   0.106  0.00  0.00    -0.238 N 
ATOM     16  C   UNL     1       0.002  -0.004   0.002  0.00  0.00    +0.307 C 
ATOM     17  O   UNL     1      -1.047  -0.609  -0.102  0.00  0.00    -0.252 OA
ATOM     18  N   UNL     1      -0.016   1.339   0.009  0.00  0.00    -0.286 N 
ATOM     19 BR   UNL     1       1.722   1.513   2.747  0.00  0.00    -0.051 Br
ATOM     20  H   UNL     1       4.133   2.142   1.486  0.00  0.00    +0.148 HD
ATOM     21  H   UNL     1       1.152  -1.648  -0.089  0.00  0.00    +0.159 HD
ATOM     22  H   UNL     1      -0.865   1.808   0.016  0.00  0.00    +0.151 HD
ENDROOT
TORSDOF 0
