REMARK  Name = ZINC03419041
REMARK  9 active torsions:
REMARK  status: ('A' for Active; 'I' for Inactive)
REMARK    1  A    between atoms: C_1  and  N_2
REMARK    2  A    between atoms: N_5  and  C_8
REMARK    3  A    between atoms: C_13  and  N_14
REMARK    4  A    between atoms: N_14  and  C_15
REMARK    5  A    between atoms: N_25  and  C_28
REMARK    6  A    between atoms: C_31  and  O_36
REMARK    7  A    between atoms: C_32  and  O_34
REMARK    8  A    between atoms: O_34  and  C_35
REMARK    9  A    between atoms: O_36  and  C_37
REMARK                            x       y       z     vdW  Elec       q    Type
REMARK                         _______ _______ _______ _____ _____    ______ ____
ROOT
ATOM      1  C   UNL     1      -0.212  -6.782   1.427  0.00  0.00    +0.085 C 
ATOM      2  C   UNL     1      -1.430  -7.012   0.825  0.00  0.00    +0.059 C 
ATOM      3  C   UNL     1      -1.726  -8.306   0.176  0.00  0.00    +0.000 A 
ATOM      4  C   UNL     1      -0.797  -9.339   0.146  0.00  0.00    +0.009 A 
ATOM      5  C   UNL     1      -1.122 -10.530  -0.472  0.00  0.00    +0.001 A 
ATOM      6  C   UNL     1      -2.366 -10.701  -1.061  0.00  0.00    +0.001 A 
ATOM      7  C   UNL     1      -3.300  -9.688  -1.042  0.00  0.00    +0.014 A 
ATOM      8  C   UNL     1      -2.992  -8.477  -0.422  0.00  0.00    +0.046 A 
ATOM      9  C   UNL     1      -3.959  -7.372  -0.378  0.00  0.00    +0.258 C 
ATOM     10  O   UNL     1      -5.052  -7.514  -0.892  0.00  0.00    -0.269 OA
ATOM     11  N   UNL     1      -3.656  -6.209   0.220  0.00  0.00    -0.202 N 
ATOM     12  C   UNL     1      -2.473  -5.980   0.814  0.00  0.00    +0.259 C 
ATOM     13  O   UNL     1      -2.262  -4.904   1.343  0.00  0.00    -0.269 OA
ENDROOT
BRANCH  11  14
ATOM     14  C   UNL     1      -4.619  -5.189   0.230  0.00  0.00    +0.048 A 
ATOM     15  C   UNL     1      -4.813  -4.407  -0.900  0.00  0.00    +0.028 A 
ATOM     16  C   UNL     1      -5.762  -3.402  -0.891  0.00  0.00    +0.051 A 
ATOM     17  C   UNL     1      -6.521  -3.173   0.245  0.00  0.00    +0.162 A 
ATOM     18  C   UNL     1      -6.329  -3.956   1.379  0.00  0.00    +0.163 A 
ATOM     19  C   UNL     1      -5.382  -4.967   1.369  0.00  0.00    +0.073 A 
BRANCH  18  20
ATOM     20  O   UNL     1      -7.073  -3.732   2.495  0.00  0.00    -0.491 OA
ATOM     21  C   UNL     1      -6.822  -4.574   3.622  0.00  0.00    +0.277 C 
ENDBRANCH  18  20
BRANCH  17  22
ATOM     22  O   UNL     1      -7.454  -2.183   0.252  0.00  0.00    -0.491 OA
ATOM     23  C   UNL     1      -7.597  -1.418  -0.947  0.00  0.00    +0.277 C 
ENDBRANCH  17  22
ENDBRANCH  11  14
BRANCH   1  24
ATOM     24  N   UNL     1      -0.006  -5.638   2.130  0.00  0.00    -0.318 N 
ATOM     25  H   UNL     1      -0.741  -5.024   2.283  0.00  0.00    +0.152 HD
BRANCH  24  31
ATOM     26  C   UNL     1       1.480  -4.169   3.353  0.00  0.00    +0.051 A 
ATOM     27  C   UNL     1       2.743  -3.887   3.853  0.00  0.00    +0.026 A 
ATOM     28  C   UNL     1       3.787  -4.765   3.630  0.00  0.00    +0.022 A 
ATOM     29  C   UNL     1       3.577  -5.928   2.910  0.00  0.00    +0.043 A 
ATOM     30  C   UNL     1       2.321  -6.218   2.408  0.00  0.00    +0.045 A 
ATOM     31  C   UNL     1       1.267  -5.344   2.631  0.00  0.00    +0.054 A 
ATOM     32 CL   UNL     1       4.894  -7.025   2.635  0.00  0.00    -0.083 Cl
BRANCH  26  37
ATOM     33  C   UNL     1      -1.165   0.252   5.160  0.00  0.00    -0.096 C 
ATOM     34  N   UNL     1      -0.976  -1.037   4.480  0.00  0.00    +0.380 N 
ATOM     35  C   UNL     1       0.019  -0.883   3.411  0.00  0.00    -0.060 C 
ATOM     36  C   UNL     1       0.132  -2.196   2.628  0.00  0.00    +0.086 C 
ATOM     37  N   UNL     1       0.422  -3.281   3.577  0.00  0.00    -0.332 N 
ATOM     38  C   UNL     1      -0.431  -3.407   4.769  0.00  0.00    +0.086 C 
ATOM     39  C   UNL     1      -0.518  -2.038   5.451  0.00  0.00    -0.060 C 
ATOM     40  H   UNL     1      -1.853  -1.335   4.079  0.00  0.00    -0.082 HD
ENDBRANCH  26  37
ENDBRANCH  24  31
ENDBRANCH   1  24
TORSDOF 6
