REMARK  Name = ZINC67389366
REMARK  10 active torsions:
REMARK  status: ('A' for Active; 'I' for Inactive)
REMARK    1  A    between atoms: C_1  and  C_2
REMARK    2  A    between atoms: C_2  and  C_4
REMARK    3  A    between atoms: C_2  and  N_15
REMARK    4  A    between atoms: C_8  and  S_10
REMARK    5  A    between atoms: S_10  and  N_13
REMARK    6  A    between atoms: N_13  and  C_14
REMARK    7  A    between atoms: N_18  and  C_19
REMARK    8  A    between atoms: C_19  and  C_20
REMARK    9  A    between atoms: N_26  and  C_27
REMARK   10  A    between atoms: N_26  and  C_28
REMARK                            x       y       z     vdW  Elec       q    Type
REMARK                         _______ _______ _______ _____ _____    ______ ____
ROOT
ATOM      1  N   UNL     1       0.711  -0.489   1.189  0.00  0.00    -0.293 N 
ATOM      2  C   UNL     1       2.054  -0.600   1.174  0.00  0.00    +0.300 C 
ATOM      3  O   UNL     1       2.677  -0.297   0.175  0.00  0.00    -0.253 OA
ATOM      4  N   UNL     1       2.706  -1.046   2.266  0.00  0.00    -0.295 N 
ATOM      5  H   UNL     1       0.213  -0.731   1.986  0.00  0.00    +0.151 HD
ATOM      6  H   UNL     1       2.208  -1.288   3.062  0.00  0.00    +0.151 HD
ENDROOT
BRANCH   1   8
ATOM      7  C   UNL     1      -0.019   1.526   0.010  0.00  0.00    +0.033 C 
ATOM      8  C   UNL     1       0.002  -0.004   0.002  0.00  0.00    +0.102 C 
BRANCH   8   9
ATOM      9  C   UNL     1      -1.412  -0.526   0.013  0.00  0.00    -0.026 A 
ATOM     10  C   UNL     1      -2.123  -0.571   1.198  0.00  0.00    +0.005 A 
ATOM     11  C   UNL     1      -3.420  -1.049   1.207  0.00  0.00    +0.002 A 
ATOM     12  C   UNL     1      -4.006  -1.482   0.032  0.00  0.00    +0.028 A 
ATOM     13  C   UNL     1      -3.295  -1.436  -1.152  0.00  0.00    +0.106 A 
ATOM     14  C   UNL     1      -1.999  -0.954  -1.163  0.00  0.00    +0.034 A 
BRANCH  13  15
ATOM     15  S   UNL     1      -4.042  -1.988  -2.650  0.00  0.00    +0.058 S 
ATOM     16  O   UNL     1      -2.981  -2.351  -3.523  0.00  0.00    -0.153 OA
ATOM     17  O   UNL     1      -5.069  -2.898  -2.280  0.00  0.00    -0.153 OA
BRANCH  15  18
ATOM     18  N   UNL     1      -4.792  -0.680  -3.334  0.00  0.00    -0.193 NA
ATOM     19  C   UNL     1      -3.997   0.458  -3.803  0.00  0.00    +0.127 C 
ATOM     20  H   UNL     1      -5.757  -0.667  -3.425  0.00  0.00    +0.148 HD
ENDBRANCH  15  18
ENDBRANCH  13  15
ENDBRANCH   8   9
ENDBRANCH   1   8
BRANCH   4  21
ATOM     21  C   UNL     1       4.166  -1.166   2.249  0.00  0.00    +0.142 C 
BRANCH  21  22
ATOM     22  C   UNL     1       4.642  -1.684   3.582  0.00  0.00    -0.014 A 
ATOM     23  C   UNL     1       4.956  -0.800   4.606  0.00  0.00    +0.010 A 
ATOM     24  C   UNL     1       5.389  -1.316   5.814  0.00  0.00    +0.042 A 
ATOM     25  C   UNL     1       5.497  -2.695   5.960  0.00  0.00    +0.098 A 
ATOM     26  N   UNL     1       5.188  -3.505   4.960  0.00  0.00    -0.349 N 
ATOM     27  C   UNL     1       4.766  -3.041   3.799  0.00  0.00    +0.089 A 
ATOM     28  N   UNL     1       5.932  -3.228   7.169  0.00  0.00    -0.323 N 
ATOM     29  C   UNL     1       6.275  -2.337   8.280  0.00  0.00    +0.130 C 
ATOM     30  C   UNL     1       6.047  -4.679   7.330  0.00  0.00    +0.130 C 
ATOM     31  H   UNL     1       5.271  -4.464   5.084  0.00  0.00    +0.167 HD
ENDBRANCH  21  22
ENDBRANCH   4  21
TORSDOF 6
