REMARK  Name = ZINC38635593
REMARK  6 active torsions:
REMARK  status: ('A' for Active; 'I' for Inactive)
REMARK    1  A    between atoms: C_1  and  C_2
REMARK    2  A    between atoms: C_2  and  N_3
REMARK    3  A    between atoms: C_7  and  C_9
REMARK    4  A    between atoms: C_9  and  N_10
REMARK    5  A    between atoms: N_16  and  C_17
REMARK    6  A    between atoms: C_20  and  C_23
REMARK                            x       y       z     vdW  Elec       q    Type
REMARK                         _______ _______ _______ _____ _____    ______ ____
ROOT
ATOM      1  N   UNL     1       0.537  -3.921  -4.695  0.00  0.00    -0.357 N 
ATOM      2  C   UNL     1      -0.481  -3.525  -5.530  0.00  0.00    +0.197 C 
ATOM      3  N   UNL     1      -1.307  -4.407  -6.014  0.00  0.00    -0.268 NA
ATOM      4  N   UNL     1      -0.627  -2.192  -5.854  0.00  0.00    -0.297 N 
ATOM      5  C   UNL     1      -1.712  -1.778  -6.594  0.00  0.00    +0.202 C 
ATOM      6  N   UNL     1      -2.708  -2.669  -6.907  0.00  0.00    -0.369 N 
ATOM      7  N   UNL     1      -1.794  -0.533  -6.998  0.00  0.00    -0.215 NA
ATOM      8  H   UNL     1      -1.204  -5.344  -5.786  0.00  0.00    +0.190 HD
ATOM      9  H   UNL     1      -2.926  -3.389  -6.294  0.00  0.00    +0.159 HD
ATOM     10  H   UNL     1      -3.195  -2.579  -7.742  0.00  0.00    +0.159 HD
ATOM     11  H   UNL     1       1.153  -3.264  -4.335  0.00  0.00    +0.162 HD
ATOM     12  H   UNL     1       0.035  -1.546  -5.562  0.00  0.00    +0.172 HD
ENDROOT
BRANCH   7  13
ATOM     13  C   UNL     1      -0.739   0.320  -6.810  0.00  0.00    +0.068 A 
ATOM     14  C   UNL     1      -0.473   0.836  -5.540  0.00  0.00    +0.028 A 
ATOM     15  C   UNL     1       0.591   1.694  -5.357  0.00  0.00    +0.005 A 
ATOM     16  C   UNL     1       1.395   2.043  -6.428  0.00  0.00    -0.050 A 
ATOM     17  C   UNL     1       1.137   1.535  -7.689  0.00  0.00    +0.005 A 
ATOM     18  C   UNL     1       0.080   0.671  -7.885  0.00  0.00    +0.028 A 
ATOM     19  C   UNL     1       2.556   2.982  -6.221  0.00  0.00    +0.044 C 
ENDBRANCH   7  13
BRANCH   1  20
ATOM     20  C   UNL     1       0.693  -5.336  -4.351  0.00  0.00    +0.100 C 
BRANCH  20  25
ATOM     21  N   UNL     1       1.735  -4.632  -2.237  0.00  0.00    +0.383 N 
ATOM     22  C   UNL     1       1.725  -5.477  -1.024  0.00  0.00    -0.078 C 
ATOM     23  C   UNL     1       1.264  -6.871  -1.516  0.00  0.00    -0.020 C 
ATOM     24  C   UNL     1       1.956  -6.959  -2.902  0.00  0.00    -0.015 C 
ATOM     25  C   UNL     1       1.891  -5.505  -3.415  0.00  0.00    -0.049 C 
ATOM     26  H   UNL     1       0.865  -4.125  -2.303  0.00  0.00    -0.081 HD
BRANCH  21  28
ATOM     27  C   UNL     1       2.627  -2.702  -1.022  0.00  0.00    -0.017 C 
ATOM     28  C   UNL     1       2.857  -3.685  -2.171  0.00  0.00    -0.082 C 
ENDBRANCH  21  28
ENDBRANCH  20  25
ENDBRANCH   1  20
TORSDOF 4
