REMARK  Name = ZINC00840706
REMARK  10 active torsions:
REMARK  status: ('A' for Active; 'I' for Inactive)
REMARK    1  A    between atoms: C_1  and  C_2
REMARK    2  A    between atoms: C_5  and  N_20
REMARK    3  A    between atoms: N_8  and  C_9
REMARK    4  A    between atoms: C_9  and  C_10
REMARK    5  A    between atoms: N_12  and  C_13
REMARK    6  A    between atoms: C_13  and  C_14
REMARK    7  A    between atoms: C_17  and  N_61
REMARK    8  A    between atoms: N_20  and  S_21
REMARK    9  A    between atoms: S_21  and  C_24
REMARK   10  A    between atoms: C_24  and  C_25
REMARK                            x       y       z     vdW  Elec       q    Type
REMARK                         _______ _______ _______ _____ _____    ______ ____
ROOT
ATOM      1  C   UNL     1      -3.543   1.740  -2.449  0.00  0.00    +0.063 C 
ATOM      2  C   UNL     1      -4.131   2.226  -1.149  0.00  0.00    +0.020 A 
ATOM      3  C   UNL     1      -5.170   3.090  -1.167  0.00  0.00    +0.023 A 
ATOM      4  C   UNL     1      -5.725   3.548   0.037  0.00  0.00    +0.031 A 
ATOM      5  C   UNL     1      -5.201   3.111   1.222  0.00  0.00    +0.112 A 
ATOM      6  C   UNL     1      -4.118   2.204   1.204  0.00  0.00    +0.274 A 
ATOM      7  O   UNL     1      -3.642   1.800   2.253  0.00  0.00    -0.266 OA
ATOM      8  N   UNL     1      -3.608   1.789   0.029  0.00  0.00    -0.302 N 
ENDROOT
BRANCH   5   9
ATOM      9  N   UNL     1      -5.736   3.552   2.439  0.00  0.00    -0.215 N 
ATOM     10  H   UNL     1      -5.360   3.238   3.276  0.00  0.00    +0.173 HD
BRANCH   9  11
ATOM     11  S   UNL     1      -7.010   4.609   2.448  0.00  0.00    +0.047 S 
ATOM     12  O   UNL     1      -7.269   4.853   3.824  0.00  0.00    -0.155 OA
ATOM     13  O   UNL     1      -6.610   5.667   1.588  0.00  0.00    -0.155 OA
BRANCH  11  14
ATOM     14  C   UNL     1      -8.386   3.688   1.707  0.00  0.00    +0.223 C 
BRANCH  14  15
ATOM     15  C   UNL     1      -9.612   4.564   1.665  0.00  0.00    -0.025 A 
ATOM     16  C   UNL     1     -10.496   4.567   2.727  0.00  0.00    +0.005 A 
ATOM     17  C   UNL     1     -11.618   5.374   2.690  0.00  0.00    +0.000 A 
ATOM     18  C   UNL     1     -11.861   6.170   1.586  0.00  0.00    +0.000 A 
ATOM     19  C   UNL     1     -10.979   6.163   0.522  0.00  0.00    +0.000 A 
ATOM     20  C   UNL     1      -9.854   5.360   0.561  0.00  0.00    +0.005 A 
ENDBRANCH  14  15
ENDBRANCH  11  14
ENDBRANCH   9  11
ENDBRANCH   5   9
BRANCH   8  21
ATOM     21  C   UNL     1      -2.482   0.853   0.018  0.00  0.00    +0.220 C 
BRANCH  21  22
ATOM     22  C   UNL     1      -1.187   1.624   0.017  0.00  0.00    +0.233 C 
ATOM     23  O   UNL     1      -1.204   2.837   0.023  0.00  0.00    -0.274 OA
ATOM     24  N   UNL     1      -0.011   0.966   0.007  0.00  0.00    -0.314 N 
ATOM     25  H   UNL     1       0.002  -0.004   0.002  0.00  0.00    +0.149 HD
BRANCH  24  26
ATOM     26  C   UNL     1       1.248   1.716  -0.001  0.00  0.00    +0.107 C 
BRANCH  26  27
ATOM     27  C   UNL     1       2.424   0.737  -0.017  0.00  0.00    +0.006 C 
ATOM     28  C   UNL     1       2.438  -0.065   1.286  0.00  0.00    +0.003 C 
ATOM     29  C   UNL     1       3.615  -1.043   1.269  0.00  0.00    -0.016 C 
ATOM     30  C   UNL     1       4.925  -0.264   1.135  0.00  0.00    -0.075 C 
ATOM     31  C   UNL     1       4.910   0.538  -0.168  0.00  0.00    -0.016 C 
ATOM     32  C   UNL     1       3.733   1.517  -0.151  0.00  0.00    +0.003 C 
BRANCH  30  35
ATOM     33  H   UNL     1       6.085  -1.745   1.970  0.00  0.00    -0.090 HD
ATOM     34  H   UNL     1       6.013  -1.803   0.310  0.00  0.00    -0.090 HD
ATOM     35  N   UNL     1       6.073  -1.186   1.118  0.00  0.00    +0.380 N 
ATOM     36  H   UNL     1       6.942  -0.643   1.061  0.00  0.00    -0.090 HD
ENDBRANCH  30  35
ENDBRANCH  26  27
ENDBRANCH  24  26
ENDBRANCH  21  22
ENDBRANCH   8  21
TORSDOF 9
