REMARK  Name = ZINC14479343
REMARK  11 active torsions:
REMARK  status: ('A' for Active; 'I' for Inactive)
REMARK    1  A    between atoms: C_1  and  C_2
REMARK    2  A    between atoms: C_2  and  O_3
REMARK    3  A    between atoms: O_3  and  C_4
REMARK    4  A    between atoms: C_7  and  N_10
REMARK    5  A    between atoms: N_10  and  S_11
REMARK    6  A    between atoms: S_11  and  C_14
REMARK    7  A    between atoms: C_27  and  C_30
REMARK    8  A    between atoms: C_33  and  O_38
REMARK    9  A    between atoms: C_34  and  O_36
REMARK   10  A    between atoms: O_36  and  C_37
REMARK   11  A    between atoms: O_38  and  C_39
REMARK                            x       y       z     vdW  Elec       q    Type
REMARK                         _______ _______ _______ _____ _____    ______ ____
ROOT
ATOM      1  C   UNL     1      -1.285   2.509  -3.290  0.00  0.00    +0.109 A 
ATOM      2  C   UNL     1      -2.656   2.479  -3.108  0.00  0.00    +0.030 A 
ATOM      3  C   UNL     1      -3.179   1.869  -2.017  0.00  0.00    +0.025 A 
ATOM      4  C   UNL     1      -2.354   1.336  -1.033  0.00  0.00    +0.031 A 
ATOM      5  C   UNL     1      -0.974   1.385  -1.198  0.00  0.00    -0.018 A 
ATOM      6  C   UNL     1      -0.449   1.962  -2.334  0.00  0.00    +0.034 A 
ATOM      7  C   UNL     1      -0.126   0.771  -0.154  0.00  0.00    +0.049 C 
ATOM      8  C   UNL     1       1.271   1.214   0.086  0.00  0.00    -0.023 C 
ATOM      9  C   UNL     1       1.546   1.067   1.376  0.00  0.00    -0.030 C 
ATOM     10  C   UNL     1       0.317   0.535   2.116  0.00  0.00    +0.033 C 
ATOM     11  C   UNL     1      -0.824   1.028   1.215  0.00  0.00    +0.029 C 
ATOM     12  C   UNL     1      -2.092   0.194   1.185  0.00  0.00    +0.105 C 
ATOM     13  N   UNL     1      -2.929   0.781   0.116  0.00  0.00    -0.336 N 
ATOM     14  H   UNL     1      -3.895   0.781   0.213  0.00  0.00    +0.147 HD
ENDROOT
BRANCH  12  15
ATOM     15  C   UNL     1      -1.764  -1.241   0.861  0.00  0.00    -0.023 A 
ATOM     16  C   UNL     1      -1.455  -2.124   1.879  0.00  0.00    +0.009 A 
ATOM     17  C   UNL     1      -1.155  -3.442   1.587  0.00  0.00    +0.050 A 
ATOM     18  C   UNL     1      -1.162  -3.879   0.272  0.00  0.00    +0.162 A 
ATOM     19  C   UNL     1      -1.473  -2.990  -0.752  0.00  0.00    +0.162 A 
ATOM     20  C   UNL     1      -1.779  -1.672  -0.452  0.00  0.00    +0.055 A 
BRANCH  19  21
ATOM     21  O   UNL     1      -1.482  -3.414  -2.044  0.00  0.00    -0.491 OA
ATOM     22  C   UNL     1      -1.810  -2.446  -3.043  0.00  0.00    +0.277 C 
ENDBRANCH  19  21
BRANCH  18  23
ATOM     23  O   UNL     1      -0.867  -5.175  -0.017  0.00  0.00    -0.491 OA
ATOM     24  C   UNL     1      -0.557  -6.031   1.085  0.00  0.00    +0.277 C 
ENDBRANCH  18  23
ENDBRANCH  12  15
BRANCH   1  25
ATOM     25  S   UNL     1      -0.604   3.244  -4.740  0.00  0.00    +0.072 S 
ATOM     26  O   UNL     1      -1.524   4.243  -5.159  0.00  0.00    -0.150 OA
ATOM     27  O   UNL     1       0.755   3.534  -4.448  0.00  0.00    -0.150 OA
BRANCH  25  28
ATOM     28  N   UNL     1      -0.597   2.083  -5.920  0.00  0.00    -0.216 N 
ATOM     29  H   UNL     1       0.244   1.760  -6.278  0.00  0.00    +0.174 HD
BRANCH  28  33
ATOM     30  C   UNL     1      -4.197   0.545  -7.353  0.00  0.00    +0.121 A 
ATOM     31  C   UNL     1      -3.783   1.812  -7.736  0.00  0.00    +0.047 A 
ATOM     32  C   UNL     1      -2.591   2.323  -7.262  0.00  0.00    +0.028 A 
ATOM     33  C   UNL     1      -1.806   1.567  -6.401  0.00  0.00    +0.048 A 
ATOM     34  C   UNL     1      -2.218   0.296  -6.023  0.00  0.00    +0.028 A 
ATOM     35  C   UNL     1      -3.414  -0.211  -6.494  0.00  0.00    +0.047 A 
BRANCH  30  36
ATOM     36  O   UNL     1      -5.371   0.043  -7.822  0.00  0.00    -0.492 OA
BRANCH  36  38
ATOM     37  C   UNL     1      -7.076  -1.659  -8.012  0.00  0.00    +0.048 C 
ATOM     38  C   UNL     1      -5.736  -1.268  -7.386  0.00  0.00    +0.225 C 
ENDBRANCH  36  38
ENDBRANCH  30  36
ENDBRANCH  28  33
ENDBRANCH  25  28
ENDBRANCH   1  25
TORSDOF 8
