REMARK  Name = ZINC12756028
REMARK  9 active torsions:
REMARK  status: ('A' for Active; 'I' for Inactive)
REMARK    1  A    between atoms: C_1  and  C_2
REMARK    2  A    between atoms: C_2  and  N_45
REMARK    3  A    between atoms: C_3  and  C_4
REMARK    4  A    between atoms: C_3  and  N_45
REMARK    5  A    between atoms: N_6  and  C_7
REMARK    6  A    between atoms: C_15  and  C_16
REMARK    7  A    between atoms: C_15  and  N_45
REMARK    8  A    between atoms: N_18  and  C_19
REMARK    9  A    between atoms: C_20  and  C_24
REMARK                            x       y       z     vdW  Elec       q    Type
REMARK                         _______ _______ _______ _____ _____    ______ ____
ROOT
ATOM      1  N   UNL     1       2.575   4.394   1.060  0.00  0.00    +0.391 N 
ATOM      2  H   UNL     1       3.092   3.658   0.565  0.00  0.00    -0.080 HD
ENDROOT
BRANCH   1   4
ATOM      3  C   UNL     1       3.435   3.165   2.989  0.00  0.00    -0.017 C 
ATOM      4  C   UNL     1       3.144   4.553   2.414  0.00  0.00    -0.081 C 
ENDBRANCH   1   4
BRANCH   1   5
ATOM      5  C   UNL     1       2.703   5.660   0.307  0.00  0.00    +0.020 C 
BRANCH   5   6
ATOM      6  C   UNL     1       4.162   5.920   0.037  0.00  0.00    +0.201 C 
ATOM      7  O   UNL     1       5.002   5.145   0.444  0.00  0.00    -0.278 OA
ATOM      8  N   UNL     1       4.535   7.014  -0.655  0.00  0.00    -0.283 N 
ATOM      9  H   UNL     1       3.862   7.591  -1.051  0.00  0.00    +0.155 HD
BRANCH   8  10
ATOM     10  C   UNL     1       5.895   7.319  -0.805  0.00  0.00    +0.105 A 
ATOM     11  C   UNL     1       6.345   8.617  -0.593  0.00  0.00    +0.147 A 
ATOM     12  C   UNL     1       7.689   8.913  -0.737  0.00  0.00    +0.040 A 
ATOM     13  C   UNL     1       8.582   7.923  -1.101  0.00  0.00    +0.006 A 
ATOM     14  C   UNL     1       8.137   6.632  -1.318  0.00  0.00    +0.040 A 
ATOM     15  C   UNL     1       6.796   6.327  -1.171  0.00  0.00    +0.147 A 
ATOM     16  F   UNL     1       6.362   5.065  -1.384  0.00  0.00    -0.203 F 
ATOM     17  F   UNL     1       5.473   9.587  -0.243  0.00  0.00    -0.203 F 
ENDBRANCH   8  10
ENDBRANCH   5   6
ENDBRANCH   1   5
BRANCH   1  18
ATOM     18  C   UNL     1       1.153   4.003   1.152  0.00  0.00    +0.020 C 
BRANCH  18  19
ATOM     19  C   UNL     1       0.732   3.398  -0.163  0.00  0.00    +0.201 C 
ATOM     20  O   UNL     1       1.501   3.392  -1.101  0.00  0.00    -0.278 OA
ATOM     21  N   UNL     1      -0.498   2.864  -0.296  0.00  0.00    -0.281 N 
ATOM     22  H   UNL     1      -1.114   2.873   0.453  0.00  0.00    +0.155 HD
BRANCH  21  23
ATOM     23  C   UNL     1      -0.885   2.308  -1.506  0.00  0.00    +0.084 A 
ATOM     24  C   UNL     1      -2.096   1.710  -1.833  0.00  0.00    +0.065 A 
ATOM     25  C   UNL     1      -2.232   1.214  -3.182  0.00  0.00    +0.022 A 
ATOM     26  C   UNL     1      -1.175   1.362  -4.000  0.00  0.00    +0.048 A 
ATOM     27  S   UNL     1       0.027   2.182  -2.973  0.00  0.00    -0.081 S 
BRANCH  24  28
ATOM     28  C   UNL     1      -3.185   1.593  -0.858  0.00  0.00    +0.244 C 
ATOM     29  O   UNL     1      -3.039   2.025   0.271  0.00  0.00    -0.270 OA
ATOM     30  N   UNL     1      -4.346   1.008  -1.211  0.00  0.00    -0.325 N 
ATOM     31  H   UNL     1      -4.462   0.663  -2.110  0.00  0.00    +0.145 HD
ATOM     32  H   UNL     1      -5.066   0.930  -0.565  0.00  0.00    +0.145 HD
ENDBRANCH  24  28
ENDBRANCH  21  23
ENDBRANCH  18  19
ENDBRANCH   1  18
TORSDOF 8
