REMARK  Name = ZINC15678260
REMARK  7 active torsions:
REMARK  status: ('A' for Active; 'I' for Inactive)
REMARK    1  A    between atoms: C_1  and  C_2
REMARK    2  A    between atoms: C_2  and  C_25
REMARK    3  A    between atoms: C_5  and  C_20
REMARK    4  A    between atoms: N_11  and  C_12
REMARK    5  A    between atoms: C_12  and  C_13
REMARK    6  A    between atoms: C_13  and  N_78
REMARK    7  A    between atoms: N_27  and  C_28
REMARK                            x       y       z     vdW  Elec       q    Type
REMARK                         _______ _______ _______ _____ _____    ______ ____
ROOT
ATOM      1  C   UNL     1      -6.205   2.354   0.882  0.00  0.00    +0.043 C 
ATOM      2  C   UNL     1      -5.157   3.457   1.039  0.00  0.00    +0.128 C 
ATOM      3  C   UNL     1      -3.907   3.067   0.252  0.00  0.00    +0.157 C 
ATOM      4  N   UNL     1      -3.021   4.230   0.148  0.00  0.00    -0.331 N 
ATOM      5  C   UNL     1      -1.671   4.291   0.040  0.00  0.00    +0.085 A 
ATOM      6  C   UNL     1      -1.304   5.625  -0.049  0.00  0.00    +0.032 A 
ATOM      7  C   UNL     1      -2.468   6.392   0.005  0.00  0.00    +0.033 A 
ATOM      8  C   UNL     1      -3.520   5.528   0.136  0.00  0.00    +0.105 A 
ATOM      9  C   UNL     1      -4.958   5.782   0.263  0.00  0.00    +0.264 C 
ATOM     10  O   UNL     1      -5.432   6.890   0.085  0.00  0.00    -0.268 OA
ATOM     11  N   UNL     1      -5.731   4.720   0.589  0.00  0.00    -0.282 N 
ENDROOT
BRANCH   5  12
ATOM     12  C   UNL     1      -0.755   3.142   0.025  0.00  0.00    +0.151 A 
ATOM     13  C   UNL     1       0.608   3.204   0.013  0.00  0.00    +0.051 A 
ATOM     14  C   UNL     1       1.073   1.877   0.002  0.00  0.00    +0.042 A 
ATOM     15  C   UNL     1      -0.013   1.076   0.008  0.00  0.00    +0.196 A 
ATOM     16  O   UNL     1      -1.114   1.843   0.017  0.00  0.00    -0.461 OA
ENDBRANCH   5  12
BRANCH   2  17
ATOM     17  C   UNL     1      -4.796   3.581   2.497  0.00  0.00    +0.238 C 
ATOM     18  O   UNL     1      -4.964   2.641   3.245  0.00  0.00    -0.273 OA
ATOM     19  N   UNL     1      -4.287   4.736   2.969  0.00  0.00    -0.311 N 
ATOM     20  H   UNL     1      -4.152   5.487   2.371  0.00  0.00    +0.149 HD
BRANCH  19  21
ATOM     21  C   UNL     1      -3.936   4.856   4.387  0.00  0.00    +0.073 C 
ATOM     22  C   UNL     1      -5.179   5.247   5.189  0.00  0.00    +0.022 C 
ATOM     23  C   UNL     1      -4.928   4.989   6.676  0.00  0.00    +0.002 C 
ATOM     24  C   UNL     1      -4.248   3.630   6.851  0.00  0.00    +0.000 C 
ATOM     25  C   UNL     1      -2.822   3.836   7.367  0.00  0.00    +0.000 C 
ATOM     26  C   UNL     1      -1.930   4.314   6.219  0.00  0.00    +0.000 C 
ATOM     27  C   UNL     1      -2.212   5.791   5.935  0.00  0.00    +0.002 C 
ATOM     28  C   UNL     1      -2.860   5.931   4.556  0.00  0.00    +0.022 C 
ENDBRANCH  19  21
ENDBRANCH   2  17
BRANCH  11  29
ATOM     29  C   UNL     1      -7.188   4.843   0.487  0.00  0.00    +0.091 C 
BRANCH  29  30
ATOM     30  C   UNL     1      -7.752   5.346   1.817  0.00  0.00    -0.060 C 
BRANCH  30  37
ATOM     31  C   UNL     1      -9.590   6.445   0.668  0.00  0.00    -0.079 C 
ATOM     32  C   UNL     1     -11.050   6.808   0.709  0.00  0.00    -0.019 C 
ATOM     33  C   UNL     1     -11.214   8.082   1.563  0.00  0.00    -0.002 C 
ATOM     34  C   UNL     1     -11.163   7.796   2.993  0.00  0.00    -0.002 C 
ATOM     35  C   UNL     1      -9.814   7.179   3.417  0.00  0.00    -0.019 C 
ATOM     36  C   UNL     1      -9.817   5.722   3.042  0.00  0.00    -0.079 C 
ATOM     37  N   UNL     1      -9.217   5.416   1.698  0.00  0.00    +0.381 N 
ATOM     38  H   UNL     1      -9.568   4.503   1.386  0.00  0.00    -0.082 HD
ENDBRANCH  30  37
ENDBRANCH  29  30
ENDBRANCH  11  29
TORSDOF 6
