REMARK  Name = ZINC36878685
REMARK  2 active torsions:
REMARK  status: ('A' for Active; 'I' for Inactive)
REMARK    1  A    between atoms: C_9  and  N_11
REMARK    2  A    between atoms: C_12  and  C_14
REMARK                            x       y       z     vdW  Elec       q    Type
REMARK                         _______ _______ _______ _____ _____    ______ ____
ROOT
ATOM      1  N   UNL     1       4.147  -1.058   1.302  0.00  0.00    -0.310 N 
ATOM      2  C   UNL     1       5.090  -0.183   1.704  0.00  0.00    +0.199 C 
ATOM      3  O   UNL     1       5.456   0.700   0.958  0.00  0.00    -0.278 OA
ATOM      4  H   UNL     1       3.854  -1.764   1.899  0.00  0.00    +0.149 HD
ENDROOT
BRANCH   2   5
ATOM      5  C   UNL     1       5.689  -0.302   3.082  0.00  0.00    +0.017 C 
ATOM      6  C   UNL     1       6.417  -1.658   3.225  0.00  0.00    -0.005 C 
ATOM      7  C   UNL     1       7.652  -1.284   4.104  0.00  0.00    -0.026 C 
ATOM      8  C   UNL     1       7.142  -1.148   5.540  0.00  0.00    +0.002 C 
ATOM      9  C   UNL     1       8.153  -0.394   6.401  0.00  0.00    +0.000 C 
ATOM     10  C   UNL     1       8.327   1.018   5.831  0.00  0.00    -0.002 C 
ATOM     11  C   UNL     1       8.903   0.905   4.420  0.00  0.00    -0.015 C 
ATOM     12  C   UNL     1       8.000   0.095   3.507  0.00  0.00    -0.068 C 
ATOM     13  N   UNL     1       6.704   0.756   3.284  0.00  0.00    +0.389 N 
ATOM     14  H   UNL     1       6.755   1.343   2.465  0.00  0.00    -0.084 HD
ATOM     15  H   UNL     1       6.461   1.313   4.090  0.00  0.00    -0.084 HD
ENDBRANCH   2   5
BRANCH   1  24
ATOM     16  C   UNL     1      -0.017   1.377   0.010  0.00  0.00    +0.000 A 
ATOM     17  C   UNL     1       1.172   2.083   0.002  0.00  0.00    +0.000 A 
ATOM     18  C   UNL     1       2.376   1.406  -0.013  0.00  0.00    +0.006 A 
ATOM     19  C   UNL     1       2.396   0.021  -0.021  0.00  0.00    -0.024 A 
ATOM     20  C   UNL     1       1.208  -0.685  -0.013  0.00  0.00    -0.042 A 
ATOM     21  C   UNL     1       0.002  -0.004   0.002  0.00  0.00    +0.004 A 
ATOM     22  C   UNL     1       1.496  -2.171  -0.025  0.00  0.00    +0.037 C 
ATOM     23  C   UNL     1       2.966  -2.294  -0.480  0.00  0.00    +0.032 C 
ATOM     24  C   UNL     1       3.564  -0.942  -0.037  0.00  0.00    +0.104 C 
ENDBRANCH   1  24
TORSDOF 2
