REMARK  Name = ZINC35427008
REMARK  7 active torsions:
REMARK  status: ('A' for Active; 'I' for Inactive)
REMARK    1  A    between atoms: C_1  and  N_2
REMARK    2  A    between atoms: C_16  and  C_28
REMARK    3  A    between atoms: N_22  and  C_23
REMARK    4  A    between atoms: C_23  and  C_24
REMARK    5  A    between atoms: C_24  and  C_25
REMARK    6  A    between atoms: C_25  and  O_26
REMARK    7  A    between atoms: O_26  and  C_27
REMARK                            x       y       z     vdW  Elec       q    Type
REMARK                         _______ _______ _______ _____ _____    ______ ____
ROOT
ATOM      1  C   UNL     1      -0.388   1.339  -1.700  0.00  0.00    -0.096 C 
ATOM      2  N   UNL     1      -0.312  -0.099  -1.409  0.00  0.00    +0.381 N 
ATOM      3  C   UNL     1      -1.646  -0.698  -1.548  0.00  0.00    -0.074 C 
ATOM      4  C   UNL     1      -1.545  -2.225  -1.564  0.00  0.00    +0.018 C 
ATOM      5  C   UNL     1      -0.748  -2.659  -0.336  0.00  0.00    -0.034 A 
ATOM      6  C   UNL     1      -0.759  -3.976   0.159  0.00  0.00    +0.004 A 
ATOM      7  C   UNL     1       0.007  -4.222   1.258  0.00  0.00    +0.090 A 
ATOM      8  S   UNL     1       0.736  -2.661   1.650  0.00  0.00    -0.077 S 
ATOM      9  C   UNL     1       0.011  -1.739   0.320  0.00  0.00    -0.021 A 
ATOM     10  C   UNL     1       0.173  -0.297  -0.030  0.00  0.00    -0.036 C 
ATOM     11  N   UNL     1       0.135  -5.470   1.854  0.00  0.00    -0.312 N 
ATOM     12  C   UNL     1       0.091  -5.851   3.152  0.00  0.00    +0.092 A 
ATOM     13  C   UNL     1       0.201  -7.198   3.197  0.00  0.00    +0.020 A 
ATOM     14  C   UNL     1       0.337  -7.658   1.869  0.00  0.00    +0.025 A 
ATOM     15  C   UNL     1       0.319  -6.583   1.067  0.00  0.00    +0.049 A 
ATOM     16  C   UNL     1       0.504  -6.499  -0.418  0.00  0.00    +0.155 C 
ATOM     17  N   UNL     1      -0.750  -6.115  -1.110  0.00  0.00    -0.269 N 
ATOM     18  C   UNL     1      -1.580  -5.086  -0.458  0.00  0.00    +0.148 C 
ATOM     19  C   UNL     1      -1.114  -6.679  -2.278  0.00  0.00    +0.303 C 
ATOM     20  O   UNL     1      -0.407  -7.525  -2.791  0.00  0.00    -0.253 OA
ATOM     21  N   UNL     1      -2.261  -6.305  -2.879  0.00  0.00    -0.299 N 
ATOM     22  H   UNL     1      -2.825  -5.630  -2.470  0.00  0.00    +0.150 HD
ATOM     23  H   UNL     1       0.324  -0.540  -2.056  0.00  0.00    -0.082 HD
ENDROOT
BRANCH  16  24
ATOM     24  C   UNL     1       1.565  -5.473  -0.724  0.00  0.00    -0.021 A 
ATOM     25  C   UNL     1       2.657  -5.339   0.113  0.00  0.00    +0.007 A 
ATOM     26  C   UNL     1       3.631  -4.399  -0.166  0.00  0.00    +0.020 A 
ATOM     27  C   UNL     1       3.512  -3.591  -1.284  0.00  0.00    +0.041 A 
ATOM     28  C   UNL     1       2.418  -3.726  -2.120  0.00  0.00    +0.020 A 
ATOM     29  C   UNL     1       1.448  -4.671  -1.843  0.00  0.00    +0.007 A 
ATOM     30 CL   UNL     1       4.734  -2.409  -1.635  0.00  0.00    -0.084 Cl
ENDBRANCH  16  24
BRANCH  21  31
ATOM     31  C   UNL     1      -2.656  -6.918  -4.149  0.00  0.00    +0.108 C 
BRANCH  31  32
ATOM     32  C   UNL     1      -3.987  -6.321  -4.612  0.00  0.00    +0.047 C 
BRANCH  32  33
ATOM     33  C   UNL     1      -4.400  -6.962  -5.938  0.00  0.00    +0.161 C 
BRANCH  33  34
ATOM     34  O   UNL     1      -5.643  -6.404  -6.370  0.00  0.00    -0.383 OA
ATOM     35  C   UNL     1      -6.120  -6.937  -7.607  0.00  0.00    +0.193 C 
ENDBRANCH  33  34
ENDBRANCH  32  33
ENDBRANCH  31  32
ENDBRANCH  21  31
TORSDOF 5
