REMARK  Name = ZINC58100811
REMARK  8 active torsions:
REMARK  status: ('A' for Active; 'I' for Inactive)
REMARK    1  A    between atoms: C_1  and  C_2
REMARK    2  A    between atoms: C_7  and  C_8
REMARK    3  A    between atoms: C_8  and  C_10
REMARK    4  A    between atoms: C_8  and  N_24
REMARK    5  A    between atoms: C_14  and  C_17
REMARK    6  A    between atoms: C_15  and  C_16
REMARK    7  A    between atoms: C_21  and  C_22
REMARK    8  A    between atoms: C_21  and  C_23
REMARK                            x       y       z     vdW  Elec       q    Type
REMARK                         _______ _______ _______ _____ _____    ______ ____
ROOT
ATOM      1  C   UNL     1      -1.134   0.424   2.866  0.00  0.00    -0.054 A 
ATOM      2  C   UNL     1      -1.749  -0.237   3.915  0.00  0.00    +0.009 A 
ATOM      3  C   UNL     1      -3.016   0.130   4.309  0.00  0.00    -0.011 A 
ATOM      4  C   UNL     1      -3.691   1.161   3.665  0.00  0.00    +0.041 A 
ATOM      5  C   UNL     1      -3.065   1.820   2.609  0.00  0.00    -0.026 A 
ATOM      6  C   UNL     1      -1.792   1.455   2.221  0.00  0.00    -0.044 A 
ATOM      7  C   UNL     1      -1.119   2.179   1.083  0.00  0.00    +0.044 C 
ATOM      8  C   UNL     1      -3.776   2.941   1.895  0.00  0.00    +0.046 C 
ATOM      9  N   UNL     1      -4.948   1.347   4.240  0.00  0.00    -0.284 N 
ATOM     10  C   UNL     1      -5.176   0.492   5.252  0.00  0.00    +0.227 C 
ATOM     11  O   UNL     1      -6.182   0.428   5.928  0.00  0.00    -0.275 OA
ATOM     12  C   UNL     1      -3.944  -0.375   5.389  0.00  0.00    +0.068 C 
ATOM     13  C   UNL     1      -4.293  -1.845   5.151  0.00  0.00    +0.025 C 
ATOM     14  C   UNL     1      -3.309  -0.191   6.769  0.00  0.00    +0.025 C 
ATOM     15  H   UNL     1      -5.585   2.015   3.943  0.00  0.00    +0.155 HD
ENDROOT
BRANCH   1  16
ATOM     16  C   UNL     1       0.253   0.025   2.431  0.00  0.00    -0.013 C 
BRANCH  16  23
ATOM     17  C   UNL     1      -0.559  -2.309   0.935  0.00  0.00    +0.044 C 
ATOM     18  C   UNL     1       0.179  -2.469   2.240  0.00  0.00    -0.049 A 
ATOM     19  C   UNL     1       0.471  -3.733   2.718  0.00  0.00    +0.003 A 
ATOM     20  C   UNL     1       1.148  -3.880   3.914  0.00  0.00    +0.000 A 
ATOM     21  C   UNL     1       1.532  -2.763   4.633  0.00  0.00    +0.000 A 
ATOM     22  C   UNL     1       1.240  -1.499   4.154  0.00  0.00    +0.002 A 
ATOM     23  C   UNL     1       0.567  -1.352   2.956  0.00  0.00    -0.055 A 
ENDBRANCH  16  23
BRANCH  16  24
ATOM     24  N   UNL     1       1.228   0.986   2.965  0.00  0.00    +0.385 N 
ATOM     25  H   UNL     1       2.163   0.671   2.750  0.00  0.00    -0.089 HD
ATOM     26  H   UNL     1       1.074   1.890   2.545  0.00  0.00    -0.089 HD
ATOM     27  H   UNL     1       1.119   1.056   3.965  0.00  0.00    -0.089 HD
ENDBRANCH  16  24
ENDBRANCH   1  16
TORSDOF 3
