REMARK  Name = ZINC67588027
REMARK  9 active torsions:
REMARK  status: ('A' for Active; 'I' for Inactive)
REMARK    1  A    between atoms: C_4  and  C_7
REMARK    2  A    between atoms: C_7  and  C_8
REMARK    3  A    between atoms: C_8  and  C_9
REMARK    4  A    between atoms: C_9  and  N_10
REMARK    5  A    between atoms: C_14  and  C_17
REMARK    6  A    between atoms: C_14  and  O_30
REMARK    7  A    between atoms: C_17  and  N_18
REMARK    8  A    between atoms: N_18  and  C_19
REMARK    9  A    between atoms: C_19  and  C_20
REMARK                            x       y       z     vdW  Elec       q    Type
REMARK                         _______ _______ _______ _____ _____    ______ ____
ROOT
ATOM      1  N   UNL     1       5.951  -1.942   2.769  0.00  0.00    -0.299 N 
ATOM      2  C   UNL     1       6.793  -0.943   3.416  0.00  0.00    +0.108 C 
ATOM      3  C   UNL     1       7.536  -1.557   4.604  0.00  0.00    +0.022 C 
ATOM      4  C   UNL     1       6.521  -2.284   5.494  0.00  0.00    +0.044 C 
ATOM      5  C   UNL     1       5.983  -3.494   4.727  0.00  0.00    +0.127 C 
ATOM      6  C   UNL     1       5.557  -3.076   3.349  0.00  0.00    +0.245 C 
ATOM      7  O   UNL     1       4.818  -3.811   2.728  0.00  0.00    -0.273 OA
ENDROOT
BRANCH   5   8
ATOM      8  O   UNL     1       7.006  -4.488   4.631  0.00  0.00    -0.381 OA
ATOM      9  H   UNL     1       6.736  -5.286   4.156  0.00  0.00    +0.211 HD
ENDBRANCH   5   8
BRANCH   1  10
ATOM     10  C   UNL     1       5.505  -1.680   1.399  0.00  0.00    +0.108 C 
BRANCH  10  11
ATOM     11  C   UNL     1       4.177  -0.921   1.431  0.00  0.00    +0.024 C 
BRANCH  11  12
ATOM     12  C   UNL     1       3.711  -0.647  -0.000  0.00  0.00    +0.036 C 
BRANCH  12  16
ATOM     13  C   UNL     1       0.003   1.472   0.088  0.00  0.00    +0.000 A 
ATOM     14  C   UNL     1       1.197   2.169   0.080  0.00  0.00    +0.000 A 
ATOM     15  C   UNL     1       2.397   1.483   0.051  0.00  0.00    +0.003 A 
ATOM     16  C   UNL     1       2.403   0.101   0.032  0.00  0.00    -0.047 A 
ATOM     17  C   UNL     1       1.209  -0.596   0.040  0.00  0.00    +0.003 A 
ATOM     18  C   UNL     1       0.009   0.090   0.067  0.00  0.00    +0.000 A 
ENDBRANCH  12  16
ENDBRANCH  11  12
ENDBRANCH  10  11
ENDBRANCH   1  10
BRANCH   5  19
ATOM     19  C   UNL     1       4.781  -4.076   5.473  0.00  0.00    -0.037 C 
BRANCH  19  20
ATOM     20  N   UNL     1       5.190  -4.477   6.825  0.00  0.00    +0.385 N 
ATOM     21  H   UNL     1       5.974  -5.109   6.766  0.00  0.00    -0.085 HD
ATOM     22  H   UNL     1       5.458  -3.659   7.352  0.00  0.00    -0.085 HD
BRANCH  20  23
ATOM     23  C   UNL     1       4.070  -5.148   7.498  0.00  0.00    -0.028 C 
BRANCH  23  24
ATOM     24  C   UNL     1       4.490  -5.559   8.885  0.00  0.00    -0.000 A 
ATOM     25  C   UNL     1       4.967  -6.769   9.219  0.00  0.00    +0.029 A 
ATOM     26  C   UNL     1       5.248  -6.736  10.656  0.00  0.00    -0.000 A 
ATOM     27  C   UNL     1       5.748  -7.667  11.569  0.00  0.00    +0.010 A 
ATOM     28  C   UNL     1       5.897  -7.319  12.881  0.00  0.00    +0.001 A 
ATOM     29  C   UNL     1       5.555  -6.045  13.316  0.00  0.00    +0.002 A 
ATOM     30  C   UNL     1       5.060  -5.111  12.433  0.00  0.00    +0.026 A 
ATOM     31  C   UNL     1       4.900  -5.444  11.092  0.00  0.00    +0.047 A 
ATOM     32  N   UNL     1       4.448  -4.753   9.990  0.00  0.00    -0.360 N 
ATOM     33  H   UNL     1       4.143  -3.832   9.997  0.00  0.00    +0.166 HD
ENDBRANCH  23  24
ENDBRANCH  20  23
ENDBRANCH  19  20
ENDBRANCH   5  19
TORSDOF 9
