REMARK  Name = ZINC52860397
REMARK  4 active torsions:
REMARK  status: ('A' for Active; 'I' for Inactive)
REMARK    1  A    between atoms: C_3  and  N_19
REMARK    2  A    between atoms: C_4  and  O_8
REMARK    3  A    between atoms: O_8  and  C_9
REMARK    4  A    between atoms: C_14  and  C_15
REMARK                            x       y       z     vdW  Elec       q    Type
REMARK                         _______ _______ _______ _____ _____    ______ ____
ROOT
ATOM      1  C   UNL     1       3.709  -1.991  -0.219  0.00  0.00    +0.139 A 
ATOM      2  C   UNL     1       2.563  -2.759  -0.369  0.00  0.00    +0.048 A 
ATOM      3  C   UNL     1       2.630  -4.132  -0.248  0.00  0.00    +0.023 A 
ATOM      4  C   UNL     1       3.839  -4.754   0.023  0.00  0.00    +0.042 A 
ATOM      5  C   UNL     1       4.987  -4.006   0.174  0.00  0.00    +0.035 A 
ATOM      6  C   UNL     1       4.934  -2.616   0.050  0.00  0.00    +0.056 A 
ATOM      7 CL   UNL     1       3.907  -6.482   0.173  0.00  0.00    -0.084 Cl
ENDROOT
BRANCH   6   8
ATOM      8  C   UNL     1       6.161  -1.809   0.205  0.00  0.00    +0.098 C 
ATOM      9  N   UNL     1       6.207  -0.835   1.113  0.00  0.00    -0.387 N 
ATOM     10  N   UNL     1       7.222  -2.055  -0.562  0.00  0.00    -0.344 N 
ATOM     11  H   UNL     1       5.463  -0.703   1.722  0.00  0.00    +0.157 HD
ATOM     12  H   UNL     1       7.188  -2.764  -1.223  0.00  0.00    +0.144 HD
ATOM     13  H   UNL     1       8.028  -1.525  -0.460  0.00  0.00    +0.144 HD
ATOM     14  H   UNL     1       6.984  -0.257   1.166  0.00  0.00    +0.157 HD
ENDBRANCH   6   8
BRANCH   1  15
ATOM     15  O   UNL     1       3.645  -0.641  -0.337  0.00  0.00    -0.453 OA
BRANCH  15  19
ATOM     16  C   UNL     1       4.470   1.023  -4.022  0.00  0.00    +0.022 A 
ATOM     17  C   UNL     1       4.247   1.841  -2.929  0.00  0.00    +0.038 A 
ATOM     18  C   UNL     1       3.971   1.286  -1.695  0.00  0.00    +0.168 A 
ATOM     19  C   UNL     1       3.917  -0.093  -1.551  0.00  0.00    +0.160 A 
ATOM     20  C   UNL     1       4.141  -0.912  -2.648  0.00  0.00    +0.068 A 
ATOM     21  C   UNL     1       4.417  -0.352  -3.882  0.00  0.00    +0.045 A 
ATOM     22 CL   UNL     1       4.698  -1.376  -5.255  0.00  0.00    -0.083 Cl
BRANCH  18  23
ATOM     23  N   UNL     1       3.732   2.162  -0.526  0.00  0.00    +0.060 N 
ATOM     24  O   UNL     1       3.874   3.358  -0.628  0.00  0.00    -0.126 OA
ATOM     25  O   UNL     1       3.396   1.682   0.531  0.00  0.00    -0.126 OA
ENDBRANCH  18  23
ENDBRANCH  15  19
ENDBRANCH   1  15
TORSDOF 4
