REMARK  Name = ZINC63384068
REMARK  6 active torsions:
REMARK  status: ('A' for Active; 'I' for Inactive)
REMARK    1  A    between atoms: C_1  and  C_2
REMARK    2  A    between atoms: C_2  and  C_3
REMARK    3  A    between atoms: C_3  and  N_4
REMARK    4  A    between atoms: C_7  and  C_14
REMARK    5  A    between atoms: N_28  and  C_29
REMARK    6  A    between atoms: C_29  and  C_30
REMARK                            x       y       z     vdW  Elec       q    Type
REMARK                         _______ _______ _______ _____ _____    ______ ____
ROOT
ATOM      1  C   UNL     1      -1.387  -4.829  -2.472  0.00  0.00    -0.000 C 
ATOM      2  C   UNL     1      -0.094  -4.536  -3.237  0.00  0.00    +0.097 C 
ATOM      3  C   UNL     1      -0.239  -5.218  -4.593  0.00  0.00    -0.041 C 
ATOM      4  C   UNL     1       0.829  -5.989  -4.740  0.00  0.00    -0.001 A 
ATOM      5  C   UNL     1       1.295  -6.816  -5.865  0.00  0.00    +0.010 A 
ATOM      6  C   UNL     1       2.451  -7.503  -5.666  0.00  0.00    +0.001 A 
ATOM      7  C   UNL     1       3.181  -7.451  -4.474  0.00  0.00    +0.002 A 
ATOM      8  C   UNL     1       2.830  -6.712  -3.392  0.00  0.00    +0.026 A 
ATOM      9  C   UNL     1       1.635  -5.941  -3.482  0.00  0.00    +0.043 A 
ATOM     10  N   UNL     1       1.084  -5.125  -2.605  0.00  0.00    -0.379 N 
ATOM     11  C   UNL     1      -1.475  -5.032  -5.440  0.00  0.00    +0.015 C 
ATOM     12  C   UNL     1      -2.675  -5.233  -4.496  0.00  0.00    -0.073 C 
ATOM     13  N   UNL     1      -2.524  -4.401  -3.300  0.00  0.00    +0.386 N 
ATOM     14  H   UNL     1       1.394  -4.947  -1.703  0.00  0.00    +0.160 HD
ATOM     15  H   UNL     1      -2.382  -3.443  -3.583  0.00  0.00    -0.081 HD
ENDROOT
BRANCH   1  19
ATOM     16  N   UNL     1      -1.413  -1.998   0.005  0.00  0.00    -0.261 N 
ATOM     17  C   UNL     1      -1.410  -2.661  -1.169  0.00  0.00    +0.262 A 
ATOM     18  O   UNL     1      -1.423  -2.046  -2.221  0.00  0.00    -0.267 OA
ATOM     19  C   UNL     1      -1.390  -4.067  -1.171  0.00  0.00    +0.070 A 
ATOM     20  H   UNL     1      -1.369  -4.486   2.040  0.00  0.00    +0.173 HD
ATOM     21  C   UNL     1      -1.375  -4.731   0.019  0.00  0.00    +0.259 A 
ATOM     22  N   UNL     1      -1.380  -4.018   1.190  0.00  0.00    -0.275 N 
ATOM     23  C   UNL     1      -1.393  -2.672   1.169  0.00  0.00    +0.332 A 
ATOM     24  O   UNL     1      -1.392  -2.057   2.218  0.00  0.00    -0.246 OA
ATOM     25  O   UNL     1      -1.357  -6.081   0.044  0.00  0.00    -0.267 OA
BRANCH  16  26
ATOM     26  C   UNL     1      -1.433  -0.534   0.013  0.00  0.00    +0.130 C 
BRANCH  26  28
ATOM     27  C   UNL     1      -0.019   1.526   0.010  0.00  0.00    +0.005 C 
ATOM     28  C   UNL     1       0.002  -0.004   0.002  0.00  0.00    +0.018 C 
ENDBRANCH  26  28
ENDBRANCH  16  26
ENDBRANCH   1  19
BRANCH  13  29
ATOM     29  C   UNL     1      -3.755  -4.484  -2.502  0.00  0.00    -0.081 C 
ATOM     30  C   UNL     1      -4.926  -3.923  -3.311  0.00  0.00    -0.017 C 
ENDBRANCH  13  29
TORSDOF 4
