REMARK  Name = ZINC08837796
REMARK  12 active torsions:
REMARK  status: ('A' for Active; 'I' for Inactive)
REMARK    1  A    between atoms: C_1  and  N_63
REMARK    2  A    between atoms: C_9  and  O_35
REMARK    3  A    between atoms: C_11  and  C_14
REMARK    4  A    between atoms: C_17  and  O_20
REMARK    5  A    between atoms: O_20  and  C_21
REMARK    6  A    between atoms: C_21  and  C_23
REMARK    7  A    between atoms: C_25  and  O_33
REMARK    8  A    between atoms: C_26  and  O_31
REMARK    9  A    between atoms: C_27  and  O_29
REMARK   10  A    between atoms: O_29  and  C_30
REMARK   11  A    between atoms: O_31  and  C_32
REMARK   12  A    between atoms: O_33  and  C_34
REMARK                            x       y       z     vdW  Elec       q    Type
REMARK                         _______ _______ _______ _____ _____    ______ ____
ROOT
ATOM      1  C   UNL     1       1.969  -6.913  -0.156  0.00  0.00    -0.005 A 
ATOM      2  C   UNL     1       3.235  -6.361  -0.092  0.00  0.00    +0.011 A 
ATOM      3  C   UNL     1       3.389  -4.989  -0.052  0.00  0.00    +0.047 A 
ATOM      4  C   UNL     1       2.273  -4.165  -0.075  0.00  0.00    +0.132 A 
ATOM      5  C   UNL     1       1.004  -4.722  -0.133  0.00  0.00    +0.047 A 
ATOM      6  C   UNL     1       0.855  -6.095  -0.179  0.00  0.00    +0.011 A 
ENDROOT
BRANCH   1  17
ATOM      7  C   UNL     1       0.514  -9.750   8.062  0.00  0.00    -0.096 C 
ATOM      8  C   UNL     1       2.134  -9.225   6.339  0.00  0.00    -0.074 C 
ATOM      9  C   UNL     1       2.597  -9.629   4.937  0.00  0.00    +0.018 C 
ATOM     10  C   UNL     1       1.478  -9.303   3.954  0.00  0.00    -0.027 A 
ATOM     11  C   UNL     1       0.219  -9.095   4.408  0.00  0.00    -0.021 A 
ATOM     12  S   UNL     1      -0.739  -8.756   2.956  0.00  0.00    -0.080 S 
ATOM     13  C   UNL     1       0.501  -8.892   1.783  0.00  0.00    +0.080 A 
ATOM     14  C   UNL     1       1.656  -9.188   2.519  0.00  0.00    +0.067 A 
ATOM     15  C   UNL     1       2.919  -9.367   1.757  0.00  0.00    +0.220 C 
ATOM     16  N   UNL     1       2.921  -9.034   0.496  0.00  0.00    -0.223 NA
ATOM     17  C   UNL     1       1.803  -8.411  -0.200  0.00  0.00    +0.224 C 
ATOM     18  N   UNL     1       0.512  -8.770   0.416  0.00  0.00    -0.313 N 
ATOM     19  C   UNL     1      -0.234  -9.151   5.833  0.00  0.00    -0.036 C 
ATOM     20  H   UNL     1      -0.287  -8.913  -0.115  0.00  0.00    +0.149 HD
ATOM     21  N   UNL     1       0.820  -9.839   6.618  0.00  0.00    +0.381 N 
ATOM     22  H   UNL     1       0.848 -10.829   6.344  0.00  0.00    -0.082 HD
BRANCH  15  23
ATOM     23  O   UNL     1       4.030  -9.859   2.352  0.00  0.00    -0.492 OA
ATOM     24  H   UNL     1       4.792  -9.932   1.762  0.00  0.00    +0.294 HD
ENDBRANCH  15  23
ENDBRANCH   1  17
BRANCH   4  25
ATOM     25  O   UNL     1       2.423  -2.815  -0.036  0.00  0.00    -0.422 OA
BRANCH  25  26
ATOM     26  C   UNL     1       2.804  -2.208  -1.177  0.00  0.00    +0.345 C 
ATOM     27  O   UNL     1       3.083  -2.873  -2.155  0.00  0.00    -0.245 OA
BRANCH  26  28
ATOM     28  C   UNL     1       2.881  -0.737  -1.240  0.00  0.00    +0.067 A 
ATOM     29  C   UNL     1       3.276  -0.106  -2.423  0.00  0.00    +0.064 A 
ATOM     30  C   UNL     1       3.347   1.274  -2.478  0.00  0.00    +0.166 A 
ATOM     31  C   UNL     1       3.027   2.034  -1.357  0.00  0.00    +0.204 A 
ATOM     32  C   UNL     1       2.634   1.409  -0.177  0.00  0.00    +0.166 A 
ATOM     33  C   UNL     1       2.560   0.030  -0.116  0.00  0.00    +0.064 A 
BRANCH  32  34
ATOM     34  O   UNL     1       2.321   2.155   0.916  0.00  0.00    -0.491 OA
ATOM     35  C   UNL     1       1.926   1.447   2.093  0.00  0.00    +0.277 C 
ENDBRANCH  32  34
BRANCH  31  36
ATOM     36  O   UNL     1       3.099   3.390  -1.414  0.00  0.00    -0.488 OA
ATOM     37  C   UNL     1       1.918   4.085  -1.821  0.00  0.00    +0.277 C 
ENDBRANCH  31  36
BRANCH  30  38
ATOM     38  O   UNL     1       3.736   1.888  -3.628  0.00  0.00    -0.491 OA
ATOM     39  C   UNL     1       4.056   1.046  -4.737  0.00  0.00    +0.277 C 
ENDBRANCH  30  38
ENDBRANCH  26  28
ENDBRANCH  25  26
ENDBRANCH   4  25
TORSDOF 8
