REMARK  Name = ZINC12034724
REMARK  10 active torsions:
REMARK  status: ('A' for Active; 'I' for Inactive)
REMARK    1  A    between atoms: C_1  and  C_2
REMARK    2  A    between atoms: C_2  and  O_3
REMARK    3  A    between atoms: O_3  and  C_4
REMARK    4  A    between atoms: C_6  and  C_11
REMARK    5  A    between atoms: C_9  and  O_10
REMARK    6  A    between atoms: C_11  and  N_57
REMARK    7  A    between atoms: C_13  and  S_24
REMARK    8  A    between atoms: C_16  and  C_18
REMARK    9  A    between atoms: N_20  and  C_21
REMARK   10  A    between atoms: S_24  and  C_25
REMARK                            x       y       z     vdW  Elec       q    Type
REMARK                         _______ _______ _______ _____ _____    ______ ____
ROOT
ATOM      1  C   UNL     1      -2.141   1.435   0.813  0.00  0.00    -0.063 C 
ATOM      2  C   UNL     1      -0.638   1.584   1.179  0.00  0.00    +0.034 C 
ATOM      3  C   UNL     1       0.046   1.143  -0.141  0.00  0.00    +0.006 C 
ATOM      4  C   UNL     1      -0.907   1.682  -1.229  0.00  0.00    +0.021 C 
ATOM      5  N   UNL     1      -2.221   1.876  -0.594  0.00  0.00    +0.391 N 
ATOM      6  H   UNL     1      -2.469   2.873  -0.624  0.00  0.00    -0.080 HD
ENDROOT
BRANCH   4   7
ATOM      7  C   UNL     1      -1.004   0.693  -2.362  0.00  0.00    +0.200 C 
ATOM      8  O   UNL     1      -1.398  -0.435  -2.151  0.00  0.00    -0.278 OA
ATOM      9  N   UNL     1      -0.653   1.061  -3.610  0.00  0.00    -0.314 N 
ATOM     10  H   UNL     1      -0.338   1.963  -3.778  0.00  0.00    +0.149 HD
BRANCH   9  11
ATOM     11  C   UNL     1      -0.747   0.100  -4.711  0.00  0.00    +0.073 C 
ATOM     12  C   UNL     1       0.419   0.043  -5.700  0.00  0.00    +0.024 C 
ATOM     13  C   UNL     1      -0.915   0.660  -6.125  0.00  0.00    +0.024 C 
ENDBRANCH   9  11
ENDBRANCH   4   7
BRANCH   5  14
ATOM     14  C   UNL     1      -3.260   1.097  -1.316  0.00  0.00    -0.042 C 
BRANCH  14  17
ATOM     15  C   UNL     1      -6.169   0.528   1.026  0.00  0.00    +0.162 A 
ATOM     16  C   UNL     1      -4.954   0.375   0.378  0.00  0.00    +0.051 A 
ATOM     17  C   UNL     1      -4.584   1.261  -0.616  0.00  0.00    -0.060 A 
ATOM     18  C   UNL     1      -5.430   2.295  -0.974  0.00  0.00    +0.005 A 
ATOM     19  C   UNL     1      -6.646   2.450  -0.336  0.00  0.00    +0.049 A 
ATOM     20  C   UNL     1      -7.020   1.568   0.666  0.00  0.00    +0.158 A 
BRANCH  20  21
ATOM     21  O   UNL     1      -8.216   1.719   1.295  0.00  0.00    -0.503 OA
ATOM     22  H   UNL     1      -8.944   1.241   0.875  0.00  0.00    +0.292 HD
ENDBRANCH  20  21
BRANCH  15  23
ATOM     23  O   UNL     1      -6.531  -0.340   2.009  0.00  0.00    -0.489 OA
BRANCH  23  25
ATOM     24  C   UNL     1      -6.185  -2.252   3.445  0.00  0.00    +0.048 C 
ATOM     25  C   UNL     1      -5.608  -1.383   2.326  0.00  0.00    +0.226 C 
ENDBRANCH  23  25
ENDBRANCH  15  23
ENDBRANCH  14  17
ENDBRANCH   5  14
BRANCH   2  26
ATOM     26  S   UNL     1      -0.185   0.481   2.546  0.00  0.00    -0.124 S 
BRANCH  26  27
ATOM     27  C   UNL     1      -0.929   1.225   3.959  0.00  0.00    +0.008 A 
ATOM     28  C   UNL     1      -1.655   2.402   3.825  0.00  0.00    +0.017 A 
ATOM     29  C   UNL     1      -2.242   2.980   4.933  0.00  0.00    +0.039 A 
ATOM     30  C   UNL     1      -2.099   2.394   6.179  0.00  0.00    +0.123 A 
ATOM     31  C   UNL     1      -1.371   1.224   6.317  0.00  0.00    +0.039 A 
ATOM     32  C   UNL     1      -0.787   0.639   5.211  0.00  0.00    +0.017 A 
ATOM     33  F   UNL     1      -2.669   2.965   7.263  0.00  0.00    -0.205 F 
ENDBRANCH  26  27
ENDBRANCH   2  26
TORSDOF 9
