REMARK  Name = ZINC21628497
REMARK  12 active torsions:
REMARK  status: ('A' for Active; 'I' for Inactive)
REMARK    1  A    between atoms: C_1  and  C_2
REMARK    2  A    between atoms: C_4  and  C_34
REMARK    3  A    between atoms: C_6  and  O_8
REMARK    4  A    between atoms: O_8  and  C_9
REMARK    5  A    between atoms: C_9  and  C_10
REMARK    6  A    between atoms: C_13  and  S_16
REMARK    7  A    between atoms: N_14  and  N_15
REMARK    8  A    between atoms: S_16  and  C_17
REMARK    9  A    between atoms: C_17  and  C_19
REMARK   10  A    between atoms: C_17  and  C_20
REMARK   11  A    between atoms: N_22  and  C_23
REMARK   12  A    between atoms: C_28  and  C_29
REMARK                            x       y       z     vdW  Elec       q    Type
REMARK                         _______ _______ _______ _____ _____    ______ ____
ROOT
ATOM      1  C   UNL     1      -6.907  -4.603   0.398  0.00  0.00    +0.189 A 
ATOM      2  N   UNL     1      -7.224  -3.419  -0.045  0.00  0.00    -0.128 NA
ATOM      3  N   UNL     1      -6.178  -2.674  -0.100  0.00  0.00    -0.121 NA
ATOM      4  C   UNL     1      -5.127  -3.351   0.300  0.00  0.00    +0.209 A 
ATOM      5  N   UNL     1      -5.560  -4.602   0.633  0.00  0.00    -0.225 N 
ENDROOT
BRANCH   5   6
ATOM      6  N   UNL     1      -4.805  -5.639   1.104  0.00  0.00    -0.295 N 
ATOM      7  H   UNL     1      -3.723  -5.508   1.251  0.00  0.00    +0.163 HD
ATOM      8  H   UNL     1      -5.279  -6.604   1.337  0.00  0.00    +0.163 HD
ENDBRANCH   5   6
BRANCH   1   9
ATOM      9  C   UNL     1      -7.851  -5.758   0.611  0.00  0.00    +0.306 C 
BRANCH   9  10
ATOM     10  O   UNL     1      -8.370  -5.711   1.941  0.00  0.00    -0.484 OA
BRANCH  10  16
ATOM     11  C   UNL     1     -10.858  -9.741   0.764  0.00  0.00    +0.044 C 
ATOM     12  C   UNL     1     -10.479  -8.669   1.753  0.00  0.00    -0.047 A 
ATOM     13  C   UNL     1     -11.019  -8.682   3.026  0.00  0.00    +0.007 A 
ATOM     14  C   UNL     1     -10.672  -7.700   3.936  0.00  0.00    -0.047 A 
ATOM     15  C   UNL     1      -9.785  -6.704   3.575  0.00  0.00    +0.049 A 
ATOM     16  C   UNL     1      -9.242  -6.689   2.298  0.00  0.00    +0.122 A 
ATOM     17  C   UNL     1      -9.596  -7.672   1.385  0.00  0.00    +0.049 A 
ATOM     18  C   UNL     1     -11.262  -7.717   5.322  0.00  0.00    +0.044 C 
ENDBRANCH  10  16
ENDBRANCH   9  10
ENDBRANCH   1   9
BRANCH   4  19
ATOM     19  S   UNL     1      -3.471  -2.756   0.396  0.00  0.00    -0.072 S 
BRANCH  19  20
ATOM     20  C   UNL     1      -3.711  -1.063  -0.200  0.00  0.00    +0.137 C 
ATOM     21  C   UNL     1      -4.159  -1.096  -1.663  0.00  0.00    +0.029 C 
BRANCH  20  22
ATOM     22  C   UNL     1      -2.414  -0.303  -0.089  0.00  0.00    +0.230 C 
ATOM     23  O   UNL     1      -1.359  -0.900  -0.097  0.00  0.00    -0.274 OA
ATOM     24  N   UNL     1      -2.428   1.040   0.020  0.00  0.00    -0.284 N 
ATOM     25  H   UNL     1      -3.385   1.576   0.102  0.00  0.00    +0.155 HD
BRANCH  24  26
ATOM     26  C   UNL     1      -1.224   1.754   0.028  0.00  0.00    +0.045 A 
ATOM     27  C   UNL     1      -0.095   1.207   0.625  0.00  0.00    +0.025 A 
ATOM     28  C   UNL     1       1.093   1.911   0.627  0.00  0.00    +0.022 A 
ATOM     29  C   UNL     1       1.158   3.162   0.039  0.00  0.00    +0.042 A 
ATOM     30  C   UNL     1       0.034   3.711  -0.552  0.00  0.00    +0.034 A 
ATOM     31  C   UNL     1      -1.157   3.011  -0.557  0.00  0.00    +0.077 A 
ATOM     32 CL   UNL     1       2.654   4.044   0.043  0.00  0.00    -0.084 Cl
BRANCH  31  33
ATOM     33  C   UNL     1      -2.381   3.610  -1.201  0.00  0.00    +0.419 C 
ATOM     34  F   UNL     1      -2.065   4.869  -1.722  0.00  0.00    -0.166 F 
ATOM     35  F   UNL     1      -2.819   2.775  -2.235  0.00  0.00    -0.166 F 
ATOM     36  F   UNL     1      -3.394   3.740  -0.246  0.00  0.00    -0.166 F 
ENDBRANCH  31  33
ENDBRANCH  24  26
ENDBRANCH  20  22
ENDBRANCH  19  20
ENDBRANCH   4  19
TORSDOF 9
