REMARK  Name = ZINC15729130
REMARK  6 active torsions:
REMARK  status: ('A' for Active; 'I' for Inactive)
REMARK    1  A    between atoms: C_1  and  O_2
REMARK    2  A    between atoms: O_2  and  C_3
REMARK    3  A    between atoms: C_8  and  N_9
REMARK    4  A    between atoms: N_11  and  C_12
REMARK    5  A    between atoms: C_12  and  C_14
REMARK    6  A    between atoms: N_24  and  C_27
REMARK                            x       y       z     vdW  Elec       q    Type
REMARK                         _______ _______ _______ _____ _____    ______ ____
ROOT
ATOM      1  N   UNL     1      -0.270  -2.962   0.464  0.00  0.00    -0.286 N 
ATOM      2  C   UNL     1      -0.169  -4.212  -0.075  0.00  0.00    +0.179 C 
ATOM      3  N   UNL     1      -1.250  -4.964  -0.211  0.00  0.00    -0.147 NA
ATOM      4  N   UNL     1       1.047  -4.686  -0.475  0.00  0.00    -0.308 N 
ATOM      5  C   UNL     1       2.277  -3.918  -0.227  0.00  0.00    +0.089 C 
ATOM      6  C   UNL     1       3.303  -4.845   0.432  0.00  0.00    -0.059 C 
ATOM      7  N   UNL     1       3.492  -6.038  -0.403  0.00  0.00    +0.384 N 
ATOM      8  C   UNL     1       2.243  -6.809  -0.462  0.00  0.00    -0.059 C 
ATOM      9  C   UNL     1       1.165  -5.982  -1.160  0.00  0.00    +0.089 C 
ATOM     10  H   UNL     1      -0.668  -2.843   1.340  0.00  0.00    +0.155 HD
ATOM     11  H   UNL     1       3.756  -5.756  -1.335  0.00  0.00    -0.081 HD
ENDROOT
BRANCH   1  17
ATOM     12  C   UNL     1       0.009  -0.567   0.254  0.00  0.00    +0.141 A 
ATOM     13  C   UNL     1       0.481   0.527  -0.453  0.00  0.00    +0.047 A 
ATOM     14  C   UNL     1       1.138   0.343  -1.655  0.00  0.00    +0.004 A 
ATOM     15  C   UNL     1       1.326  -0.932  -2.156  0.00  0.00    +0.002 A 
ATOM     16  C   UNL     1       0.857  -2.029  -1.458  0.00  0.00    +0.027 A 
ATOM     17  C   UNL     1       0.202  -1.852  -0.248  0.00  0.00    +0.075 A 
BRANCH  12  19
ATOM     18  C   UNL     1      -0.799   0.959   1.890  0.00  0.00    +0.277 C 
ATOM     19  O   UNL     1      -0.637  -0.387   1.437  0.00  0.00    -0.493 OA
ENDBRANCH  12  19
ENDBRANCH   1  17
BRANCH   7  20
ATOM     20  C   UNL     1       4.554  -6.873   0.172  0.00  0.00    -0.068 C 
ATOM     21  C   UNL     1       5.859  -6.075   0.224  0.00  0.00    -0.015 C 
ATOM     22  C   UNL     1       6.966  -6.945   0.823  0.00  0.00    -0.002 C 
ATOM     23  C   UNL     1       7.163  -8.189  -0.046  0.00  0.00    -0.000 C 
ATOM     24  C   UNL     1       5.859  -8.987  -0.098  0.00  0.00    -0.002 C 
ATOM     25  C   UNL     1       4.752  -8.117  -0.697  0.00  0.00    -0.015 C 
ENDBRANCH   7  20
BRANCH   3  26
ATOM     26  C   UNL     1      -2.466  -4.421  -0.067  0.00  0.00    +0.270 C 
ATOM     27  O   UNL     1      -2.583  -3.216   0.068  0.00  0.00    -0.268 OA
BRANCH  26  28
ATOM     28  C   UNL     1      -3.668  -5.286  -0.071  0.00  0.00    +0.040 A 
ATOM     29  C   UNL     1      -3.533  -6.674  -0.109  0.00  0.00    +0.013 A 
ATOM     30  C   UNL     1      -4.656  -7.475  -0.113  0.00  0.00    +0.002 A 
ATOM     31  C   UNL     1      -5.916  -6.904  -0.081  0.00  0.00    +0.015 A 
ATOM     32  C   UNL     1      -6.058  -5.528  -0.044  0.00  0.00    +0.019 A 
ATOM     33  C   UNL     1      -4.941  -4.716  -0.033  0.00  0.00    +0.028 A 
ATOM     34 BR   UNL     1      -7.784  -4.758  -0.001  0.00  0.00    -0.050 Br
ENDBRANCH  26  28
ENDBRANCH   3  26
TORSDOF 5
