REMARK  Name = ZINC19255388
REMARK  5 active torsions:
REMARK  status: ('A' for Active; 'I' for Inactive)
REMARK    1  A    between atoms: C_1  and  C_2
REMARK    2  A    between atoms: C_2  and  C_4
REMARK    3  A    between atoms: C_2  and  N_14
REMARK    4  A    between atoms: N_14  and  C_15
REMARK    5  A    between atoms: C_15  and  C_16
REMARK                            x       y       z     vdW  Elec       q    Type
REMARK                         _______ _______ _______ _____ _____    ______ ____
ROOT
ATOM      1  C   UNL     1       6.500   0.364  -1.474  0.00  0.00    -0.006 C 
ATOM      2  C   UNL     1       6.013   0.628  -0.048  0.00  0.00    -0.007 C 
ENDROOT
BRANCH   2   3
ATOM      3  C   UNL     1       4.507   0.692  -0.036  0.00  0.00    +0.092 A 
ATOM      4  C   UNL     1       3.788   1.823  -0.024  0.00  0.00    +0.051 A 
ATOM      5  C   UNL     1       2.379   1.411  -0.013  0.00  0.00    +0.021 A 
ATOM      6  C   UNL     1       1.164   2.095   0.002  0.00  0.00    +0.027 A 
ATOM      7  C   UNL     1      -0.017   1.384   0.010  0.00  0.00    +0.019 A 
ATOM      8  C   UNL     1       0.002  -0.004   0.002  0.00  0.00    +0.019 A 
ATOM      9  C   UNL     1       1.197  -0.691  -0.013  0.00  0.00    +0.048 A 
ATOM     10  C   UNL     1       2.398   0.006  -0.020  0.00  0.00    +0.135 A 
ATOM     11  O   UNL     1       3.691  -0.376  -0.034  0.00  0.00    -0.461 OA
ATOM     12 BR   UNL     1      -1.669   2.304   0.022  0.00  0.00    -0.050 Br
ENDBRANCH   2   3
BRANCH   2  13
ATOM     13  N   UNL     1       6.464  -0.458   0.832  0.00  0.00    +0.391 N 
ATOM     14  H   UNL     1       5.789  -0.532   1.698  0.00  0.00    -0.084 HD
ATOM     15  H   UNL     1       6.456  -1.407   0.277  0.00  0.00    -0.084 HD
BRANCH  13  16
ATOM     16  C   UNL     1       7.827  -0.208   1.319  0.00  0.00    +0.016 C 
BRANCH  16  17
ATOM     17  C   UNL     1       8.255  -1.340   2.217  0.00  0.00    +0.193 C 
ATOM     18  O   UNL     1       7.499  -2.264   2.431  0.00  0.00    -0.278 OA
ATOM     19  N   UNL     1       9.478  -1.326   2.783  0.00  0.00    -0.331 N 
ATOM     20  H   UNL     1       9.790  -2.153   3.439  0.00  0.00    +0.145 HD
ATOM     21  H   UNL     1      10.165  -0.489   2.589  0.00  0.00    +0.145 HD
ENDBRANCH  16  17
ENDBRANCH  13  16
ENDBRANCH   2  13
TORSDOF 4
