REMARK  Name = ZINC09013942
REMARK  4 active torsions:
REMARK  status: ('A' for Active; 'I' for Inactive)
REMARK    1  A    between atoms: C_1  and  C_2
REMARK    2  A    between atoms: C_5  and  N_9
REMARK    3  A    between atoms: C_27  and  C_34
REMARK    4  A    between atoms: C_28  and  C_33
REMARK                            x       y       z     vdW  Elec       q    Type
REMARK                         _______ _______ _______ _____ _____    ______ ____
ROOT
ATOM      1  N   UNL     1       3.693   1.952   2.682  0.00  0.00    -0.209 N 
ATOM      2  C   UNL     1       4.402   2.070   1.520  0.00  0.00    +0.228 C 
ATOM      3  O   UNL     1       5.565   1.781   1.336  0.00  0.00    -0.275 OA
ATOM      4  C   UNL     1       3.433   2.634   0.516  0.00  0.00    +0.074 C 
ATOM      5  C   UNL     1       3.415   2.099  -0.911  0.00  0.00    -0.054 C 
ATOM      6  C   UNL     1       4.081   0.716  -0.997  0.00  0.00    -0.016 C 
ATOM      7  C   UNL     1       3.196  -0.021  -2.038  0.00  0.00    -0.020 C 
ATOM      8  C   UNL     1       1.785   0.504  -1.679  0.00  0.00    -0.076 C 
ATOM      9  C   UNL     1       1.183   2.124   0.002  0.00  0.00    +0.053 C 
ATOM     10  C   UNL     1       2.168   1.847   1.057  0.00  0.00    +0.089 C 
ATOM     11  C   UNL     1       2.336   2.013   2.484  0.00  0.00    +0.229 C 
ATOM     12  O   UNL     1       1.470   2.170   3.319  0.00  0.00    -0.275 OA
ATOM     13  C   UNL     1       0.607   3.513   0.010  0.00  0.00    -0.027 A 
ATOM     14  C   UNL     1       1.165   4.772   0.005  0.00  0.00    +0.005 A 
ATOM     15  C   UNL     1       0.352   5.891   0.017  0.00  0.00    +0.004 A 
ATOM     16  C   UNL     1      -1.023   5.744   0.033  0.00  0.00    -0.046 A 
ATOM     17  C   UNL     1      -1.587   4.486   0.036  0.00  0.00    -0.026 A 
ATOM     18  C   UNL     1      -0.775   3.353   0.024  0.00  0.00    +0.039 A 
ATOM     19  N   UNL     1      -1.105   1.997   0.017  0.00  0.00    -0.286 N 
ATOM     20  C   UNL     1      -0.014   1.209   0.009  0.00  0.00    +0.212 C 
ATOM     21  O   UNL     1       0.002  -0.004   0.002  0.00  0.00    -0.277 OA
ATOM     22  C   UNL     1      -3.086   4.335   0.053  0.00  0.00    +0.046 C 
ATOM     23  C   UNL     1      -1.908   6.964   0.046  0.00  0.00    +0.044 C 
ATOM     24  H   UNL     1      -2.015   1.661   0.021  0.00  0.00    +0.155 HD
ATOM     25  N   UNL     1       1.981   1.890  -1.230  0.00  0.00    +0.395 N 
ATOM     26  H   UNL     1       1.686   2.541  -1.967  0.00  0.00    -0.079 HD
ENDROOT
BRANCH   1  31
ATOM     27  C   UNL     1       6.102   1.284   7.779  0.00  0.00    +0.044 C 
ATOM     28  C   UNL     1       5.462   1.461   6.426  0.00  0.00    -0.049 A 
ATOM     29  C   UNL     1       5.202   2.732   5.946  0.00  0.00    +0.005 A 
ATOM     30  C   UNL     1       4.621   2.898   4.704  0.00  0.00    +0.025 A 
ATOM     31  C   UNL     1       4.287   1.787   3.942  0.00  0.00    +0.058 A 
ATOM     32  C   UNL     1       4.549   0.512   4.426  0.00  0.00    +0.040 A 
ATOM     33  C   UNL     1       5.136   0.353   5.667  0.00  0.00    +0.020 A 
ATOM     34 BR   UNL     1       4.103  -1.005   3.388  0.00  0.00    -0.048 Br
ENDBRANCH   1  31
TORSDOF 1
