REMARK  Name = ZINC18163797
REMARK  4 active torsions:
REMARK  status: ('A' for Active; 'I' for Inactive)
REMARK    1  A    between atoms: C_15  and  C_23
REMARK    2  A    between atoms: C_17  and  C_19
REMARK    3  A    between atoms: N_21  and  N_22
REMARK    4  A    between atoms: N_25  and  N_26
REMARK                            x       y       z     vdW  Elec       q    Type
REMARK                         _______ _______ _______ _____ _____    ______ ____
ROOT
ATOM      1  C   UNL     1       0.319   2.035   0.015  0.00  0.00    +0.000 A 
ATOM      2  C   UNL     1       1.558   2.615  -0.183  0.00  0.00    +0.000 A 
ATOM      3  C   UNL     1       2.693   1.824  -0.311  0.00  0.00    +0.004 A 
ATOM      4  C   UNL     1       2.561   0.467  -0.237  0.00  0.00    -0.035 A 
ATOM      5  C   UNL     1       1.311  -0.118  -0.037  0.00  0.00    -0.035 A 
ATOM      6  C   UNL     1       0.192   0.654   0.089  0.00  0.00    +0.004 A 
ATOM      7  C   UNL     1       1.332  -1.637   0.021  0.00  0.00    +0.062 C 
ATOM      8  C   UNL     1       2.035  -2.077  -1.253  0.00  0.00    -0.035 A 
ATOM      9  C   UNL     1       1.527  -2.965  -2.158  0.00  0.00    +0.004 A 
ATOM     10  C   UNL     1       2.279  -3.278  -3.283  0.00  0.00    +0.000 A 
ATOM     11  C   UNL     1       3.519  -2.699  -3.479  0.00  0.00    +0.000 A 
ATOM     12  C   UNL     1       4.029  -1.797  -2.555  0.00  0.00    +0.004 A 
ATOM     13  C   UNL     1       3.284  -1.493  -1.452  0.00  0.00    -0.035 A 
ATOM     14  C   UNL     1       3.706  -0.526  -0.357  0.00  0.00    +0.062 C 
ATOM     15  C   UNL     1       3.674  -1.348   0.951  0.00  0.00    +0.101 C 
ATOM     16  C   UNL     1       2.305  -1.989   1.169  0.00  0.00    +0.101 C 
ENDROOT
BRANCH  16  17
ATOM     17  C   UNL     1       1.730  -1.495   2.471  0.00  0.00    +0.231 C 
ATOM     18  O   UNL     1       1.065  -0.481   2.496  0.00  0.00    -0.274 OA
ATOM     19  N   UNL     1       1.956  -2.180   3.610  0.00  0.00    -0.253 N 
ATOM     20  H   UNL     1       2.547  -2.950   3.604  0.00  0.00    +0.169 HD
BRANCH  19  21
ATOM     21  N   UNL     1       1.352  -1.792   4.772  0.00  0.00    -0.254 NA
ATOM     22  H   UNL     1       1.615  -2.397   5.536  0.00  0.00    +0.140 HD
ATOM     23  H   UNL     1       1.564  -0.828   4.985  0.00  0.00    +0.140 HD
ENDBRANCH  19  21
ENDBRANCH  16  17
BRANCH  15  24
ATOM     24  C   UNL     1       3.982  -0.439   2.113  0.00  0.00    +0.231 C 
ATOM     25  O   UNL     1       3.628   0.720   2.086  0.00  0.00    -0.274 OA
ATOM     26  N   UNL     1       4.652  -0.915   3.181  0.00  0.00    -0.253 N 
ATOM     27  H   UNL     1       4.872  -1.858   3.235  0.00  0.00    +0.169 HD
BRANCH  26  28
ATOM     28  N   UNL     1       5.022  -0.069   4.188  0.00  0.00    -0.254 NA
ATOM     29  H   UNL     1       5.514  -0.566   4.915  0.00  0.00    +0.140 HD
ATOM     30  H   UNL     1       5.578   0.694   3.832  0.00  0.00    +0.140 HD
ENDBRANCH  26  28
ENDBRANCH  15  24
TORSDOF 4
