REMARK  Name = ZINC49488433
REMARK  10 active torsions:
REMARK  status: ('A' for Active; 'I' for Inactive)
REMARK    1  A    between atoms: C_1  and  N_2
REMARK    2  A    between atoms: N_2  and  C_3
REMARK    3  A    between atoms: N_2  and  C_4
REMARK    4  A    between atoms: C_4  and  C_6
REMARK    5  A    between atoms: C_4  and  C_31
REMARK    6  A    between atoms: C_6  and  N_7
REMARK    7  A    between atoms: C_8  and  C_10
REMARK    8  A    between atoms: N_12  and  C_13
REMARK    9  A    between atoms: N_19  and  S_23
REMARK   10  A    between atoms: S_23  and  C_26
REMARK                            x       y       z     vdW  Elec       q    Type
REMARK                         _______ _______ _______ _____ _____    ______ ____
ROOT
ATOM      1  C   UNL     1      -2.239  -3.543   0.516  0.00  0.00    +0.303 C 
ATOM      2  O   UNL     1      -3.238  -2.857   0.452  0.00  0.00    -0.265 OA
ATOM      3  N   UNL     1      -2.332  -4.882   0.395  0.00  0.00    -0.278 N 
ATOM      4  H   UNL     1      -1.547  -5.437   0.523  0.00  0.00    +0.155 HD
ENDROOT
BRANCH   3   5
ATOM      5  C   UNL     1      -3.560  -5.471   0.082  0.00  0.00    +0.036 A 
ATOM      6  C   UNL     1      -4.454  -4.818  -0.758  0.00  0.00    +0.024 A 
ATOM      7  C   UNL     1      -5.667  -5.400  -1.064  0.00  0.00    +0.007 A 
ATOM      8  C   UNL     1      -6.003  -6.638  -0.540  0.00  0.00    -0.025 A 
ATOM      9  C   UNL     1      -5.112  -7.295   0.296  0.00  0.00    +0.056 A 
ATOM     10  C   UNL     1      -3.889  -6.714   0.605  0.00  0.00    +0.048 A 
ATOM     11  N   UNL     1      -5.423  -8.550   0.831  0.00  0.00    -0.202 N 
ATOM     12  C   UNL     1      -6.809  -9.033   0.752  0.00  0.00    +0.132 C 
ATOM     13  C   UNL     1      -7.323  -8.749  -0.666  0.00  0.00    +0.025 C 
ATOM     14  C   UNL     1      -7.339  -7.238  -0.892  0.00  0.00    +0.038 C 
BRANCH  11  15
ATOM     15  S   UNL     1      -4.249  -9.476   1.542  0.00  0.00    +0.081 S 
ATOM     16  O   UNL     1      -4.774 -10.793   1.640  0.00  0.00    -0.149 OA
ATOM     17  O   UNL     1      -3.036  -9.188   0.860  0.00  0.00    -0.149 OA
BRANCH  15  18
ATOM     18  C   UNL     1      -4.050  -8.889   3.192  0.00  0.00    +0.146 A 
ATOM     19  C   UNL     1      -4.685  -9.286   4.322  0.00  0.00    +0.036 A 
ATOM     20  C   UNL     1      -4.364  -8.678   5.520  0.00  0.00    +0.010 A 
ATOM     21  C   UNL     1      -3.424  -7.701   5.531  0.00  0.00    +0.047 A 
ATOM     22  S   UNL     1      -2.955  -7.621   3.810  0.00  0.00    -0.077 S 
ENDBRANCH  15  18
ENDBRANCH  11  15
ENDBRANCH   3   5
BRANCH   1  24
ATOM     23  N   UNL     1      -0.813  -1.565   0.853  0.00  0.00    -0.309 N 
ATOM     24  C   UNL     1      -0.906  -2.904   0.731  0.00  0.00    +0.299 C 
ATOM     25  O   UNL     1       0.092  -3.590   0.796  0.00  0.00    -0.265 OA
ATOM     26  H   UNL     1      -1.612  -1.016   0.801  0.00  0.00    +0.149 HD
BRANCH  23  27
ATOM     27  C   UNL     1       0.494  -0.938   1.064  0.00  0.00    +0.094 C 
BRANCH  27  28
ATOM     28  C   UNL     1       0.339   0.584   1.042  0.00  0.00    -0.014 C 
BRANCH  28  29
ATOM     29  C   UNL     1      -0.163   1.018  -0.311  0.00  0.00    -0.022 A 
ATOM     30  C   UNL     1      -1.422   1.349  -0.689  0.00  0.00    +0.009 A 
ATOM     31  C   UNL     1      -1.652   1.723  -2.000  0.00  0.00    +0.008 A 
ATOM     32  C   UNL     1      -0.611   1.747  -2.869  0.00  0.00    +0.045 A 
ATOM     33  S   UNL     1       0.749   1.238  -1.831  0.00  0.00    -0.103 S 
ENDBRANCH  28  29
BRANCH  28  35
ATOM     34  C   UNL     1       1.475   2.671   1.373  0.00  0.00    -0.096 C 
ATOM     35  N   UNL     1       1.640   1.213   1.307  0.00  0.00    +0.382 N 
ATOM     36  C   UNL     1       2.169   0.722   2.586  0.00  0.00    -0.096 C 
ATOM     37  H   UNL     1       2.283   0.981   0.565  0.00  0.00    -0.082 HD
ENDBRANCH  28  35
ENDBRANCH  27  28
ENDBRANCH  23  27
ENDBRANCH   1  24
TORSDOF 8
