REMARK  Name = ZINC40757402
REMARK  11 active torsions:
REMARK  status: ('A' for Active; 'I' for Inactive)
REMARK    1  A    between atoms: C_1  and  C_2
REMARK    2  A    between atoms: C_2  and  N_3
REMARK    3  A    between atoms: N_3  and  C_4
REMARK    4  A    between atoms: N_3  and  S_6
REMARK    5  A    between atoms: C_4  and  C_5
REMARK    6  A    between atoms: S_6  and  C_9
REMARK    7  A    between atoms: C_12  and  N_15
REMARK    8  A    between atoms: C_17  and  N_30
REMARK    9  A    between atoms: C_18  and  N_22
REMARK   10  A    between atoms: N_22  and  N_23
REMARK   11  A    between atoms: N_23  and  C_24
REMARK                            x       y       z     vdW  Elec       q    Type
REMARK                         _______ _______ _______ _____ _____    ______ ____
ROOT
ATOM      1  N   UNL     1      -4.801   3.930   3.503  0.00  0.00    -0.299 N 
ATOM      2  C   UNL     1      -6.087   4.243   3.076  0.00  0.00    +0.126 A 
ATOM      3  C   UNL     1      -6.693   5.438   3.467  0.00  0.00    +0.105 A 
ATOM      4  C   UNL     1      -7.985   5.703   3.009  0.00  0.00    +0.161 A 
ATOM      5  N   UNL     1      -8.585   4.813   2.222  0.00  0.00    -0.219 NA
ATOM      6  C   UNL     1      -7.977   3.697   1.876  0.00  0.00    +0.200 A 
ATOM      7  N   UNL     1      -6.756   3.410   2.282  0.00  0.00    -0.333 N 
ATOM      8  H   UNL     1      -4.285   4.581   4.005  0.00  0.00    +0.154 HD
ATOM      9  H   UNL     1      -6.341   2.580   2.002  0.00  0.00    +0.168 HD
ENDROOT
BRANCH   1  13
ATOM     10  C   UNL     1      -3.167   0.200   2.635  0.00  0.00    +0.106 A 
ATOM     11  C   UNL     1      -2.382   1.334   2.547  0.00  0.00    +0.030 A 
ATOM     12  C   UNL     1      -2.920   2.573   2.834  0.00  0.00    +0.025 A 
ATOM     13  C   UNL     1      -4.253   2.678   3.212  0.00  0.00    +0.032 A 
ATOM     14  C   UNL     1      -5.039   1.536   3.299  0.00  0.00    +0.025 A 
ATOM     15  C   UNL     1      -4.496   0.301   3.005  0.00  0.00    +0.030 A 
BRANCH  10  16
ATOM     16  S   UNL     1      -2.476  -1.379   2.267  0.00  0.00    +0.061 S 
ATOM     17  O   UNL     1      -3.273  -2.340   2.946  0.00  0.00    -0.153 OA
ATOM     18  O   UNL     1      -1.075  -1.267   2.476  0.00  0.00    -0.153 OA
BRANCH  16  19
ATOM     19  N   UNL     1      -2.693  -1.643   0.647  0.00  0.00    -0.177 NA
BRANCH  19  21
ATOM     20  C   UNL     1      -2.032   0.167  -0.858  0.00  0.00    +0.022 C 
ATOM     21  C   UNL     1      -1.669  -1.214  -0.309  0.00  0.00    +0.106 C 
ENDBRANCH  19  21
BRANCH  19  22
ATOM     22  C   UNL     1      -3.909  -2.307   0.170  0.00  0.00    +0.106 C 
ATOM     23  C   UNL     1      -3.643  -3.805   0.007  0.00  0.00    +0.022 C 
ENDBRANCH  19  22
ENDBRANCH  16  19
ENDBRANCH  10  16
ENDBRANCH   1  13
BRANCH   3  24
ATOM     24  N   UNL     1      -6.022   6.349   4.300  0.00  0.00    -0.353 N 
ATOM     25  H   UNL     1      -5.125   6.151   4.611  0.00  0.00    +0.143 HD
ATOM     26  H   UNL     1      -6.456   7.175   4.563  0.00  0.00    +0.143 HD
ENDBRANCH   3  24
BRANCH   4  27
ATOM     27  N   UNL     1      -8.634   6.878   3.369  0.00  0.00    -0.249 N 
ATOM     28  H   UNL     1      -8.190   7.521   3.943  0.00  0.00    +0.172 HD
BRANCH  27  29
ATOM     29  N   UNL     1      -9.930   7.133   2.902  0.00  0.00    -0.265 N 
ATOM     30  H   UNL     1     -10.375   6.489   2.328  0.00  0.00    +0.170 HD
BRANCH  29  31
ATOM     31  C   UNL     1     -10.583   8.313   3.264  0.00  0.00    +0.044 A 
ATOM     32  C   UNL     1      -9.946   9.239   4.082  0.00  0.00    +0.024 A 
ATOM     33  C   UNL     1     -10.594  10.405   4.437  0.00  0.00    +0.002 A 
ATOM     34  C   UNL     1     -11.876  10.653   3.981  0.00  0.00    +0.000 A 
ATOM     35  C   UNL     1     -12.513   9.734   3.167  0.00  0.00    +0.002 A 
ATOM     36  C   UNL     1     -11.868   8.568   2.803  0.00  0.00    +0.024 A 
ENDBRANCH  29  31
ENDBRANCH  27  29
ENDBRANCH   4  27
TORSDOF 9
