REMARK  Name = ZINC30707233
REMARK  6 active torsions:
REMARK  status: ('A' for Active; 'I' for Inactive)
REMARK    1  A    between atoms: C_1  and  C_2
REMARK    2  A    between atoms: C_3  and  S_26
REMARK    3  A    between atoms: C_8  and  C_10
REMARK    4  A    between atoms: C_21  and  C_25
REMARK    5  A    between atoms: S_26  and  C_27
REMARK    6  A    between atoms: C_27  and  C_28
REMARK                            x       y       z     vdW  Elec       q    Type
REMARK                         _______ _______ _______ _____ _____    ______ ____
ROOT
ATOM      1  C   UNL     1      -6.063   1.321   0.039  0.00  0.00    +0.067 C 
ATOM      2  C   UNL     1      -4.656   0.781   0.029  0.00  0.00    +0.061 A 
ATOM      3  C   UNL     1      -4.439  -0.564   0.021  0.00  0.00    +0.070 A 
ATOM      4  S   UNL     1      -2.651  -0.610   0.012  0.00  0.00    -0.045 S 
ATOM      5  C   UNL     1      -2.386   1.158   0.020  0.00  0.00    +0.166 A 
ATOM      6  N   UNL     1      -3.627   1.607   0.033  0.00  0.00    -0.229 NA
ATOM      7  N   UNL     1      -1.191   1.870   0.018  0.00  0.00    -0.261 N 
ATOM      8  C   UNL     1      -0.014   1.212   0.009  0.00  0.00    +0.252 C 
ATOM      9  O   UNL     1       0.002  -0.004   0.002  0.00  0.00    -0.270 OA
ATOM     10  H   UNL     1      -1.206   2.970   0.024  0.00  0.00    +0.157 HD
ENDROOT
BRANCH   8  11
ATOM     11  C   UNL     1       1.252   1.967   0.001  0.00  0.00    +0.061 A 
ATOM     12  C   UNL     1       1.238   3.360   0.008  0.00  0.00    +0.015 A 
ATOM     13  C   UNL     1       2.423   4.074   0.001  0.00  0.00    +0.001 A 
ATOM     14  C   UNL     1       3.636   3.419  -0.013  0.00  0.00    +0.010 A 
ATOM     15  C   UNL     1       3.679   2.024  -0.020  0.00  0.00    +0.004 A 
ATOM     16  C   UNL     1       2.480   1.285  -0.009  0.00  0.00    +0.059 A 
ATOM     17  N   UNL     1       2.819  -0.045  -0.026  0.00  0.00    -0.357 N 
ATOM     18  H   UNL     1       2.032  -0.813  -0.029  0.00  0.00    +0.166 HD
ATOM     19  C   UNL     1       4.179  -0.181  -0.038  0.00  0.00    +0.020 A 
ATOM     20  C   UNL     1       4.754   1.036  -0.034  0.00  0.00    -0.019 A 
ATOM     21  C   UNL     1       6.240   1.284  -0.041  0.00  0.00    +0.040 C 
ATOM     22  C   UNL     1       6.950  -0.017   0.356  0.00  0.00    -0.009 C 
ATOM     23  C   UNL     1       6.399  -1.172  -0.484  0.00  0.00    +0.009 C 
ATOM     24  C   UNL     1       4.959  -1.476  -0.054  0.00  0.00    +0.054 C 
ATOM     25  C   UNL     1       8.453   0.125   0.106  0.00  0.00    +0.008 C 
ENDBRANCH   8  11
BRANCH   3  26
ATOM     26  S   UNL     1      -5.598  -1.891   0.020  0.00  0.00    -0.107 S 
BRANCH  26  27
ATOM     27  C   UNL     1      -4.561  -3.380   0.006  0.00  0.00    +0.170 C 
BRANCH  27  28
ATOM     28  C   UNL     1      -5.440  -4.604   0.004  0.00  0.00    +0.221 C 
ATOM     29  O   UNL     1      -6.647  -4.484   0.010  0.00  0.00    -0.275 OA
ATOM     30  N   UNL     1      -4.885  -5.832  -0.005  0.00  0.00    -0.329 N 
ATOM     31  H   UNL     1      -5.526  -6.726  -0.007  0.00  0.00    +0.145 HD
ATOM     32  H   UNL     1      -3.790  -5.941  -0.011  0.00  0.00    +0.145 HD
ENDBRANCH  27  28
ENDBRANCH  26  27
ENDBRANCH   3  26
TORSDOF 4
