REMARK  Name = ZINC66864210
REMARK  6 active torsions:
REMARK  status: ('A' for Active; 'I' for Inactive)
REMARK    1  A    between atoms: C_5  and  N_7
REMARK    2  A    between atoms: C_8  and  C_10
REMARK    3  A    between atoms: C_10  and  N_11
REMARK    4  A    between atoms: C_12  and  C_14
REMARK    5  A    between atoms: C_14  and  N_15
REMARK    6  A    between atoms: C_19  and  C_21
REMARK                            x       y       z     vdW  Elec       q    Type
REMARK                         _______ _______ _______ _____ _____    ______ ____
ROOT
ATOM      1  N   UNL     1      -1.250  -4.788   0.299  0.00  0.00    -0.308 N 
ATOM      2  C   UNL     1      -1.467  -6.114   0.404  0.00  0.00    +0.197 C 
ATOM      3  O   UNL     1      -0.530  -6.883   0.409  0.00  0.00    -0.278 OA
ATOM      4  H   UNL     1      -2.000  -4.172   0.295  0.00  0.00    +0.149 HD
ENDROOT
BRANCH   1   5
ATOM      5  C   UNL     1       0.119  -4.276   0.191  0.00  0.00    +0.200 C 
BRANCH   5   7
ATOM      6  N   UNL     1       1.237  -2.080  -0.022  0.00  0.00    -0.283 N 
ATOM      7  C   UNL     1       0.086  -2.773   0.087  0.00  0.00    +0.234 C 
ATOM      8  O   UNL     1      -0.976  -2.187   0.102  0.00  0.00    -0.274 OA
ATOM      9  H   UNL     1       2.080  -2.551  -0.115  0.00  0.00    +0.155 HD
BRANCH   6  14
ATOM     10  C   UNL     1       0.153   1.372   0.637  0.00  0.00    +0.002 A 
ATOM     11  C   UNL     1       1.173   2.086   0.035  0.00  0.00    +0.001 A 
ATOM     12  C   UNL     1       2.214   1.421  -0.586  0.00  0.00    +0.017 A 
ATOM     13  C   UNL     1       2.239   0.040  -0.607  0.00  0.00    +0.039 A 
ATOM     14  C   UNL     1       1.216  -0.681  -0.003  0.00  0.00    +0.047 A 
ATOM     15  C   UNL     1       0.172  -0.009   0.620  0.00  0.00    +0.024 A 
ATOM     16 BR   UNL     1       3.662  -0.869  -1.458  0.00  0.00    -0.048 Br
ENDBRANCH   6  14
ENDBRANCH   5   7
ENDBRANCH   1   5
BRANCH   2  17
ATOM     17  C   UNL     1      -2.875  -6.640   0.515  0.00  0.00    +0.020 C 
BRANCH  17  18
ATOM     18  N   UNL     1      -2.843  -8.105   0.617  0.00  0.00    +0.393 N 
ATOM     19  C   UNL     1      -2.331  -8.681  -0.645  0.00  0.00    -0.077 C 
ATOM     20  C   UNL     1      -3.139  -9.988  -0.841  0.00  0.00    -0.020 C 
ATOM     21  C   UNL     1      -4.540  -9.571  -0.320  0.00  0.00    -0.008 C 
ATOM     22  C   UNL     1      -4.207  -8.616   0.846  0.00  0.00    +0.020 C 
ATOM     23  H   UNL     1      -2.244  -8.381   1.381  0.00  0.00    -0.080 HD
BRANCH  22  24
ATOM     24  C   UNL     1      -4.261  -9.365   2.153  0.00  0.00    +0.197 C 
ATOM     25  O   UNL     1      -3.263  -9.468   2.835  0.00  0.00    -0.278 OA
ATOM     26  N   UNL     1      -5.418  -9.920   2.564  0.00  0.00    -0.331 N 
ATOM     27  H   UNL     1      -6.216  -9.838   2.019  0.00  0.00    +0.145 HD
ATOM     28  H   UNL     1      -5.453 -10.402   3.405  0.00  0.00    +0.145 HD
ENDBRANCH  22  24
ENDBRANCH  17  18
ENDBRANCH   2  17
TORSDOF 6
