REMARK  Name = ZINC30499498
REMARK  11 active torsions:
REMARK  status: ('A' for Active; 'I' for Inactive)
REMARK    1  A    between atoms: C_1  and  C_2
REMARK    2  A    between atoms: C_2  and  C_3
REMARK    3  A    between atoms: N_5  and  C_6
REMARK    4  A    between atoms: C_9  and  C_12
REMARK    5  A    between atoms: C_12  and  C_14
REMARK    6  A    between atoms: C_12  and  N_15
REMARK    7  A    between atoms: N_15  and  C_16
REMARK    8  A    between atoms: C_16  and  C_18
REMARK    9  A    between atoms: C_16  and  C_19
REMARK   10  A    between atoms: N_21  and  C_22
REMARK   11  A    between atoms: C_27  and  C_28
REMARK                            x       y       z     vdW  Elec       q    Type
REMARK                         _______ _______ _______ _____ _____    ______ ____
ROOT
ATOM      1  N   UNL     1      -5.804  -2.430  -0.427  0.00  0.00    +0.391 N 
ATOM      2  H   UNL     1      -4.754  -2.758  -0.454  0.00  0.00    -0.084 HD
ATOM      3  H   UNL     1      -6.425  -3.224   0.011  0.00  0.00    -0.084 HD
ENDROOT
BRANCH   1   4
ATOM      4  C   UNL     1      -5.916  -1.213   0.389  0.00  0.00    -0.043 C 
ATOM      5  C   UNL     1      -6.172  -1.599   1.847  0.00  0.00    -0.009 C 
BRANCH   4   9
ATOM      6  C   UNL     1      -2.283   1.022   0.123  0.00  0.00    +0.033 A 
ATOM      7  C   UNL     1      -2.243  -0.364   0.207  0.00  0.00    +0.023 A 
ATOM      8  C   UNL     1      -3.419  -1.083   0.298  0.00  0.00    +0.004 A 
ATOM      9  C   UNL     1      -4.635  -0.425   0.295  0.00  0.00    -0.062 A 
ATOM     10  C   UNL     1      -4.679   0.954   0.205  0.00  0.00    +0.004 A 
ATOM     11  C   UNL     1      -3.506   1.679   0.119  0.00  0.00    +0.023 A 
BRANCH   6  14
ATOM     12  C   UNL     1      -1.001   2.961   0.627  0.00  0.00    +0.217 C 
ATOM     13  O   UNL     1      -1.973   3.450   1.163  0.00  0.00    -0.275 OA
ATOM     14  N   UNL     1      -1.094   1.754   0.036  0.00  0.00    -0.286 N 
ATOM     15  H   UNL     1      -0.234   1.343  -0.514  0.00  0.00    +0.155 HD
BRANCH  12  17
ATOM     16  C   UNL     1       0.147   5.033   1.363  0.00  0.00    +0.013 C 
ATOM     17  C   UNL     1       0.312   3.701   0.627  0.00  0.00    +0.093 C 
ENDBRANCH  12  17
ENDBRANCH   6  14
ENDBRANCH   4   9
ENDBRANCH   1   4
BRANCH   1  18
ATOM     18  C   UNL     1      -6.255  -2.184  -1.803  0.00  0.00    +0.014 C 
ATOM     19  C   UNL     1      -7.784  -2.236  -1.856  0.00  0.00    -0.004 C 
BRANCH  18  20
ATOM     20  C   UNL     1      -5.685  -3.240  -2.715  0.00  0.00    +0.203 C 
ATOM     21  O   UNL     1      -4.972  -4.111  -2.263  0.00  0.00    -0.277 OA
ATOM     22  N   UNL     1      -5.966  -3.215  -4.033  0.00  0.00    -0.287 N 
ATOM     23  H   UNL     1      -6.559  -2.389  -4.454  0.00  0.00    +0.155 HD
BRANCH  22  24
ATOM     24  C   UNL     1      -5.505  -4.241  -4.866  0.00  0.00    +0.038 A 
ATOM     25  C   UNL     1      -4.373  -4.965  -4.516  0.00  0.00    +0.023 A 
ATOM     26  C   UNL     1      -3.920  -5.977  -5.340  0.00  0.00    +0.003 A 
ATOM     27  C   UNL     1      -4.593  -6.271  -6.511  0.00  0.00    +0.020 A 
ATOM     28  C   UNL     1      -5.721  -5.551  -6.863  0.00  0.00    +0.046 A 
ATOM     29  C   UNL     1      -6.182  -4.541  -6.040  0.00  0.00    -0.011 A 
ATOM     30  C   UNL     1      -7.415  -3.762  -6.420  0.00  0.00    +0.047 C 
ATOM     31 CL   UNL     1      -6.563  -5.923  -8.335  0.00  0.00    -0.083 Cl
ENDBRANCH  22  24
ENDBRANCH  18  20
ENDBRANCH   1  18
TORSDOF 7
