REMARK  Name = ZINC37669006
REMARK  5 active torsions:
REMARK  status: ('A' for Active; 'I' for Inactive)
REMARK    1  A    between atoms: C_1  and  C_2
REMARK    2  A    between atoms: C_5  and  S_7
REMARK    3  A    between atoms: S_7  and  C_8
REMARK    4  A    between atoms: C_8  and  C_9
REMARK    5  A    between atoms: C_12  and  C_16
REMARK                            x       y       z     vdW  Elec       q    Type
REMARK                         _______ _______ _______ _____ _____    ______ ____
ROOT
ATOM      1  C   UNL     1       0.091  -6.720  -0.470  0.00  0.00    -0.002 A 
ATOM      2  C   UNL     1       1.300  -7.381  -0.345  0.00  0.00    +0.008 A 
ATOM      3  C   UNL     1       1.326  -8.738  -0.100  0.00  0.00    +0.012 A 
ATOM      4  C   UNL     1       0.130  -9.446   0.024  0.00  0.00    +0.015 A 
ATOM      5  C   UNL     1      -1.087  -8.776  -0.102  0.00  0.00    +0.050 A 
ATOM      6  C   UNL     1      -1.101  -7.415  -0.343  0.00  0.00    +0.128 A 
ATOM      7  F   UNL     1      -2.278  -6.763  -0.460  0.00  0.00    -0.205 F 
ENDROOT
BRANCH   4   8
ATOM      8  C   UNL     1       0.152 -10.902   0.287  0.00  0.00    +0.094 C 
ATOM      9  N   UNL     1      -0.991 -11.575   0.405  0.00  0.00    -0.387 N 
ATOM     10  N   UNL     1       1.315 -11.539   0.407  0.00  0.00    -0.345 N 
ATOM     11  H   UNL     1      -1.838 -11.111   0.318  0.00  0.00    +0.157 HD
ATOM     12  H   UNL     1       2.148 -11.049   0.321  0.00  0.00    +0.144 HD
ATOM     13  H   UNL     1       1.330 -12.494   0.579  0.00  0.00    +0.144 HD
ATOM     14  H   UNL     1      -0.976 -12.530   0.578  0.00  0.00    +0.157 HD
ENDBRANCH   4   8
BRANCH   1  15
ATOM     15  C   UNL     1       0.070  -5.237  -0.738  0.00  0.00    +0.114 C 
BRANCH  15  16
ATOM     16  S   UNL     1       0.064  -4.338   0.838  0.00  0.00    -0.092 S 
BRANCH  16  21
ATOM     17  C   UNL     1      -0.018   1.503   0.010  0.00  0.00    +0.075 C 
ATOM     18  C   UNL     1       0.002  -0.004   0.002  0.00  0.00    +0.100 A 
ATOM     19  N   UNL     1       0.010  -0.845  -1.012  0.00  0.00    -0.146 NA
ATOM     20  N   UNL     1       0.027  -2.095  -0.849  0.00  0.00    -0.135 NA
ATOM     21  C   UNL     1       0.039  -2.642   0.360  0.00  0.00    +0.159 A 
ATOM     22  S   UNL     1       0.031  -1.162   1.368  0.00  0.00    -0.044 S 
ENDBRANCH  16  21
ENDBRANCH  15  16
ENDBRANCH   1  15
TORSDOF 4
