REMARK  Name = ZINC15771457
REMARK  10 active torsions:
REMARK  status: ('A' for Active; 'I' for Inactive)
REMARK    1  A    between atoms: C_1  and  C_2
REMARK    2  A    between atoms: C_2  and  C_4
REMARK    3  A    between atoms: C_2  and  C_10
REMARK    4  A    between atoms: C_10  and  N_32
REMARK    5  A    between atoms: C_10  and  N_65
REMARK    6  A    between atoms: C_12  and  C_14
REMARK    7  A    between atoms: C_12  and  N_23
REMARK    8  A    between atoms: C_12  and  N_65
REMARK    9  A    between atoms: C_14  and  C_16
REMARK   10  A    between atoms: C_14  and  C_17
REMARK                            x       y       z     vdW  Elec       q    Type
REMARK                         _______ _______ _______ _____ _____    ______ ____
ROOT
ATOM      1  N   UNL     1       2.156   1.271  -1.365  0.00  0.00    +0.409 N 
ATOM      2  H   UNL     1       1.472   1.139  -2.120  0.00  0.00    -0.079 HD
ATOM      3  H   UNL     1       2.754   0.439  -1.296  0.00  0.00    -0.079 HD
ENDROOT
BRANCH   1   4
ATOM      4  C   UNL     1       1.440   1.463  -0.090  0.00  0.00    +0.064 C 
BRANCH   4   5
ATOM      5  N   UNL     1       2.303   1.054   1.021  0.00  0.00    -0.257 N 
ATOM      6  C   UNL     1       2.565   1.770   2.166  0.00  0.00    +0.087 A 
ATOM      7  C   UNL     1       2.156   3.010   2.645  0.00  0.00    +0.029 A 
ATOM      8  C   UNL     1       2.607   3.452   3.857  0.00  0.00    +0.002 A 
ATOM      9  C   UNL     1       3.471   2.674   4.616  0.00  0.00    +0.002 A 
ATOM     10  C   UNL     1       3.881   1.451   4.172  0.00  0.00    +0.032 A 
ATOM     11  C   UNL     1       3.437   0.976   2.930  0.00  0.00    +0.113 A 
ATOM     12  N   UNL     1       3.674  -0.156   2.238  0.00  0.00    -0.130 NA
ATOM     13  N   UNL     1       3.030  -0.141   1.125  0.00  0.00    -0.066 NA
ENDBRANCH   4   5
BRANCH   4  15
ATOM     14  C   UNL     1      -0.730   1.034  -1.252  0.00  0.00    +0.012 C 
ATOM     15  C   UNL     1       0.172   0.607  -0.092  0.00  0.00    +0.023 C 
BRANCH  15  16
ATOM     16  C   UNL     1      -0.563   0.795   1.210  0.00  0.00    -0.044 A 
ATOM     17  C   UNL     1      -1.003   2.053   1.580  0.00  0.00    +0.004 A 
ATOM     18  C   UNL     1      -1.681   2.225   2.772  0.00  0.00    +0.000 A 
ATOM     19  C   UNL     1      -1.911   1.141   3.599  0.00  0.00    +0.000 A 
ATOM     20  C   UNL     1      -1.466  -0.115   3.232  0.00  0.00    +0.000 A 
ATOM     21  C   UNL     1      -0.792  -0.288   2.038  0.00  0.00    +0.004 A 
ENDBRANCH  15  16
ENDBRANCH   4  15
ENDBRANCH   1   4
BRANCH   1  22
ATOM     22  C   UNL     1       2.992   2.448  -1.665  0.00  0.00    +0.064 C 
BRANCH  22  23
ATOM     23  N   UNL     1       2.168   3.489  -2.285  0.00  0.00    -0.257 N 
ATOM     24  C   UNL     1       2.175   4.830  -1.985  0.00  0.00    +0.087 A 
ATOM     25  C   UNL     1       2.886   5.615  -1.084  0.00  0.00    +0.029 A 
ATOM     26  C   UNL     1       2.656   6.961  -1.026  0.00  0.00    +0.002 A 
ATOM     27  C   UNL     1       1.717   7.554  -1.861  0.00  0.00    +0.002 A 
ATOM     28  C   UNL     1       1.007   6.806  -2.754  0.00  0.00    +0.032 A 
ATOM     29  C   UNL     1       1.224   5.424  -2.833  0.00  0.00    +0.113 A 
ATOM     30  N   UNL     1       0.690   4.449  -3.595  0.00  0.00    -0.130 NA
ATOM     31  N   UNL     1       1.221   3.314  -3.305  0.00  0.00    -0.066 NA
ENDBRANCH  22  23
BRANCH  22  32
ATOM     32  C   UNL     1       4.107   2.038  -2.630  0.00  0.00    +0.023 C 
ATOM     33  C   UNL     1       4.916   3.275  -3.029  0.00  0.00    +0.012 C 
BRANCH  32  34
ATOM     34  C   UNL     1       5.014   1.041  -1.956  0.00  0.00    -0.044 A 
ATOM     35  C   UNL     1       5.658   1.377  -0.780  0.00  0.00    +0.004 A 
ATOM     36  C   UNL     1       6.486   0.461  -0.160  0.00  0.00    +0.000 A 
ATOM     37  C   UNL     1       6.677  -0.788  -0.720  0.00  0.00    +0.000 A 
ATOM     38  C   UNL     1       6.037  -1.123  -1.898  0.00  0.00    +0.000 A 
ATOM     39  C   UNL     1       5.205  -0.208  -2.517  0.00  0.00    +0.004 A 
ENDBRANCH  32  34
ENDBRANCH  22  32
ENDBRANCH   1  22
TORSDOF 8
