REMARK  Name = ZINC39655686
REMARK  8 active torsions:
REMARK  status: ('A' for Active; 'I' for Inactive)
REMARK    1  A    between atoms: C_1  and  C_2
REMARK    2  A    between atoms: C_3  and  C_8
REMARK    3  A    between atoms: C_4  and  C_7
REMARK    4  A    between atoms: C_12  and  C_21
REMARK    5  A    between atoms: N_23  and  C_24
REMARK    6  A    between atoms: C_24  and  C_25
REMARK    7  A    between atoms: C_25  and  N_26
REMARK    8  A    between atoms: N_26  and  C_27
REMARK                            x       y       z     vdW  Elec       q    Type
REMARK                         _______ _______ _______ _____ _____    ______ ____
ROOT
ATOM      1  C   UNL     1      -0.008  -0.434  -2.582  0.00  0.00    +0.252 C 
ATOM      2  O   UNL     1       1.041  -0.239  -3.166  0.00  0.00    -0.270 OA
ATOM      3  N   UNL     1      -1.179  -0.249  -3.222  0.00  0.00    -0.296 N 
ATOM      4  C   UNL     1      -2.548  -0.427  -2.681  0.00  0.00    +0.121 C 
ATOM      5  C   UNL     1      -3.361   0.741  -3.283  0.00  0.00    +0.100 C 
ATOM      6  C   UNL     1      -2.598   1.133  -4.560  0.00  0.00    -0.004 C 
ATOM      7  C   UNL     1      -1.391   0.185  -4.623  0.00  0.00    +0.115 C 
ATOM      8  C   UNL     1      -2.121   2.579  -4.468  0.00  0.00    -0.010 C 
ATOM      9  C   UNL     1      -1.415   2.962  -5.772  0.00  0.00    -0.082 C 
ATOM     10  N   UNL     1      -2.343   2.803  -6.898  0.00  0.00    +0.379 N 
ATOM     11  C   UNL     1      -2.725   1.392  -7.036  0.00  0.00    -0.082 C 
ATOM     12  C   UNL     1      -3.486   0.942  -5.786  0.00  0.00    -0.010 C 
ATOM     13  H   UNL     1      -3.169   3.358  -6.733  0.00  0.00    -0.086 HD
ATOM     14  H   UNL     1      -1.896   3.114  -7.747  0.00  0.00    -0.086 HD
ENDROOT
BRANCH   1  17
ATOM     15  C   UNL     1      -0.023   1.498   0.016  0.00  0.00    +0.070 C 
ATOM     16  C   UNL     1      -0.004  -0.009   0.008  0.00  0.00    +0.093 A 
ATOM     17  C   UNL     1       0.003  -0.872  -1.175  0.00  0.00    +0.101 A 
ATOM     18  C   UNL     1       0.021  -2.160  -0.723  0.00  0.00    +0.147 A 
ATOM     19  O   UNL     1       0.024  -2.131   0.612  0.00  0.00    -0.359 OA
ATOM     20  N   UNL     1       0.013  -0.787   1.050  0.00  0.00    -0.083 NA
ATOM     21  C   UNL     1       0.034  -3.399  -1.582  0.00  0.00    +0.090 C 
ENDBRANCH   1  17
BRANCH   5  22
ATOM     22  C   UNL     1      -3.407   1.900  -2.321  0.00  0.00    +0.218 C 
ATOM     23  O   UNL     1      -2.531   2.037  -1.494  0.00  0.00    -0.275 OA
ATOM     24  N   UNL     1      -4.423   2.784  -2.379  0.00  0.00    -0.314 N 
ATOM     25  H   UNL     1      -5.124   2.674  -3.041  0.00  0.00    +0.149 HD
BRANCH  24  26
ATOM     26  C   UNL     1      -4.468   3.910  -1.444  0.00  0.00    +0.123 C 
BRANCH  26  27
ATOM     27  C   UNL     1      -5.714   4.755  -1.722  0.00  0.00    +0.120 C 
BRANCH  27  28
ATOM     28  N   UNL     1      -5.759   5.881  -0.787  0.00  0.00    -0.342 N 
ATOM     29  H   UNL     1      -5.058   5.990  -0.125  0.00  0.00    +0.146 HD
BRANCH  28  30
ATOM     30  C   UNL     1      -6.811   6.797  -0.847  0.00  0.00    +0.027 A 
ATOM     31  C   UNL     1      -7.819   6.638  -1.790  0.00  0.00    +0.023 A 
ATOM     32  C   UNL     1      -8.858   7.546  -1.847  0.00  0.00    +0.002 A 
ATOM     33  C   UNL     1      -8.897   8.612  -0.967  0.00  0.00    +0.000 A 
ATOM     34  C   UNL     1      -7.895   8.773  -0.027  0.00  0.00    +0.002 A 
ATOM     35  C   UNL     1      -6.856   7.866   0.039  0.00  0.00    +0.023 A 
ENDBRANCH  28  30
ENDBRANCH  27  28
ENDBRANCH  26  27
ENDBRANCH  24  26
ENDBRANCH   5  22
TORSDOF 6
