REMARK  Name = ZINC64082170
REMARK  8 active torsions:
REMARK  status: ('A' for Active; 'I' for Inactive)
REMARK    1  A    between atoms: C_4  and  C_11
REMARK    2  A    between atoms: C_6  and  S_7
REMARK    3  A    between atoms: S_7  and  N_10
REMARK    4  A    between atoms: N_13  and  N_14
REMARK    5  A    between atoms: N_14  and  C_15
REMARK    6  A    between atoms: C_15  and  N_17
REMARK    7  A    between atoms: N_17  and  C_18
REMARK    8  A    between atoms: C_18  and  C_19
REMARK                            x       y       z     vdW  Elec       q    Type
REMARK                         _______ _______ _______ _____ _____    ______ ____
ROOT
ATOM      1  C   UNL     1       3.694  -0.687  -0.038  0.00  0.00    +0.262 C 
ATOM      2  O   UNL     1       4.738  -0.063  -0.046  0.00  0.00    -0.269 OA
ATOM      3  N   UNL     1       3.715  -2.034  -0.046  0.00  0.00    -0.231 N 
ATOM      4  H   UNL     1       2.883  -2.532  -0.040  0.00  0.00    +0.173 HD
ENDROOT
BRANCH   1   8
ATOM      5  C   UNL     1      -0.017   1.380   0.010  0.00  0.00    +0.030 A 
ATOM      6  C   UNL     1       1.168   2.094   0.002  0.00  0.00    +0.022 A 
ATOM      7  C   UNL     1       2.378   1.429  -0.013  0.00  0.00    +0.053 A 
ATOM      8  C   UNL     1       2.404   0.032  -0.021  0.00  0.00    +0.058 A 
ATOM      9  C   UNL     1       1.204  -0.681  -0.013  0.00  0.00    +0.043 A 
ATOM     10  C   UNL     1       0.002  -0.004   0.002  0.00  0.00    +0.106 A 
ATOM     11 CL   UNL     1       3.864   2.327  -0.024  0.00  0.00    -0.083 Cl
BRANCH  10  12
ATOM     12  S   UNL     1      -1.513  -0.903   0.012  0.00  0.00    +0.056 S 
ATOM     13  O   UNL     1      -1.221  -2.184   0.553  0.00  0.00    -0.153 OA
ATOM     14  O   UNL     1      -2.492  -0.043   0.578  0.00  0.00    -0.153 OA
BRANCH  12  15
ATOM     15  N   UNL     1      -1.950  -1.145  -1.567  0.00  0.00    -0.204 NA
ATOM     16  H   UNL     1      -1.390  -0.804  -2.282  0.00  0.00    +0.144 HD
ATOM     17  H   UNL     1      -2.765  -1.626  -1.776  0.00  0.00    +0.144 HD
ENDBRANCH  12  15
ENDBRANCH  10  12
ENDBRANCH   1   8
BRANCH   3  18
ATOM     18  N   UNL     1       4.939  -2.716  -0.062  0.00  0.00    -0.246 N 
ATOM     19  H   UNL     1       5.771  -2.218  -0.068  0.00  0.00    +0.172 HD
BRANCH  18  20
ATOM     20  C   UNL     1       4.960  -4.064  -0.070  0.00  0.00    +0.147 C 
ATOM     21  S   UNL     1       6.455  -4.897  -0.089  0.00  0.00    -0.017 S 
BRANCH  20  22
ATOM     22  N   UNL     1       3.803  -4.755  -0.061  0.00  0.00    -0.317 N 
ATOM     23  H   UNL     1       2.956  -4.284  -0.050  0.00  0.00    +0.148 HD
BRANCH  22  24
ATOM     24  C   UNL     1       3.826  -6.220  -0.070  0.00  0.00    +0.216 C 
BRANCH  24  25
ATOM     25  C   UNL     1       2.392  -6.753  -0.058  0.00  0.00    +0.405 C 
ATOM     26  F   UNL     1       1.713  -6.290  -1.190  0.00  0.00    -0.169 F 
ATOM     27  F   UNL     1       2.413  -8.151  -0.065  0.00  0.00    -0.169 F 
ATOM     28  F   UNL     1       1.737  -6.303   1.094  0.00  0.00    -0.169 F 
ENDBRANCH  24  25
ENDBRANCH  22  24
ENDBRANCH  20  22
ENDBRANCH  18  20
ENDBRANCH   3  18
TORSDOF 8
