REMARK  Name = ZINC15351525
REMARK  10 active torsions:
REMARK  status: ('A' for Active; 'I' for Inactive)
REMARK    1  A    between atoms: C_1  and  N_62
REMARK    2  A    between atoms: C_2  and  C_3
REMARK    3  A    between atoms: C_2  and  N_62
REMARK    4  A    between atoms: N_5  and  C_6
REMARK    5  A    between atoms: C_13  and  C_14
REMARK    6  A    between atoms: C_13  and  N_62
REMARK    7  A    between atoms: C_17  and  C_28
REMARK    8  A    between atoms: C_20  and  C_22
REMARK    9  A    between atoms: C_31  and  O_34
REMARK   10  A    between atoms: O_34  and  C_35
REMARK                            x       y       z     vdW  Elec       q    Type
REMARK                         _______ _______ _______ _____ _____    ______ ____
ROOT
ATOM      1  C   UNL     1      -1.386  -0.528   0.299  0.00  0.00    +0.219 C 
ATOM      2  O   UNL     1      -2.304   0.248   0.467  0.00  0.00    -0.276 OA
ATOM      3  N   UNL     1      -1.610  -1.856   0.348  0.00  0.00    -0.187 N 
ATOM      4  C   UNL     1      -2.912  -2.497   0.594  0.00  0.00    +0.137 C 
ATOM      5  C   UNL     1      -2.590  -4.003   0.540  0.00  0.00    +0.087 C 
ATOM      6  C   UNL     1      -1.104  -4.048   0.263  0.00  0.00    +0.069 C 
ATOM      7  N   UNL     1      -0.648  -2.847   0.167  0.00  0.00    -0.181 NA
ENDROOT
BRANCH   6   8
ATOM      8  C   UNL     1      -0.302  -5.277   0.117  0.00  0.00    -0.002 A 
ATOM      9  C   UNL     1      -0.908  -6.529   0.242  0.00  0.00    +0.010 A 
ATOM     10  C   UNL     1      -0.153  -7.675   0.100  0.00  0.00    +0.001 A 
ATOM     11  C   UNL     1       1.204  -7.586  -0.155  0.00  0.00    +0.000 A 
ATOM     12  C   UNL     1       1.812  -6.349  -0.274  0.00  0.00    +0.001 A 
ATOM     13  C   UNL     1       1.069  -5.195  -0.140  0.00  0.00    +0.010 A 
ENDBRANCH   6   8
BRANCH   4  14
ATOM     14  C   UNL     1      -3.442  -2.116   1.952  0.00  0.00    -0.024 A 
ATOM     15  C   UNL     1      -2.577  -2.011   3.026  0.00  0.00    +0.009 A 
ATOM     16  C   UNL     1      -3.059  -1.657   4.271  0.00  0.00    +0.046 A 
ATOM     17  C   UNL     1      -4.414  -1.416   4.446  0.00  0.00    +0.120 A 
ATOM     18  C   UNL     1      -5.281  -1.528   3.369  0.00  0.00    +0.046 A 
ATOM     19  C   UNL     1      -4.793  -1.877   2.124  0.00  0.00    +0.009 A 
BRANCH  17  20
ATOM     20  O   UNL     1      -4.892  -1.073   5.671  0.00  0.00    -0.495 OA
ATOM     21  C   UNL     1      -3.942  -0.977   6.734  0.00  0.00    +0.277 C 
ENDBRANCH  17  20
ENDBRANCH   4  14
BRANCH   1  22
ATOM     22  C   UNL     1       0.003  -0.007   0.037  0.00  0.00    +0.021 C 
BRANCH  22  24
ATOM     23  C   UNL     1      -0.802   1.975  -1.097  0.00  0.00    -0.095 C 
ATOM     24  N   UNL     1      -0.030   1.471   0.058  0.00  0.00    +0.389 N 
ATOM     25  H   UNL     1      -0.484   1.782   0.924  0.00  0.00    -0.081 HD
BRANCH  24  26
ATOM     26  C   UNL     1       1.347   2.007   0.018  0.00  0.00    +0.019 C 
BRANCH  26  27
ATOM     27  C   UNL     1       1.296   3.494   0.262  0.00  0.00    +0.201 C 
ATOM     28  O   UNL     1       0.229   4.044   0.431  0.00  0.00    -0.278 OA
ATOM     29  N   UNL     1       2.437   4.211   0.291  0.00  0.00    -0.286 N 
ATOM     30  H   UNL     1       3.294   3.762   0.220  0.00  0.00    +0.155 HD
BRANCH  29  31
ATOM     31  C   UNL     1       2.385   5.603   0.423  0.00  0.00    +0.052 A 
ATOM     32  C   UNL     1       1.395   6.192   1.198  0.00  0.00    +0.025 A 
ATOM     33  C   UNL     1       1.349   7.566   1.332  0.00  0.00    +0.002 A 
ATOM     34  C   UNL     1       2.282   8.357   0.685  0.00  0.00    +0.002 A 
ATOM     35  C   UNL     1       3.266   7.775  -0.092  0.00  0.00    +0.022 A 
ATOM     36  C   UNL     1       3.320   6.400  -0.226  0.00  0.00    +0.062 A 
ATOM     37 CL   UNL     1       4.556   5.670  -1.202  0.00  0.00    -0.082 Cl
ENDBRANCH  29  31
ENDBRANCH  26  27
ENDBRANCH  24  26
ENDBRANCH  22  24
ENDBRANCH   1  22
TORSDOF 8
