REMARK  Name = ZINC56159697
REMARK  9 active torsions:
REMARK  status: ('A' for Active; 'I' for Inactive)
REMARK    1  A    between atoms: C_1  and  C_2
REMARK    2  A    between atoms: C_2  and  C_4
REMARK    3  A    between atoms: C_2  and  N_17
REMARK    4  A    between atoms: C_7  and  N_10
REMARK    5  A    between atoms: N_13  and  C_14
REMARK    6  A    between atoms: N_17  and  C_18
REMARK    7  A    between atoms: C_18  and  C_20
REMARK    8  A    between atoms: C_18  and  C_21
REMARK    9  A    between atoms: N_26  and  C_27
REMARK                            x       y       z     vdW  Elec       q    Type
REMARK                         _______ _______ _______ _____ _____    ______ ____
ROOT
ATOM      1  C   UNL     1      -0.321   1.615   0.024  0.00  0.00    +0.029 C 
ATOM      2  C   UNL     1      -0.176   0.092   0.042  0.00  0.00    +0.081 C 
ENDROOT
BRANCH   2   3
ATOM      3  C   UNL     1       0.508  -0.363  -1.221  0.00  0.00    -0.031 A 
ATOM      4  C   UNL     1       1.883  -0.272  -1.333  0.00  0.00    +0.007 A 
ATOM      5  C   UNL     1       2.513  -0.688  -2.490  0.00  0.00    +0.023 A 
ATOM      6  C   UNL     1       1.763  -1.198  -3.542  0.00  0.00    +0.035 A 
ATOM      7  C   UNL     1       0.382  -1.288  -3.426  0.00  0.00    +0.023 A 
ATOM      8  C   UNL     1      -0.241  -0.875  -2.265  0.00  0.00    +0.007 A 
BRANCH   6   9
ATOM      9  N   UNL     1       2.397  -1.620  -4.715  0.00  0.00    -0.269 N 
ATOM     10  C   UNL     1       3.611  -2.203  -4.653  0.00  0.00    +0.304 C 
ATOM     11  O   UNL     1       4.191  -2.288  -3.587  0.00  0.00    -0.253 OA
ATOM     12  N   UNL     1       4.182  -2.691  -5.771  0.00  0.00    -0.296 N 
ATOM     13  H   UNL     1       1.964  -1.493  -5.574  0.00  0.00    +0.156 HD
ATOM     14  H   UNL     1       3.720  -2.624  -6.622  0.00  0.00    +0.151 HD
BRANCH  12  15
ATOM     15  C   UNL     1       5.502  -3.325  -5.704  0.00  0.00    +0.075 C 
ATOM     16  C   UNL     1       6.514  -2.967  -6.794  0.00  0.00    +0.024 C 
ATOM     17  C   UNL     1       5.851  -4.346  -6.788  0.00  0.00    +0.024 C 
ENDBRANCH  12  15
ENDBRANCH   6   9
ENDBRANCH   2   3
BRANCH   2  18
ATOM     18  N   UNL     1       0.627  -0.309   1.205  0.00  0.00    -0.299 NA
ATOM     19  H   UNL     1       1.607  -0.126   1.048  0.00  0.00    +0.123 HD
BRANCH  18  20
ATOM     20  C   UNL     1       0.403  -1.722   1.538  0.00  0.00    +0.138 C 
ATOM     21  C   UNL     1      -0.899  -1.859   2.330  0.00  0.00    +0.034 C 
BRANCH  20  22
ATOM     22  C   UNL     1       1.553  -2.232   2.368  0.00  0.00    +0.237 C 
ATOM     23  O   UNL     1       2.469  -1.491   2.654  0.00  0.00    -0.274 OA
ATOM     24  N   UNL     1       1.563  -3.511   2.792  0.00  0.00    -0.239 N 
ATOM     25  C   UNL     1       2.591  -3.966   3.534  0.00  0.00    +0.306 C 
ATOM     26  O   UNL     1       3.510  -3.224   3.822  0.00  0.00    -0.252 OA
ATOM     27  N   UNL     1       2.602  -5.246   3.959  0.00  0.00    -0.296 N 
ATOM     28  H   UNL     1       0.830  -4.104   2.563  0.00  0.00    +0.159 HD
ATOM     29  H   UNL     1       1.869  -5.839   3.729  0.00  0.00    +0.151 HD
BRANCH  27  30
ATOM     30  C   UNL     1       3.719  -5.741   4.766  0.00  0.00    +0.075 C 
ATOM     31  C   UNL     1       4.285  -7.120   4.419  0.00  0.00    +0.024 C 
ATOM     32  C   UNL     1       3.451  -6.931   5.689  0.00  0.00    +0.024 C 
ENDBRANCH  27  30
ENDBRANCH  20  22
ENDBRANCH  18  20
ENDBRANCH   2  18
TORSDOF 7
