REMARK  Name = ZINC14649927
REMARK  14 active torsions:
REMARK  status: ('A' for Active; 'I' for Inactive)
REMARK    1  A    between atoms: C_1  and  C_2
REMARK    2  A    between atoms: C_5  and  C_32
REMARK    3  A    between atoms: C_6  and  N_8
REMARK    4  A    between atoms: C_9  and  C_11
REMARK    5  A    between atoms: C_11  and  C_12
REMARK    6  A    between atoms: C_12  and  C_13
REMARK    7  A    between atoms: N_15  and  N_16
REMARK    8  A    between atoms: C_17  and  C_19
REMARK    9  A    between atoms: C_19  and  O_20
REMARK   10  A    between atoms: O_20  and  C_21
REMARK   11  A    between atoms: C_24  and  C_28
REMARK   12  A    between atoms: C_28  and  C_29
REMARK   13  A    between atoms: C_28  and  C_30
REMARK   14  A    between atoms: C_28  and  C_31
REMARK                            x       y       z     vdW  Elec       q    Type
REMARK                         _______ _______ _______ _____ _____    ______ ____
ROOT
ATOM      1  C   UNL     1      -0.730   3.504   1.291  0.00  0.00    +0.230 C 
ATOM      2  O   UNL     1      -0.216   4.122   0.383  0.00  0.00    -0.274 OA
ATOM      3  N   UNL     1      -1.310   4.165   2.312  0.00  0.00    -0.234 N 
ATOM      4  H   UNL     1      -1.721   3.670   3.038  0.00  0.00    +0.173 HD
ENDROOT
BRANCH   3   5
ATOM      5  N   UNL     1      -1.319   5.565   2.325  0.00  0.00    -0.232 N 
ATOM      6  C   UNL     1      -1.899   6.226   3.346  0.00  0.00    +0.267 C 
ATOM      7  O   UNL     1      -2.413   5.608   4.255  0.00  0.00    -0.271 OA
ATOM      8  H   UNL     1      -0.908   6.060   1.599  0.00  0.00    +0.173 HD
BRANCH   6   9
ATOM      9  C   UNL     1      -1.909   7.733   3.360  0.00  0.00    +0.326 C 
BRANCH   9  10
ATOM     10  O   UNL     1      -2.577   8.194   4.537  0.00  0.00    -0.482 OA
BRANCH  10  11
ATOM     11  C   UNL     1      -2.673   9.540   4.704  0.00  0.00    +0.135 A 
ATOM     12  C   UNL     1      -2.137  10.398   3.755  0.00  0.00    +0.047 A 
ATOM     13  C   UNL     1      -2.237  11.765   3.927  0.00  0.00    +0.008 A 
ATOM     14  C   UNL     1      -2.872  12.278   5.043  0.00  0.00    -0.041 A 
ATOM     15  C   UNL     1      -3.408  11.426   5.990  0.00  0.00    +0.023 A 
ATOM     16  C   UNL     1      -3.314  10.057   5.821  0.00  0.00    +0.060 A 
ATOM     17 BR   UNL     1      -4.053   8.891   7.113  0.00  0.00    -0.047 Br
BRANCH  14  18
ATOM     18  C   UNL     1      -2.979  13.770   5.228  0.00  0.00    -0.013 C 
ATOM     19  C   UNL     1      -3.750  14.375   4.053  0.00  0.00    +0.015 C 
ATOM     20  C   UNL     1      -3.720  14.071   6.532  0.00  0.00    +0.015 C 
ATOM     21  C   UNL     1      -1.577  14.380   5.286  0.00  0.00    +0.015 C 
ENDBRANCH  14  18
ENDBRANCH  10  11
ENDBRANCH   9  10
ENDBRANCH   6   9
ENDBRANCH   3   5
BRANCH   1  22
ATOM     22  C   UNL     1      -0.720   1.997   1.277  0.00  0.00    +0.106 C 
BRANCH  22  23
ATOM     23  C   UNL     1      -0.005   1.503   0.017  0.00  0.00    +0.105 C 
BRANCH  23  25
ATOM     24  N   UNL     1       0.585  -0.664  -1.018  0.00  0.00    -0.285 N 
ATOM     25  C   UNL     1       0.005  -0.004   0.004  0.00  0.00    +0.218 C 
ATOM     26  O   UNL     1      -0.509  -0.622   0.912  0.00  0.00    -0.275 OA
ATOM     27  H   UNL     1       0.925  -0.174  -1.782  0.00  0.00    +0.155 HD
BRANCH  24  33
ATOM     28  C   UNL     1       0.825  -4.813   1.609  0.00  0.00    +0.044 C 
ATOM     29  C   UNL     1       0.816  -4.095   0.284  0.00  0.00    -0.049 A 
ATOM     30  C   UNL     1       0.919  -4.815  -0.892  0.00  0.00    +0.004 A 
ATOM     31  C   UNL     1       0.912  -4.160  -2.110  0.00  0.00    +0.005 A 
ATOM     32  C   UNL     1       0.801  -2.784  -2.155  0.00  0.00    -0.029 A 
ATOM     33  C   UNL     1       0.697  -2.059  -0.976  0.00  0.00    +0.037 A 
ATOM     34  C   UNL     1       0.710  -2.719   0.246  0.00  0.00    +0.027 A 
ATOM     35  C   UNL     1       0.793  -2.071  -3.483  0.00  0.00    +0.045 C 
ENDBRANCH  24  33
ENDBRANCH  23  25
ENDBRANCH  22  23
ENDBRANCH   1  22
TORSDOF 9
