REMARK  Name = ZINC61693179
REMARK  4 active torsions:
REMARK  status: ('A' for Active; 'I' for Inactive)
REMARK    1  A    between atoms: C_4  and  N_8
REMARK    2  A    between atoms: N_8  and  S_9
REMARK    3  A    between atoms: S_9  and  C_12
REMARK    4  A    between atoms: N_18  and  N_19
REMARK                            x       y       z     vdW  Elec       q    Type
REMARK                         _______ _______ _______ _____ _____    ______ ____
ROOT
ATOM      1  S   UNL     1       3.645  -2.307  -0.045  0.00  0.00    +0.092 S 
ATOM      2  O   UNL     1       3.113  -2.728   1.203  0.00  0.00    -0.148 OA
ATOM      3  O   UNL     1       3.088  -2.714  -1.288  0.00  0.00    -0.148 OA
ENDROOT
BRANCH   1   4
ATOM      4  C   UNL     1       5.336  -2.803  -0.065  0.00  0.00    +0.115 A 
ATOM      5  C   UNL     1       6.007  -2.990  -1.266  0.00  0.00    +0.046 A 
ATOM      6  C   UNL     1       7.331  -3.379  -1.247  0.00  0.00    +0.086 A 
ATOM      7  N   UNL     1       7.964  -3.572  -0.105  0.00  0.00    -0.349 N 
ATOM      8  C   UNL     1       7.359  -3.404   1.060  0.00  0.00    +0.112 A 
ATOM      9  C   UNL     1       6.026  -3.008   1.116  0.00  0.00    +0.071 A 
ATOM     10  N   UNL     1       8.063  -3.619   2.239  0.00  0.00    -0.269 N 
ATOM     11  H   UNL     1       7.624  -3.497   3.096  0.00  0.00    +0.167 HD
ATOM     12  H   UNL     1       8.895  -3.845  -0.120  0.00  0.00    +0.167 HD
BRANCH  10  13
ATOM     13  N   UNL     1       9.373  -4.003   2.192  0.00  0.00    -0.255 NA
ATOM     14  H   UNL     1       9.749  -4.120   3.121  0.00  0.00    +0.140 HD
ATOM     15  H   UNL     1       9.484  -4.846   1.648  0.00  0.00    +0.140 HD
ENDBRANCH  10  13
ENDBRANCH   1   4
BRANCH   1  16
ATOM     16  N   UNL     1       3.621  -0.651  -0.036  0.00  0.00    -0.096 NA
BRANCH  16  20
ATOM     17  C   UNL     1      -0.017   1.379   0.010  0.00  0.00    +0.017 A 
ATOM     18  C   UNL     1       1.170   2.090   0.002  0.00  0.00    +0.023 A 
ATOM     19  C   UNL     1       2.378   1.420  -0.013  0.00  0.00    +0.065 A 
ATOM     20  C   UNL     1       2.400   0.030  -0.021  0.00  0.00    +0.094 A 
ATOM     21  C   UNL     1       1.208  -0.680  -0.013  0.00  0.00    +0.043 A 
ATOM     22  C   UNL     1       0.002  -0.004   0.002  0.00  0.00    +0.020 A 
ATOM     23 BR   UNL     1      -1.623  -0.971   0.013  0.00  0.00    -0.050 Br
ATOM     24 CL   UNL     1       3.867   2.313  -0.023  0.00  0.00    -0.082 Cl
ENDBRANCH  16  20
ENDBRANCH   1  16
TORSDOF 4
