REMARK  Name = ZINC43509295
REMARK  20 active torsions:
REMARK  status: ('A' for Active; 'I' for Inactive)
REMARK    1  A    between atoms: C_1  and  C_2
REMARK    2  A    between atoms: C_2  and  O_33
REMARK    3  A    between atoms: C_3  and  C_31
REMARK    4  A    between atoms: C_6  and  C_13
REMARK    5  A    between atoms: C_6  and  O_14
REMARK    6  A    between atoms: C_7  and  C_11
REMARK    7  A    between atoms: C_7  and  O_12
REMARK    8  A    between atoms: C_8  and  C_9
REMARK    9  A    between atoms: C_8  and  O_10
REMARK   10  A    between atoms: O_14  and  C_15
REMARK   11  A    between atoms: C_15  and  C_30
REMARK   12  A    between atoms: C_16  and  C_28
REMARK   13  A    between atoms: C_19  and  C_26
REMARK   14  A    between atoms: C_19  and  O_27
REMARK   15  A    between atoms: C_20  and  C_24
REMARK   16  A    between atoms: C_20  and  O_25
REMARK   17  A    between atoms: C_21  and  C_22
REMARK   18  A    between atoms: C_21  and  O_23
REMARK   19  A    between atoms: C_28  and  O_29
REMARK   20  A    between atoms: C_31  and  O_32
REMARK                            x       y       z     vdW  Elec       q    Type
REMARK                         _______ _______ _______ _____ _____    ______ ____
ROOT
ATOM      1  O   UNL     1      -1.892  -1.935   2.016  0.00  0.00    -0.334 OA
ENDROOT
BRANCH   1   6
ATOM      2  C   UNL     1      -1.331   2.540   1.930  0.00  0.00    +0.047 C 
ATOM      3  C   UNL     1      -1.480   1.338   0.994  0.00  0.00    +0.123 C 
ATOM      4  C   UNL     1      -2.800   0.622   1.287  0.00  0.00    +0.181 C 
ATOM      5  O   UNL     1      -2.910  -0.533   0.453  0.00  0.00    -0.338 OA
ATOM      6  C   UNL     1      -1.877  -1.500   0.655  0.00  0.00    +0.200 C 
ATOM      7  C   UNL     1      -0.519  -0.868   0.337  0.00  0.00    +0.147 C 
ATOM      8  C   UNL     1      -0.318   0.366   1.222  0.00  0.00    +0.127 C 
ATOM      9  C   UNL     1      -0.287  -0.058   2.692  0.00  0.00    +0.047 C 
ATOM     10  C   UNL     1       0.593  -1.882   0.612  0.00  0.00    +0.050 C 
ATOM     11  C   UNL     1      -2.111  -2.698  -0.267  0.00  0.00    +0.077 C 
BRANCH   8  12
ATOM     12  O   UNL     1       0.914   1.004   0.880  0.00  0.00    -0.383 OA
ATOM     13  H   UNL     1       1.102   1.798   1.398  0.00  0.00    +0.210 HD
ENDBRANCH   8  12
BRANCH   7  14
ATOM     14  O   UNL     1      -0.484  -0.480  -1.038  0.00  0.00    -0.381 OA
ATOM     15  H   UNL     1      -0.610  -1.213  -1.657  0.00  0.00    +0.211 HD
ENDBRANCH   7  14
BRANCH   3  16
ATOM     16  O   UNL     1      -1.469   1.786  -0.363  0.00  0.00    -0.383 OA
ATOM     17  H   UNL     1      -2.180   2.405  -0.579  0.00  0.00    +0.210 HD
ENDBRANCH   3  16
BRANCH   4  18
ATOM     18  C   UNL     1      -3.968   1.569   1.005  0.00  0.00    +0.190 C 
BRANCH  18  19
ATOM     19  O   UNL     1      -5.198   0.918   1.331  0.00  0.00    -0.392 OA
ATOM     20  H   UNL     1      -5.977   1.486   1.249  0.00  0.00    +0.210 HD
ENDBRANCH  18  19
ENDBRANCH   4  18
ENDBRANCH   1   6
BRANCH   1  21
ATOM     21  C   UNL     1      -3.142  -2.487   2.436  0.00  0.00    +0.129 C 
ATOM     22  C   UNL     1      -3.547  -1.874   3.779  0.00  0.00    +0.181 C 
ATOM     23  O   UNL     1      -2.573  -2.210   4.768  0.00  0.00    -0.338 OA
ATOM     24  C   UNL     1      -2.433  -3.614   4.996  0.00  0.00    +0.197 C 
ATOM     25  C   UNL     1      -1.983  -4.297   3.702  0.00  0.00    +0.147 C 
ATOM     26  C   UNL     1      -3.003  -4.004   2.598  0.00  0.00    +0.128 C 
ATOM     27  C   UNL     1      -2.522  -4.617   1.281  0.00  0.00    +0.047 C 
ATOM     28  C   UNL     1      -0.612  -3.757   3.289  0.00  0.00    +0.050 C 
ATOM     29  C   UNL     1      -3.777  -4.195   5.439  0.00  0.00    +0.077 C 
ATOM     30  C   UNL     1      -4.214  -2.181   1.388  0.00  0.00    +0.047 C 
BRANCH  26  31
ATOM     31  O   UNL     1      -4.268  -4.565   2.954  0.00  0.00    -0.383 OA
ATOM     32  H   UNL     1      -4.253  -5.524   3.073  0.00  0.00    +0.210 HD
ENDBRANCH  26  31
BRANCH  25  33
ATOM     33  O   UNL     1      -1.898  -5.708   3.912  0.00  0.00    -0.381 OA
ATOM     34  H   UNL     1      -1.273  -5.966   4.603  0.00  0.00    +0.211 HD
ENDBRANCH  25  33
BRANCH  24  35
ATOM     35  O   UNL     1      -1.458  -3.836   6.017  0.00  0.00    -0.362 OA
ATOM     36  H   UNL     1      -1.678  -3.430   6.866  0.00  0.00    +0.213 HD
ENDBRANCH  24  35
BRANCH  22  37
ATOM     37  C   UNL     1      -3.630  -0.352   3.640  0.00  0.00    +0.190 C 
BRANCH  37  38
ATOM     38  O   UNL     1      -4.378   0.185   4.733  0.00  0.00    -0.392 OA
ATOM     39  H   UNL     1      -4.536   1.137   4.670  0.00  0.00    +0.210 HD
ENDBRANCH  37  38
ENDBRANCH  22  37
ENDBRANCH   1  21
TORSDOF 12
