REMARK  Name = ZINC63271182
REMARK  10 active torsions:
REMARK  status: ('A' for Active; 'I' for Inactive)
REMARK    1  A    between atoms: C_1  and  O_2
REMARK    2  A    between atoms: O_2  and  C_3
REMARK    3  A    between atoms: C_8  and  C_15
REMARK    4  A    between atoms: C_12  and  O_13
REMARK    5  A    between atoms: O_13  and  C_14
REMARK    6  A    between atoms: N_17  and  C_18
REMARK    7  A    between atoms: C_18  and  C_19
REMARK    8  A    between atoms: N_21  and  C_22
REMARK    9  A    between atoms: C_22  and  C_23
REMARK   10  A    between atoms: C_23  and  C_24
REMARK                            x       y       z     vdW  Elec       q    Type
REMARK                         _______ _______ _______ _____ _____    ______ ____
ROOT
ATOM      1  C   UNL     1      -4.908  -4.706   1.269  0.00  0.00    +0.240 C 
ATOM      2  O   UNL     1      -5.258  -4.057   2.232  0.00  0.00    -0.273 OA
ATOM      3  N   UNL     1      -4.965  -6.052   1.306  0.00  0.00    -0.305 N 
ATOM      4  H   UNL     1      -4.685  -6.571   0.536  0.00  0.00    +0.149 HD
ENDROOT
BRANCH   1  10
ATOM      5  C   UNL     1      -1.202  -0.638   0.010  0.00  0.00    +0.162 A 
ATOM      6  C   UNL     1      -2.377   0.124   0.020  0.00  0.00    +0.051 A 
ATOM      7  C   UNL     1      -3.610  -0.432   0.028  0.00  0.00    +0.030 A 
ATOM      8  C   UNL     1      -3.765  -1.843   0.028  0.00  0.00    +0.047 A 
ATOM      9  N   UNL     1      -4.835  -2.604   0.035  0.00  0.00    -0.370 N 
ATOM     10  C   UNL     1      -4.408  -4.007   0.031  0.00  0.00    +0.190 C 
ATOM     11  C   UNL     1      -2.896  -3.982   0.019  0.00  0.00    +0.020 C 
ATOM     12  C   UNL     1      -2.543  -2.679   0.017  0.00  0.00    +0.042 A 
ATOM     13  C   UNL     1      -1.237  -2.001   0.003  0.00  0.00    +0.170 A 
ATOM     14  H   UNL     1      -5.753  -2.291   0.043  0.00  0.00    +0.161 HD
BRANCH   5  16
ATOM     15  C   UNL     1      -0.017   1.425   0.010  0.00  0.00    +0.277 C 
ATOM     16  O   UNL     1       0.002  -0.004   0.002  0.00  0.00    -0.491 OA
ENDBRANCH   5  16
BRANCH  13  17
ATOM     17  O   UNL     1      -0.086  -2.721  -0.012  0.00  0.00    -0.491 OA
ATOM     18  C   UNL     1       0.476  -3.072   1.254  0.00  0.00    +0.277 C 
ENDBRANCH  13  17
ENDBRANCH   1  10
BRANCH   3  19
ATOM     19  C   UNL     1      -5.451  -6.731   2.510  0.00  0.00    +0.200 C 
BRANCH  19  20
ATOM     20  C   UNL     1      -5.415  -8.222   2.295  0.00  0.00    +0.230 C 
ATOM     21  O   UNL     1      -5.023  -8.673   1.239  0.00  0.00    -0.274 OA
ATOM     22  N   UNL     1      -5.819  -9.055   3.275  0.00  0.00    -0.314 N 
ATOM     23  H   UNL     1      -6.133  -8.694   4.119  0.00  0.00    +0.149 HD
BRANCH  22  24
ATOM     24  C   UNL     1      -5.785 -10.504   3.065  0.00  0.00    +0.108 C 
BRANCH  24  25
ATOM     25  C   UNL     1      -6.292 -11.213   4.322  0.00  0.00    +0.052 C 
BRANCH  25  26
ATOM     26  C   UNL     1      -6.257 -12.705   4.107  0.00  0.00    -0.040 C 
ATOM     27  C   UNL     1      -5.270 -13.556   4.469  0.00  0.00    -0.001 A 
ATOM     28  C   UNL     1      -3.982 -13.355   5.145  0.00  0.00    +0.010 A 
ATOM     29  C   UNL     1      -3.189 -14.425   5.375  0.00  0.00    +0.001 A 
ATOM     30  C   UNL     1      -3.563 -15.719   4.985  0.00  0.00    +0.002 A 
ATOM     31  C   UNL     1      -4.730 -15.982   4.359  0.00  0.00    +0.026 A 
ATOM     32  C   UNL     1      -5.643 -14.931   4.067  0.00  0.00    +0.043 A 
ATOM     33  N   UNL     1      -6.814 -14.930   3.479  0.00  0.00    -0.380 N 
ATOM     34  C   UNL     1      -7.321 -13.553   3.447  0.00  0.00    +0.144 C 
ATOM     35  H   UNL     1      -7.272 -15.710   3.128  0.00  0.00    +0.160 HD
ENDBRANCH  25  26
ENDBRANCH  24  25
ENDBRANCH  22  24
ENDBRANCH  19  20
ENDBRANCH   3  19
TORSDOF 8
