REMARK  Name = ZINC13521536
REMARK  6 active torsions:
REMARK  status: ('A' for Active; 'I' for Inactive)
REMARK    1  A    between atoms: C_3  and  C_8
REMARK    2  A    between atoms: N_13  and  C_25
REMARK    3  A    between atoms: C_14  and  C_18
REMARK    4  A    between atoms: C_16  and  N_51
REMARK    5  A    between atoms: C_21  and  O_24
REMARK    6  A    between atoms: C_25  and  C_26
REMARK                            x       y       z     vdW  Elec       q    Type
REMARK                         _______ _______ _______ _____ _____    ______ ____
ROOT
ATOM      1  C   UNL     1      -2.607  -1.644  -3.791  0.00  0.00    +0.015 C 
ATOM      2  C   UNL     1      -2.874  -0.287  -3.137  0.00  0.00    +0.102 C 
ATOM      3  C   UNL     1      -2.527  -0.347  -1.677  0.00  0.00    +0.217 C 
ATOM      4  O   UNL     1      -2.973   0.511  -0.945  0.00  0.00    -0.276 OA
ATOM      5  N   UNL     1      -1.749  -1.290  -1.144  0.00  0.00    -0.292 N 
ATOM      6  C   UNL     1      -1.190  -2.408  -1.894  0.00  0.00    +0.093 C 
ATOM      7  C   UNL     1      -1.200  -2.106  -3.393  0.00  0.00    -0.042 C 
ENDROOT
BRANCH   1  10
ATOM      8  C   UNL     1      -3.686  -2.146  -7.374  0.00  0.00    +0.001 A 
ATOM      9  C   UNL     1      -3.607  -2.267  -5.999  0.00  0.00    +0.004 A 
ATOM     10  C   UNL     1      -2.692  -1.512  -5.290  0.00  0.00    -0.044 A 
ATOM     11  C   UNL     1      -1.860  -0.631  -5.954  0.00  0.00    +0.019 A 
ATOM     12  C   UNL     1      -1.935  -0.513  -7.330  0.00  0.00    +0.018 A 
ATOM     13  C   UNL     1      -2.850  -1.270  -8.040  0.00  0.00    +0.015 A 
ATOM     14 BR   UNL     1      -0.790   0.686  -8.241  0.00  0.00    -0.050 Br
ENDBRANCH   1  10
BRANCH   6  15
ATOM     15  C   UNL     1       0.230  -2.646  -1.448  0.00  0.00    -0.028 A 
ATOM     16  C   UNL     1       1.105  -1.582  -1.334  0.00  0.00    +0.009 A 
ATOM     17  C   UNL     1       2.406  -1.797  -0.920  0.00  0.00    +0.046 A 
ATOM     18  C   UNL     1       2.836  -3.083  -0.629  0.00  0.00    +0.117 A 
ATOM     19  C   UNL     1       1.958  -4.150  -0.749  0.00  0.00    +0.046 A 
ATOM     20  C   UNL     1       0.657  -3.929  -1.159  0.00  0.00    +0.009 A 
BRANCH  18  21
ATOM     21  O   UNL     1       4.116  -3.298  -0.226  0.00  0.00    -0.507 OA
ATOM     22  H   UNL     1       4.733  -3.468  -0.951  0.00  0.00    +0.292 HD
ENDBRANCH  18  21
ENDBRANCH   6  15
BRANCH   7  25
ATOM     23  H   UNL     1      -0.845  -3.142  -5.136  0.00  0.00    -0.090 HD
ATOM     24  H   UNL     1       0.047  -3.682  -3.840  0.00  0.00    -0.090 HD
ATOM     25  N   UNL     1      -0.864  -3.333  -4.136  0.00  0.00    +0.382 N 
ATOM     26  H   UNL     1      -1.575  -4.049  -3.945  0.00  0.00    -0.090 HD
ENDBRANCH   7  25
BRANCH   5  27
ATOM     27  C   UNL     1      -1.443  -1.201   0.286  0.00  0.00    +0.145 C 
BRANCH  27  28
ATOM     28  C   UNL     1      -2.506  -1.924   1.073  0.00  0.00    -0.012 A 
ATOM     29  C   UNL     1      -3.588  -1.230   1.593  0.00  0.00    +0.008 A 
ATOM     30  C   UNL     1      -4.541  -1.936   2.311  0.00  0.00    +0.020 A 
ATOM     31  C   UNL     1      -4.382  -3.298   2.483  0.00  0.00    +0.111 A 
ATOM     32  N   UNL     1      -3.340  -3.925   1.974  0.00  0.00    -0.263 NA
ATOM     33  C   UNL     1      -2.414  -3.286   1.286  0.00  0.00    +0.115 A 
ENDBRANCH  27  28
ENDBRANCH   5  27
TORSDOF 6
