REMARK  Name = ZINC40681227
REMARK  7 active torsions:
REMARK  status: ('A' for Active; 'I' for Inactive)
REMARK    1  A    between atoms: C_1  and  C_2
REMARK    2  A    between atoms: C_4  and  C_23
REMARK    3  A    between atoms: C_6  and  O_8
REMARK    4  A    between atoms: O_8  and  C_9
REMARK    5  A    between atoms: C_10  and  N_22
REMARK    6  A    between atoms: C_11  and  N_15
REMARK    7  A    between atoms: N_15  and  C_16
REMARK                            x       y       z     vdW  Elec       q    Type
REMARK                         _______ _______ _______ _____ _____    ______ ____
ROOT
ATOM      1  C   UNL     1       0.179  -2.061   3.510  0.00  0.00    +0.246 A 
ATOM      2  C   UNL     1       0.283  -2.718   4.735  0.00  0.00    +0.128 A 
ATOM      3  C   UNL     1       0.407  -1.943   5.891  0.00  0.00    +0.151 A 
ATOM      4  N   UNL     1       0.421  -0.617   5.779  0.00  0.00    -0.218 NA
ATOM      5  C   UNL     1       0.320  -0.037   4.600  0.00  0.00    +0.227 A 
ATOM      6  N   UNL     1       0.207  -0.732   3.486  0.00  0.00    -0.199 NA
ENDROOT
BRANCH   2   7
ATOM      7  N   UNL     1       0.264  -4.119   4.806  0.00  0.00    -0.351 N 
ATOM      8  H   UNL     1       0.177  -4.644   3.995  0.00  0.00    +0.143 HD
ATOM      9  H   UNL     1       0.338  -4.563   5.665  0.00  0.00    +0.143 HD
ENDBRANCH   2   7
BRANCH   3  10
ATOM     10  N   UNL     1       0.515  -2.548   7.138  0.00  0.00    -0.298 N 
ATOM     11  H   UNL     1       0.594  -3.512   7.205  0.00  0.00    +0.154 HD
BRANCH  10  12
ATOM     12  C   UNL     1       0.508  -1.768   8.293  0.00  0.00    +0.035 A 
ATOM     13  C   UNL     1      -0.124  -0.525   8.313  0.00  0.00    +0.041 A 
ATOM     14  C   UNL     1      -0.107   0.216   9.476  0.00  0.00    +0.084 A 
ATOM     15  N   UNL     1       0.496  -0.238  10.559  0.00  0.00    -0.367 N 
ATOM     16  C   UNL     1       1.105  -1.409  10.580  0.00  0.00    +0.084 A 
ATOM     17  C   UNL     1       1.129  -2.213   9.460  0.00  0.00    +0.041 A 
ATOM     18  H   UNL     1       0.492   0.305  11.363  0.00  0.00    +0.165 HD
ENDBRANCH  10  12
ENDBRANCH   3  10
BRANCH   1  19
ATOM     19  O   UNL     1       0.057  -2.767   2.358  0.00  0.00    -0.436 OA
BRANCH  19  25
ATOM     20  C   UNL     1       2.468   0.012  -0.849  0.00  0.00    +0.044 C 
ATOM     21  C   UNL     1       1.223  -0.716  -0.411  0.00  0.00    -0.047 A 
ATOM     22  C   UNL     1       0.091  -0.685  -1.204  0.00  0.00    +0.007 A 
ATOM     23  C   UNL     1      -1.054  -1.352  -0.805  0.00  0.00    -0.047 A 
ATOM     24  C   UNL     1      -1.067  -2.049   0.388  0.00  0.00    +0.049 A 
ATOM     25  C   UNL     1       0.068  -2.082   1.185  0.00  0.00    +0.131 A 
ATOM     26  C   UNL     1       1.216  -1.416   0.779  0.00  0.00    +0.049 A 
ATOM     27  C   UNL     1      -2.286  -1.316  -1.671  0.00  0.00    +0.044 C 
ENDBRANCH  19  25
ENDBRANCH   1  19
TORSDOF 5
