REMARK  Name = ZINC29158248
REMARK  5 active torsions:
REMARK  status: ('A' for Active; 'I' for Inactive)
REMARK    1  A    between atoms: C_1  and  C_2
REMARK    2  A    between atoms: C_2  and  C_4
REMARK    3  A    between atoms: C_2  and  N_16
REMARK    4  A    between atoms: N_6  and  C_7
REMARK    5  A    between atoms: C_19  and  C_22
REMARK                            x       y       z     vdW  Elec       q    Type
REMARK                         _______ _______ _______ _____ _____    ______ ____
ROOT
ATOM      1  C   UNL     1      -1.466   0.291   3.046  0.00  0.00    -0.004 C 
ATOM      2  C   UNL     1      -0.227   0.127   2.164  0.00  0.00    +0.016 C 
ENDROOT
BRANCH   2   3
ATOM      3  N   UNL     1      -0.569   0.456   0.774  0.00  0.00    +0.387 N 
ATOM      4  C   UNL     1       0.634   0.504  -0.067  0.00  0.00    -0.077 C 
ATOM      5  C   UNL     1       0.228   0.704  -1.529  0.00  0.00    -0.006 C 
ATOM      6  C   UNL     1      -0.562   2.008  -1.661  0.00  0.00    +0.072 C 
ATOM      7  C   UNL     1      -1.783   1.952  -0.739  0.00  0.00    -0.006 C 
ATOM      8  C   UNL     1      -1.319   1.716   0.700  0.00  0.00    -0.077 C 
ATOM      9  H   UNL     1      -1.217  -0.344   0.385  0.00  0.00    -0.081 HD
BRANCH   6  10
ATOM     10  C   UNL     1      -1.016   2.180  -3.088  0.00  0.00    +0.219 C 
ATOM     11  O   UNL     1      -1.108   1.214  -3.816  0.00  0.00    -0.275 OA
ATOM     12  N   UNL     1      -1.320   3.407  -3.555  0.00  0.00    -0.301 N 
ATOM     13  C   UNL     1      -1.843   3.708  -4.896  0.00  0.00    +0.108 C 
ATOM     14  C   UNL     1      -2.016   5.239  -4.987  0.00  0.00    +0.020 C 
ATOM     15  C   UNL     1      -1.041   5.762  -3.900  0.00  0.00    +0.020 C 
ATOM     16  C   UNL     1      -1.177   4.671  -2.809  0.00  0.00    +0.108 C 
ENDBRANCH   6  10
ENDBRANCH   2   3
BRANCH   2  17
ATOM     17  C   UNL     1       0.860   1.054   2.646  0.00  0.00    +0.203 C 
ATOM     18  O   UNL     1       0.980   2.156   2.154  0.00  0.00    -0.277 OA
ATOM     19  N   UNL     1       1.697   0.658   3.625  0.00  0.00    -0.286 N 
ATOM     20  H   UNL     1       1.637  -0.367   4.019  0.00  0.00    +0.155 HD
BRANCH  19  21
ATOM     21  C   UNL     1       2.644   1.552   4.140  0.00  0.00    +0.053 A 
ATOM     22  C   UNL     1       2.449   2.921   4.013  0.00  0.00    +0.046 A 
ATOM     23  C   UNL     1       3.385   3.801   4.522  0.00  0.00    +0.061 A 
ATOM     24  C   UNL     1       4.516   3.319   5.160  0.00  0.00    +0.061 A 
ATOM     25  C   UNL     1       4.713   1.956   5.287  0.00  0.00    +0.043 A 
ATOM     26  C   UNL     1       3.777   1.071   4.784  0.00  0.00    +0.064 A 
ATOM     27 CL   UNL     1       4.021  -0.640   4.951  0.00  0.00    -0.082 Cl
ATOM     28 CL   UNL     1       5.690   4.427   5.799  0.00  0.00    -0.082 Cl
ATOM     29 CL   UNL     1       3.142   5.513   4.363  0.00  0.00    -0.082 Cl
ENDBRANCH  19  21
ENDBRANCH   2  17
TORSDOF 4
