REMARK  Name = ZINC32904197
REMARK  7 active torsions:
REMARK  status: ('A' for Active; 'I' for Inactive)
REMARK    1  A    between atoms: C_1  and  C_2
REMARK    2  A    between atoms: C_10  and  C_32
REMARK    3  A    between atoms: C_11  and  C_12
REMARK    4  A    between atoms: C_12  and  C_13
REMARK    5  A    between atoms: N_15  and  C_16
REMARK    6  A    between atoms: C_19  and  N_22
REMARK    7  A    between atoms: N_25  and  C_26
REMARK                            x       y       z     vdW  Elec       q    Type
REMARK                         _______ _______ _______ _____ _____    ______ ____
ROOT
ATOM      1  C   UNL     1       3.925   6.385   1.426  0.00  0.00    +0.222 C 
ATOM      2  O   UNL     1       3.294   5.919   2.351  0.00  0.00    -0.275 OA
ATOM      3  N   UNL     1       5.021   7.131   1.666  0.00  0.00    -0.285 N 
ATOM      4  H   UNL     1       5.648   7.474   0.829  0.00  0.00    +0.155 HD
ENDROOT
BRANCH   3   5
ATOM      5  C   UNL     1       5.364   7.470   2.982  0.00  0.00    +0.034 A 
ATOM      6  C   UNL     1       4.379   7.541   3.958  0.00  0.00    +0.025 A 
ATOM      7  C   UNL     1       4.717   7.869   5.256  0.00  0.00    +0.025 A 
ATOM      8  C   UNL     1       6.040   8.139   5.582  0.00  0.00    +0.035 A 
ATOM      9  C   UNL     1       7.023   8.074   4.604  0.00  0.00    +0.025 A 
ATOM     10  C   UNL     1       6.686   7.740   3.308  0.00  0.00    +0.025 A 
BRANCH   8  11
ATOM     11  N   UNL     1       6.382   8.478   6.898  0.00  0.00    -0.269 N 
ATOM     12  C   UNL     1       5.729   7.911   7.931  0.00  0.00    +0.308 C 
ATOM     13  O   UNL     1       4.787   7.170   7.722  0.00  0.00    -0.252 OA
ATOM     14  N   UNL     1       6.119   8.164   9.196  0.00  0.00    -0.269 N 
ATOM     15  H   UNL     1       7.184   9.206   7.088  0.00  0.00    +0.156 HD
ATOM     16  H   UNL     1       6.912   8.901   9.390  0.00  0.00    +0.156 HD
BRANCH  14  17
ATOM     17  C   UNL     1       5.515   7.490  10.263  0.00  0.00    +0.035 A 
ATOM     18  C   UNL     1       5.324   8.138  11.477  0.00  0.00    +0.023 A 
ATOM     19  C   UNL     1       4.722   7.472  12.526  0.00  0.00    +0.002 A 
ATOM     20  C   UNL     1       4.319   6.158  12.373  0.00  0.00    +0.000 A 
ATOM     21  C   UNL     1       4.513   5.508  11.168  0.00  0.00    +0.002 A 
ATOM     22  C   UNL     1       5.109   6.171  10.113  0.00  0.00    +0.023 A 
ENDBRANCH  14  17
ENDBRANCH   8  11
ENDBRANCH   3   5
BRANCH   1  23
ATOM     23  C   UNL     1       3.483   6.130   0.008  0.00  0.00    +0.133 C 
BRANCH  23  34
ATOM     24  C   UNL     1       3.697   3.244  -0.058  0.00  0.00    +0.045 C 
ATOM     25  C   UNL     1       2.348   3.914  -0.017  0.00  0.00    -0.036 A 
ATOM     26  C   UNL     1       1.163   3.155  -0.008  0.00  0.00    +0.002 A 
ATOM     27  C   UNL     1       1.194   1.751  -0.036  0.00  0.00    +0.010 A 
ATOM     28  C   UNL     1       0.026   1.052  -0.026  0.00  0.00    +0.001 A 
ATOM     29  C   UNL     1      -1.202   1.712   0.007  0.00  0.00    +0.002 A 
ATOM     30  C   UNL     1      -1.268   3.071   0.040  0.00  0.00    +0.026 A 
ATOM     31  C   UNL     1      -0.083   3.827   0.031  0.00  0.00    +0.047 A 
ATOM     32  N   UNL     1      -0.118   5.163   0.060  0.00  0.00    -0.358 N 
ATOM     33  C   UNL     1       0.984   5.874   0.052  0.00  0.00    +0.017 A 
ATOM     34  C   UNL     1       2.242   5.276   0.014  0.00  0.00    -0.016 A 
ATOM     35  C   UNL     1       0.887   7.377   0.085  0.00  0.00    +0.063 C 
ATOM     36  H   UNL     1      -1.084   5.688   0.090  0.00  0.00    +0.166 HD
ENDBRANCH  23  34
ENDBRANCH   1  23
TORSDOF 5
