REMARK  Name = ZINC00705586
REMARK  7 active torsions:
REMARK  status: ('A' for Active; 'I' for Inactive)
REMARK    1  A    between atoms: C_1  and  C_2
REMARK    2  A    between atoms: C_2  and  O_3
REMARK    3  A    between atoms: O_3  and  C_4
REMARK    4  A    between atoms: C_4  and  C_6
REMARK    5  A    between atoms: C_7  and  C_25
REMARK    6  A    between atoms: C_9  and  N_24
REMARK    7  A    between atoms: C_10  and  C_22
REMARK                            x       y       z     vdW  Elec       q    Type
REMARK                         _______ _______ _______ _____ _____    ______ ____
ROOT
ATOM      1  C   UNL     1       1.450  -2.781  -1.265  0.00  0.00    +0.099 C 
ATOM      2  C   UNL     1       2.531  -3.573  -1.216  0.00  0.00    +0.116 C 
ATOM      3  O   UNL     1       3.180  -3.825  -0.070  0.00  0.00    -0.445 OA
ATOM      4  C   UNL     1       2.569  -3.601   1.106  0.00  0.00    +0.199 C 
ATOM      5  C   UNL     1       1.478  -2.800   1.202  0.00  0.00    +0.110 C 
ATOM      6  C   UNL     1       0.913  -2.136  -0.021  0.00  0.00    +0.148 C 
ATOM      7  C   UNL     1       1.227  -0.661  -0.014  0.00  0.00    -0.000 A 
ATOM      8  C   UNL     1       2.406   0.050  -0.021  0.00  0.00    +0.022 A 
ATOM      9  C   UNL     1       2.380   1.434  -0.012  0.00  0.00    +0.018 A 
ATOM     10  C   UNL     1       1.166   2.099   0.002  0.00  0.00    +0.017 A 
ATOM     11  C   UNL     1      -0.017   1.389   0.010  0.00  0.00    +0.025 A 
ATOM     12  C   UNL     1       0.002  -0.004   0.002  0.00  0.00    +0.038 A 
ATOM     13  N   UNL     1      -1.042  -0.931   0.007  0.00  0.00    -0.284 N 
ATOM     14  C   UNL     1      -0.596  -2.199  -0.004  0.00  0.00    +0.238 C 
ATOM     15  O   UNL     1      -1.276  -3.204  -0.002  0.00  0.00    -0.274 OA
ATOM     16 BR   UNL     1       3.997   2.414  -0.023  0.00  0.00    -0.050 Br
ATOM     17  C   UNL     1       3.032  -4.202  -2.490  0.00  0.00    +0.087 C 
ATOM     18  H   UNL     1      -1.981  -0.688   0.018  0.00  0.00    +0.155 HD
ENDROOT
BRANCH   4  19
ATOM     19  N   UNL     1       3.061  -4.199   2.239  0.00  0.00    -0.328 N 
ATOM     20  H   UNL     1       2.629  -4.046   3.095  0.00  0.00    +0.145 HD
ATOM     21  H   UNL     1       3.840  -4.775   2.185  0.00  0.00    +0.145 HD
ENDBRANCH   4  19
BRANCH   1  22
ATOM     22  C   UNL     1       0.807  -2.551  -2.506  0.00  0.00    +0.340 C 
ATOM     23  O   UNL     1       1.236  -3.071  -3.519  0.00  0.00    -0.245 OA
BRANCH  22  24
ATOM     24  O   UNL     1      -0.281  -1.756  -2.565  0.00  0.00    -0.462 OA
BRANCH  24  26
ATOM     25  C   UNL     1      -2.090  -0.643  -3.718  0.00  0.00    +0.048 C 
ATOM     26  C   UNL     1      -0.879  -1.568  -3.849  0.00  0.00    +0.229 C 
ENDBRANCH  24  26
ENDBRANCH  22  24
ENDBRANCH   1  22
BRANCH   5  27
ATOM     27  C   UNL     1       0.863  -2.586   2.477  0.00  0.00    +0.102 C 
ATOM     28  N   UNL     1       0.374  -2.416   3.488  0.00  0.00    -0.191 NA
ENDBRANCH   5  27
TORSDOF 5
