REMARK  Name = ZINC14951114
REMARK  12 active torsions:
REMARK  status: ('A' for Active; 'I' for Inactive)
REMARK    1  A    between atoms: C_3  and  O_38
REMARK    2  A    between atoms: C_4  and  O_37
REMARK    3  A    between atoms: C_6  and  C_7
REMARK    4  A    between atoms: C_8  and  O_20
REMARK    5  A    between atoms: C_12  and  O_19
REMARK    6  A    between atoms: C_14  and  O_18
REMARK    7  A    between atoms: O_20  and  C_21
REMARK    8  A    between atoms: C_23  and  O_36
REMARK    9  A    between atoms: C_25  and  O_35
REMARK   10  A    between atoms: C_27  and  O_34
REMARK   11  A    between atoms: C_29  and  C_32
REMARK   12  A    between atoms: C_32  and  O_33
REMARK                            x       y       z     vdW  Elec       q    Type
REMARK                         _______ _______ _______ _____ _____    ______ ____
ROOT
ATOM      1  C   UNL     1       1.134  -1.002  -0.433  0.00  0.00    +0.181 A 
ATOM      2  C   UNL     1       2.206  -0.179  -0.260  0.00  0.00    +0.214 A 
ATOM      3  C   UNL     1       2.009   1.226  -0.232  0.00  0.00    +0.238 A 
ATOM      4  O   UNL     1       2.945   1.995  -0.079  0.00  0.00    -0.283 OA
ATOM      5  C   UNL     1       0.633   1.721  -0.396  0.00  0.00    +0.109 A 
ATOM      6  C   UNL     1       0.347   3.093  -0.382  0.00  0.00    +0.135 A 
ATOM      7  C   UNL     1      -0.958   3.518  -0.540  0.00  0.00    +0.091 A 
ATOM      8  C   UNL     1      -1.980   2.589  -0.711  0.00  0.00    +0.124 A 
ATOM      9  C   UNL     1      -1.704   1.231  -0.731  0.00  0.00    +0.092 A 
ATOM     10  C   UNL     1      -0.401   0.785  -0.569  0.00  0.00    +0.147 A 
ATOM     11  O   UNL     1      -0.117  -0.535  -0.582  0.00  0.00    -0.451 OA
ENDROOT
BRANCH   1  17
ATOM     12  C   UNL     1       2.334  -3.004  -1.295  0.00  0.00    +0.015 A 
ATOM     13  C   UNL     1       2.543  -4.367  -1.315  0.00  0.00    +0.050 A 
ATOM     14  C   UNL     1       1.776  -5.201  -0.514  0.00  0.00    +0.158 A 
ATOM     15  C   UNL     1       0.794  -4.665   0.317  0.00  0.00    +0.159 A 
ATOM     16  C   UNL     1       0.582  -3.301   0.347  0.00  0.00    +0.060 A 
ATOM     17  C   UNL     1       1.355  -2.460  -0.460  0.00  0.00    +0.025 A 
BRANCH  15  18
ATOM     18  O   UNL     1       0.044  -5.486   1.100  0.00  0.00    -0.503 OA
ATOM     19  H   UNL     1      -0.731  -5.064   1.757  0.00  0.00    +0.292 HD
ENDBRANCH  15  18
BRANCH  14  20
ATOM     20  O   UNL     1       1.982  -6.544  -0.541  0.00  0.00    -0.503 OA
ATOM     21  H   UNL     1       1.375  -7.207   0.092  0.00  0.00    +0.292 HD
ENDBRANCH  14  20
ENDBRANCH   1  17
BRANCH   8  22
ATOM     22  O   UNL     1      -3.259   3.018  -0.865  0.00  0.00    -0.507 OA
ATOM     23  H   UNL     1      -4.071   2.288  -1.000  0.00  0.00    +0.292 HD
ENDBRANCH   8  22
BRANCH   6  24
ATOM     24  O   UNL     1       1.345   3.997  -0.216  0.00  0.00    -0.506 OA
ATOM     25  H   UNL     1       1.117   5.073  -0.206  0.00  0.00    +0.292 HD
ENDBRANCH   6  24
BRANCH   2  26
ATOM     26  O   UNL     1       3.454  -0.700  -0.114  0.00  0.00    -0.453 OA
BRANCH  26  27
ATOM     27  C   UNL     1       3.845  -1.091   1.204  0.00  0.00    +0.340 C 
ATOM     28  C   UNL     1       5.115  -1.943   1.129  0.00  0.00    +0.214 C 
ATOM     29  C   UNL     1       6.250  -1.101   0.539  0.00  0.00    +0.180 C 
ATOM     30  C   UNL     1       6.441   0.153   1.398  0.00  0.00    +0.177 C 
ATOM     31  C   UNL     1       5.119   0.923   1.463  0.00  0.00    +0.179 C 
ATOM     32  O   UNL     1       4.099   0.074   1.991  0.00  0.00    -0.331 OA
BRANCH  30  33
ATOM     33  O   UNL     1       6.837  -0.228   2.717  0.00  0.00    -0.386 OA
ATOM     34  H   UNL     1       7.021   0.543   3.480  0.00  0.00    +0.210 HD
ENDBRANCH  30  33
BRANCH  29  35
ATOM     35  O   UNL     1       5.918  -0.718  -0.797  0.00  0.00    -0.386 OA
ATOM     36  H   UNL     1       6.617  -0.106  -1.385  0.00  0.00    +0.210 HD
ENDBRANCH  29  35
BRANCH  28  37
ATOM     37  O   UNL     1       4.880  -3.079   0.294  0.00  0.00    -0.383 OA
ATOM     38  H   UNL     1       5.683  -3.809   0.121  0.00  0.00    +0.210 HD
ENDBRANCH  28  37
BRANCH  31  39
ATOM     39  C   UNL     1       5.285   2.146   2.368  0.00  0.00    +0.190 C 
BRANCH  39  40
ATOM     40  O   UNL     1       4.093   2.934   2.328  0.00  0.00    -0.392 OA
ATOM     41  H   UNL     1       4.025   3.858   2.920  0.00  0.00    +0.210 HD
ENDBRANCH  39  40
ENDBRANCH  31  39
ENDBRANCH  26  27
ENDBRANCH   2  26
TORSDOF 12
