REMARK  Name = ZINC55126538
REMARK  7 active torsions:
REMARK  status: ('A' for Active; 'I' for Inactive)
REMARK    1  A    between atoms: C_1  and  C_2
REMARK    2  A    between atoms: C_6  and  C_12
REMARK    3  A    between atoms: C_9  and  N_11
REMARK    4  A    between atoms: N_14  and  C_15
REMARK    5  A    between atoms: C_15  and  C_16
REMARK    6  A    between atoms: N_18  and  C_19
REMARK    7  A    between atoms: N_18  and  C_20
REMARK                            x       y       z     vdW  Elec       q    Type
REMARK                         _______ _______ _______ _____ _____    ______ ____
ROOT
ATOM      1  C   UNL     1      -0.019   1.526   0.010  0.00  0.00    +0.006 C 
ATOM      2  C   UNL     1       0.002  -0.004   0.002  0.00  0.00    -0.029 C 
ATOM      3  C   UNL     1       0.718  -0.497  -1.257  0.00  0.00    +0.002 C 
ATOM      4  C   UNL     1       0.739  -2.027  -1.265  0.00  0.00    +0.013 C 
ATOM      5  C   UNL     1       1.479  -2.534  -0.026  0.00  0.00    +0.073 C 
ATOM      6  C   UNL     1       0.763  -2.041   1.233  0.00  0.00    -0.003 C 
ATOM      7  C   UNL     1       0.742  -0.511   1.242  0.00  0.00    -0.072 C 
ENDROOT
BRANCH   7   8
ATOM      8  N   UNL     1       0.054  -0.037   2.450  0.00  0.00    +0.380 N 
ATOM      9  H   UNL     1      -0.892  -0.386   2.457  0.00  0.00    -0.090 HD
ATOM     10  H   UNL     1       0.542  -0.371   3.268  0.00  0.00    -0.090 HD
ATOM     11  H   UNL     1       0.041   0.972   2.456  0.00  0.00    -0.090 HD
ENDBRANCH   7   8
BRANCH   5  12
ATOM     12  C   UNL     1       1.499  -4.041  -0.034  0.00  0.00    +0.216 C 
ATOM     13  O   UNL     1       0.991  -4.659   0.877  0.00  0.00    -0.276 OA
ATOM     14  N   UNL     1       2.082  -4.701  -1.054  0.00  0.00    -0.306 N 
ATOM     15  H   UNL     1       2.489  -4.207  -1.783  0.00  0.00    +0.149 HD
BRANCH  14  16
ATOM     16  C   UNL     1       2.102  -6.166  -1.062  0.00  0.00    +0.200 C 
BRANCH  16  17
ATOM     17  C   UNL     1       2.808  -6.652  -2.302  0.00  0.00    +0.232 C 
ATOM     18  O   UNL     1       3.250  -5.854  -3.100  0.00  0.00    -0.274 OA
ATOM     19  N   UNL     1       2.947  -7.974  -2.524  0.00  0.00    -0.306 N 
ATOM     20  C   UNL     1       3.632  -8.447  -3.729  0.00  0.00    +0.131 C 
ATOM     21  C   UNL     1       2.412  -8.939  -1.559  0.00  0.00    +0.131 C 
ENDBRANCH  16  17
ENDBRANCH  14  16
ENDBRANCH   5  12
TORSDOF 4
