REMARK  Name = ZINC43465421
REMARK  12 active torsions:
REMARK  status: ('A' for Active; 'I' for Inactive)
REMARK    1  A    between atoms: C_3  and  O_38
REMARK    2  A    between atoms: C_4  and  O_37
REMARK    3  A    between atoms: C_6  and  C_7
REMARK    4  A    between atoms: C_15  and  O_36
REMARK    5  A    between atoms: C_16  and  O_19
REMARK    6  A    between atoms: C_17  and  O_18
REMARK    7  A    between atoms: O_19  and  C_20
REMARK    8  A    between atoms: C_22  and  O_35
REMARK    9  A    between atoms: C_24  and  O_34
REMARK   10  A    between atoms: C_26  and  O_33
REMARK   11  A    between atoms: C_28  and  C_31
REMARK   12  A    between atoms: C_31  and  O_32
REMARK                            x       y       z     vdW  Elec       q    Type
REMARK                         _______ _______ _______ _____ _____    ______ ____
ROOT
ATOM      1  C   UNL     1      -1.264  -0.761   0.011  0.00  0.00    +0.139 A 
ATOM      2  C   UNL     1      -2.438  -0.072   0.020  0.00  0.00    +0.098 A 
ATOM      3  C   UNL     1      -3.662  -0.781   0.029  0.00  0.00    +0.197 A 
ATOM      4  O   UNL     1      -4.733  -0.195   0.037  0.00  0.00    -0.287 OA
ATOM      5  C   UNL     1      -3.594  -2.252   0.026  0.00  0.00    +0.109 A 
ATOM      6  C   UNL     1      -2.329  -2.865   0.016  0.00  0.00    +0.146 A 
ATOM      7  O   UNL     1      -1.215  -2.102   0.003  0.00  0.00    -0.454 OA
ATOM      8  C   UNL     1      -2.241  -4.248   0.013  0.00  0.00    +0.096 A 
ATOM      9  C   UNL     1      -3.394  -5.018   0.020  0.00  0.00    +0.166 A 
ATOM     10  C   UNL     1      -4.649  -4.414   0.030  0.00  0.00    +0.207 A 
ATOM     11  C   UNL     1      -4.756  -3.033   0.033  0.00  0.00    +0.177 A 
ENDROOT
BRANCH   1  17
ATOM     12  C   UNL     1      -0.017   1.393   0.010  0.00  0.00    +0.015 A 
ATOM     13  C   UNL     1       1.168   2.098   0.002  0.00  0.00    +0.050 A 
ATOM     14  C   UNL     1       2.380   1.424  -0.013  0.00  0.00    +0.158 A 
ATOM     15  C   UNL     1       2.407   0.030  -0.021  0.00  0.00    +0.159 A 
ATOM     16  C   UNL     1       1.224  -0.683  -0.014  0.00  0.00    +0.060 A 
ATOM     17  C   UNL     1       0.002  -0.004   0.002  0.00  0.00    +0.021 A 
BRANCH  15  18
ATOM     18  O   UNL     1       3.597  -0.627  -0.037  0.00  0.00    -0.503 OA
ATOM     19  H   UNL     1       3.950  -0.823   0.842  0.00  0.00    +0.292 HD
ENDBRANCH  15  18
BRANCH  14  20
ATOM     20  O   UNL     1       3.545   2.124  -0.020  0.00  0.00    -0.503 OA
ATOM     21  H   UNL     1       3.890   2.322   0.861  0.00  0.00    +0.292 HD
ENDBRANCH  14  20
ENDBRANCH   1  17
BRANCH  11  22
ATOM     22  O   UNL     1      -5.979  -2.440   0.044  0.00  0.00    -0.503 OA
ATOM     23  H   UNL     1      -6.339  -2.267  -0.837  0.00  0.00    +0.292 HD
ENDBRANCH  11  22
BRANCH   9  24
ATOM     24  O   UNL     1      -3.298  -6.373   0.017  0.00  0.00    -0.503 OA
ATOM     25  H   UNL     1      -3.264  -6.767   0.899  0.00  0.00    +0.292 HD
ENDBRANCH   9  24
BRANCH  10  26
ATOM     26  O   UNL     1      -5.773  -5.183   0.037  0.00  0.00    -0.453 OA
BRANCH  26  27
ATOM     27  C   UNL     1      -6.299  -5.551   1.314  0.00  0.00    +0.340 C 
ATOM     28  C   UNL     1      -7.396  -6.603   1.130  0.00  0.00    +0.214 C 
ATOM     29  C   UNL     1      -7.996  -6.949   2.496  0.00  0.00    +0.180 C 
ATOM     30  C   UNL     1      -8.524  -5.667   3.148  0.00  0.00    +0.177 C 
ATOM     31  C   UNL     1      -7.383  -4.652   3.255  0.00  0.00    +0.179 C 
ATOM     32  O   UNL     1      -6.849  -4.398   1.954  0.00  0.00    -0.331 OA
BRANCH  30  33
ATOM     33  O   UNL     1      -9.021  -5.966   4.454  0.00  0.00    -0.386 OA
ATOM     34  H   UNL     1      -9.745  -6.608   4.462  0.00  0.00    +0.210 HD
ENDBRANCH  30  33
BRANCH  29  35
ATOM     35  O   UNL     1      -9.069  -7.877   2.326  0.00  0.00    -0.386 OA
ATOM     36  H   UNL     1      -8.806  -8.710   1.912  0.00  0.00    +0.210 HD
ENDBRANCH  29  35
BRANCH  28  37
ATOM     37  O   UNL     1      -6.836  -7.779   0.541  0.00  0.00    -0.383 OA
ATOM     38  H   UNL     1      -6.434  -7.632  -0.326  0.00  0.00    +0.210 HD
ENDBRANCH  28  37
BRANCH  31  39
ATOM     39  C   UNL     1      -7.916  -3.347   3.851  0.00  0.00    +0.190 C 
BRANCH  39  40
ATOM     40  O   UNL     1      -6.831  -2.440   4.058  0.00  0.00    -0.392 OA
ATOM     41  H   UNL     1      -7.096  -1.590   4.435  0.00  0.00    +0.210 HD
ENDBRANCH  39  40
ENDBRANCH  31  39
ENDBRANCH  26  27
ENDBRANCH  10  26
TORSDOF 12
