REMARK  Name = ZINC16920061
REMARK  12 active torsions:
REMARK  status: ('A' for Active; 'I' for Inactive)
REMARK    1  A    between atoms: C_1  and  C_2
REMARK    2  A    between atoms: C_2  and  C_4
REMARK    3  A    between atoms: C_2  and  N_54
REMARK    4  A    between atoms: C_7  and  S_16
REMARK    5  A    between atoms: N_8  and  C_9
REMARK    6  A    between atoms: S_16  and  C_17
REMARK    7  A    between atoms: C_17  and  C_19
REMARK    8  A    between atoms: C_17  and  C_20
REMARK    9  A    between atoms: N_22  and  C_23
REMARK   10  A    between atoms: C_26  and  C_30
REMARK   11  A    between atoms: C_32  and  N_54
REMARK   12  A    between atoms: C_33  and  N_54
REMARK                            x       y       z     vdW  Elec       q    Type
REMARK                         _______ _______ _______ _____ _____    ______ ____
ROOT
ATOM      1  C   UNL     1      -2.716  12.295   0.478  0.00  0.00    +0.125 A 
ATOM      2  N   UNL     1      -1.541  11.977   0.015  0.00  0.00    -0.135 NA
ATOM      3  N   UNL     1      -1.419  10.700  -0.046  0.00  0.00    -0.122 NA
ATOM      4  C   UNL     1      -2.524  10.125   0.370  0.00  0.00    +0.197 A 
ATOM      5  N   UNL     1      -3.387  11.126   0.722  0.00  0.00    -0.275 N 
ENDROOT
BRANCH   5   6
ATOM      6  C   UNL     1      -4.688  10.985   1.227  0.00  0.00    +0.050 A 
ATOM      7  C   UNL     1      -5.773  11.441   0.491  0.00  0.00    +0.028 A 
ATOM      8  C   UNL     1      -7.054  11.297   0.988  0.00  0.00    +0.022 A 
ATOM      9  C   UNL     1      -7.255  10.707   2.224  0.00  0.00    +0.041 A 
ATOM     10  C   UNL     1      -6.174  10.257   2.962  0.00  0.00    +0.022 A 
ATOM     11  C   UNL     1      -4.893  10.394   2.466  0.00  0.00    +0.028 A 
ATOM     12 CL   UNL     1      -8.865  10.533   2.849  0.00  0.00    -0.084 Cl
ENDBRANCH   5   6
BRANCH   1  14
ATOM     13  C   UNL     1      -2.591  14.284   1.954  0.00  0.00    -0.005 C 
ATOM     14  C   UNL     1      -3.241  13.690   0.703  0.00  0.00    -0.003 C 
BRANCH  14  17
ATOM     15  C   UNL     1      -3.451  13.936  -1.697  0.00  0.00    -0.096 C 
ATOM     16  C   UNL     1      -3.418  15.897  -0.277  0.00  0.00    -0.096 C 
ATOM     17  N   UNL     1      -2.892  14.528  -0.463  0.00  0.00    +0.382 N 
ATOM     18  H   UNL     1      -1.870  14.573  -0.548  0.00  0.00    -0.082 HD
ENDBRANCH  14  17
ENDBRANCH   1  14
BRANCH   4  19
ATOM     19  S   UNL     1      -2.833   8.393   0.465  0.00  0.00    -0.073 S 
BRANCH  19  20
ATOM     20  C   UNL     1      -1.257   7.758  -0.159  0.00  0.00    +0.137 C 
ATOM     21  C   UNL     1      -1.086   8.168  -1.623  0.00  0.00    +0.029 C 
BRANCH  20  22
ATOM     22  C   UNL     1      -1.245   6.255  -0.054  0.00  0.00    +0.230 C 
ATOM     23  O   UNL     1      -2.289   5.638  -0.048  0.00  0.00    -0.274 OA
ATOM     24  N   UNL     1      -0.072   5.595   0.033  0.00  0.00    -0.285 N 
ATOM     25  H   UNL     1       0.759   6.090   0.095  0.00  0.00    +0.155 HD
BRANCH  24  26
ATOM     26  C   UNL     1      -0.055   4.200   0.034  0.00  0.00    +0.035 A 
ATOM     27  C   UNL     1       0.988   3.518  -0.585  0.00  0.00    +0.024 A 
ATOM     28  C   UNL     1       1.009   2.142  -0.587  0.00  0.00    +0.022 A 
ATOM     29  C   UNL     1      -0.020   1.428   0.035  0.00  0.00    +0.070 A 
ATOM     30  C   UNL     1      -1.070   2.116   0.651  0.00  0.00    +0.060 A 
ATOM     31  C   UNL     1      -1.081   3.494   0.653  0.00  0.00    +0.044 A 
ATOM     32 CL   UNL     1      -2.355   1.235   1.418  0.00  0.00    -0.082 Cl
BRANCH  29  33
ATOM     33  C   UNL     1      -0.001  -0.004   0.035  0.00  0.00    +0.101 C 
ATOM     34  N   UNL     1       0.014  -1.140   0.035  0.00  0.00    -0.191 NA
ENDBRANCH  29  33
ENDBRANCH  24  26
ENDBRANCH  20  22
ENDBRANCH  19  20
ENDBRANCH   4  19
TORSDOF 8
