REMARK  Name = ZINC63177212
REMARK  3 active torsions:
REMARK  status: ('A' for Active; 'I' for Inactive)
REMARK    1  A    between atoms: N_3  and  C_17
REMARK    2  A    between atoms: N_8  and  C_9
REMARK    3  A    between atoms: C_14  and  N_16
REMARK                            x       y       z     vdW  Elec       q    Type
REMARK                         _______ _______ _______ _____ _____    ______ ____
ROOT
ATOM      1  C   UNL     1      -0.016   1.329   0.009  0.00  0.00    +0.131 A 
ATOM      2  C   UNL     1       1.122   2.054   0.002  0.00  0.00    +0.109 A 
ATOM      3  N   UNL     1       2.341   1.443  -0.013  0.00  0.00    -0.308 N 
ATOM      4  C   UNL     1       2.401   0.093  -0.020  0.00  0.00    +0.291 A 
ATOM      5  O   UNL     1       3.474  -0.485  -0.033  0.00  0.00    -0.264 OA
ATOM      6  C   UNL     1       1.142  -0.661  -0.012  0.00  0.00    +0.185 A 
ATOM      7  N   UNL     1       0.002  -0.004   0.002  0.00  0.00    -0.234 NA
ATOM      8  N   UNL     1       1.153  -2.050  -0.021  0.00  0.00    -0.323 N 
ATOM      9  H   UNL     1       1.997  -2.528  -0.031  0.00  0.00    +0.148 HD
ENDROOT
BRANCH   8  10
ATOM     10  C   UNL     1      -0.109  -2.793  -0.012  0.00  0.00    +0.057 C 
ATOM     11  C   UNL     1      -0.582  -3.057   1.439  0.00  0.00    +0.020 C 
ATOM     12  C   UNL     1      -1.495  -4.294   1.321  0.00  0.00    +0.000 C 
ATOM     13  C   UNL     1      -1.067  -5.036   0.042  0.00  0.00    -0.014 C 
ATOM     14  C   UNL     1       0.091  -4.222  -0.576  0.00  0.00    -0.055 C 
BRANCH  14  15
ATOM     15  N   UNL     1      -0.005  -4.214  -2.042  0.00  0.00    +0.381 N 
ATOM     16  H   UNL     1       0.706  -3.609  -2.423  0.00  0.00    -0.090 HD
ATOM     17  H   UNL     1       0.127  -5.151  -2.392  0.00  0.00    -0.090 HD
ATOM     18  H   UNL     1      -0.916  -3.878  -2.317  0.00  0.00    -0.090 HD
ENDBRANCH  14  15
ENDBRANCH   8  10
BRANCH   3  19
ATOM     19  C   UNL     1       3.570   2.240  -0.021  0.00  0.00    +0.090 C 
ATOM     20  C   UNL     1       3.435   3.749   0.192  0.00  0.00    +0.027 C 
ATOM     21  C   UNL     1       3.783   3.200  -1.193  0.00  0.00    +0.027 C 
ENDBRANCH   3  19
TORSDOF 3
