REMARK  Name = ZINC43553750
REMARK  12 active torsions:
REMARK  status: ('A' for Active; 'I' for Inactive)
REMARK    1  A    between atoms: C_1  and  C_2
REMARK    2  A    between atoms: C_2  and  N_3
REMARK    3  A    between atoms: C_4  and  O_6
REMARK    4  A    between atoms: O_6  and  C_7
REMARK    5  A    between atoms: C_11  and  C_35
REMARK    6  A    between atoms: C_14  and  C_15
REMARK    7  A    between atoms: C_14  and  C_16
REMARK    8  A    between atoms: C_16  and  O_17
REMARK    9  A    between atoms: C_20  and  O_34
REMARK   10  A    between atoms: C_22  and  C_24
REMARK   11  A    between atoms: C_24  and  C_25
REMARK   12  A    between atoms: C_30  and  O_33
REMARK                            x       y       z     vdW  Elec       q    Type
REMARK                         _______ _______ _______ _____ _____    ______ ____
ROOT
ATOM      1  C   UNL     1      -2.715  -3.776  -1.008  0.00  0.00    +0.186 C 
ATOM      2  C   UNL     1      -3.140  -4.313  -2.369  0.00  0.00    +0.046 C 
ATOM      3  C   UNL     1      -4.483  -3.699  -2.769  0.00  0.00    +0.011 C 
ATOM      4  C   UNL     1      -5.554  -4.117  -1.759  0.00  0.00    -0.023 C 
ATOM      5  C   UNL     1      -5.159  -3.675  -0.361  0.00  0.00    +0.007 C 
ATOM      6  C   UNL     1      -3.757  -4.056   0.073  0.00  0.00    +0.031 C 
ATOM      7  C   UNL     1      -3.656  -5.511   0.529  0.00  0.00    +0.017 C 
ATOM      8  C   UNL     1      -6.215  -4.127   0.649  0.00  0.00    +0.007 C 
ATOM      9  C   UNL     1      -7.543  -3.447   0.296  0.00  0.00    +0.032 C 
ATOM     10  C   UNL     1      -7.974  -3.834  -1.115  0.00  0.00    +0.119 C 
ATOM     11  C   UNL     1      -6.900  -3.493  -2.145  0.00  0.00    +0.032 C 
ATOM     12  C   UNL     1      -5.726  -5.641  -1.848  0.00  0.00    +0.012 C 
ENDROOT
BRANCH  10  13
ATOM     13  O   UNL     1      -9.176  -3.122  -1.446  0.00  0.00    -0.391 OA
ATOM     14  H   UNL     1      -9.918  -3.306  -0.855  0.00  0.00    +0.210 HD
ENDBRANCH  10  13
BRANCH   1  15
ATOM     15  O   UNL     1      -2.495  -2.364  -1.097  0.00  0.00    -0.446 OA
BRANCH  15  17
ATOM     16  N   UNL     1      -0.985  -0.643  -1.547  0.00  0.00    -0.281 N 
ATOM     17  C   UNL     1      -1.259  -1.959  -1.445  0.00  0.00    +0.401 C 
ATOM     18  O   UNL     1      -0.390  -2.779  -1.666  0.00  0.00    -0.226 OA
ATOM     19  H   UNL     1      -1.678   0.012  -1.371  0.00  0.00    +0.152 HD
BRANCH  16  21
ATOM     20  C   UNL     1       0.403   1.326  -1.968  0.00  0.00    +0.024 C 
ATOM     21  C   UNL     1       0.360  -0.202  -1.925  0.00  0.00    +0.104 C 
ENDBRANCH  16  21
ENDBRANCH  15  17
ENDBRANCH   1  15
BRANCH   6  22
ATOM     22  C   UNL     1      -3.378  -3.173   1.288  0.00  0.00    +0.166 C 
BRANCH  22  23
ATOM     23  O   UNL     1      -2.067  -3.520   1.739  0.00  0.00    -0.394 OA
ATOM     24  H   UNL     1      -1.764  -3.006   2.499  0.00  0.00    +0.209 HD
ENDBRANCH  22  23
ENDBRANCH   6  22
BRANCH  11  25
ATOM     25  C   UNL     1      -6.796  -1.980  -2.308  0.00  0.00    +0.102 C 
BRANCH  25  26
ATOM     26  C   UNL     1      -8.021  -1.466  -3.020  0.00  0.00    +0.216 C 
ATOM     27  O   UNL     1      -8.815  -2.247  -3.500  0.00  0.00    -0.276 OA
ATOM     28  N   UNL     1      -8.233  -0.139  -3.123  0.00  0.00    -0.299 N 
ATOM     29  C   UNL     1      -7.350   0.916  -2.594  0.00  0.00    +0.110 C 
ATOM     30  C   UNL     1      -7.657   2.162  -3.462  0.00  0.00    +0.052 C 
ATOM     31  C   UNL     1      -9.187   2.022  -3.678  0.00  0.00    +0.133 C 
ATOM     32  C   UNL     1      -9.381   0.495  -3.788  0.00  0.00    +0.139 C 
BRANCH  31  33
ATOM     33  O   UNL     1      -9.588   2.672  -4.886  0.00  0.00    -0.390 OA
ATOM     34  H   UNL     1      -9.414   3.623  -4.897  0.00  0.00    +0.210 HD
ENDBRANCH  31  33
ENDBRANCH  25  26
ENDBRANCH  11  25
TORSDOF 9
