REMARK  Name = ZINC63588927
REMARK  9 active torsions:
REMARK  status: ('A' for Active; 'I' for Inactive)
REMARK    1  A    between atoms: C_1  and  C_2
REMARK    2  A    between atoms: C_5  and  N_9
REMARK    3  A    between atoms: C_6  and  C_8
REMARK    4  A    between atoms: N_11  and  C_12
REMARK    5  A    between atoms: C_12  and  C_13
REMARK    6  A    between atoms: C_13  and  C_14
REMARK    7  A    between atoms: N_23  and  C_24
REMARK    8  A    between atoms: C_24  and  C_26
REMARK    9  A    between atoms: C_29  and  C_33
REMARK                            x       y       z     vdW  Elec       q    Type
REMARK                         _______ _______ _______ _____ _____    ______ ____
ROOT
ATOM      1  N   UNL     1      -1.061  -4.530  -0.992  0.00  0.00    -0.328 N 
ATOM      2  C   UNL     1      -0.218  -5.282  -1.759  0.00  0.00    +0.194 C 
ATOM      3  N   UNL     1       0.261  -6.467  -1.285  0.00  0.00    -0.357 N 
ATOM      4  N   UNL     1       0.134  -4.859  -2.964  0.00  0.00    -0.143 NA
ATOM      5  H   UNL     1       0.903  -6.974  -1.806  0.00  0.00    +0.162 HD
ATOM      6  H   UNL     1      -2.002  -4.470  -1.222  0.00  0.00    +0.169 HD
ENDROOT
BRANCH   1  11
ATOM      7  C   UNL     1       0.936  -1.764   3.540  0.00  0.00    +0.044 C 
ATOM      8  C   UNL     1       0.405  -2.499   2.336  0.00  0.00    -0.050 A 
ATOM      9  C   UNL     1       1.280  -3.140   1.478  0.00  0.00    +0.005 A 
ATOM     10  C   UNL     1       0.797  -3.814   0.374  0.00  0.00    +0.026 A 
ATOM     11  C   UNL     1      -0.569  -3.848   0.126  0.00  0.00    +0.045 A 
ATOM     12  C   UNL     1      -1.445  -3.204   0.989  0.00  0.00    -0.027 A 
ATOM     13  C   UNL     1      -0.956  -2.535   2.095  0.00  0.00    +0.008 A 
ATOM     14  C   UNL     1      -2.928  -3.238   0.723  0.00  0.00    +0.046 C 
ENDBRANCH   1  11
BRANCH   4  15
ATOM     15  C   UNL     1      -0.187  -3.620  -3.360  0.00  0.00    +0.270 C 
ATOM     16  O   UNL     1      -0.693  -2.841  -2.572  0.00  0.00    -0.268 OA
BRANCH  15  17
ATOM     17  C   UNL     1       0.074  -3.198  -4.755  0.00  0.00    +0.042 A 
ATOM     18  C   UNL     1       0.543  -4.121  -5.690  0.00  0.00    +0.013 A 
ATOM     19  C   UNL     1       0.785  -3.723  -6.989  0.00  0.00    +0.007 A 
ATOM     20  C   UNL     1       0.563  -2.410  -7.366  0.00  0.00    -0.015 A 
ATOM     21  C   UNL     1       0.098  -1.488  -6.443  0.00  0.00    +0.127 A 
ATOM     22  C   UNL     1      -0.153  -1.877  -5.140  0.00  0.00    +0.051 A 
ATOM     23  F   UNL     1      -0.116  -0.207  -6.817  0.00  0.00    -0.205 F 
ATOM     24  C   UNL     1       0.829  -1.982  -8.786  0.00  0.00    +0.047 C 
ENDBRANCH  15  17
ENDBRANCH   4  15
BRANCH   3  25
ATOM     25  C   UNL     1      -0.193  -6.975   0.012  0.00  0.00    +0.120 C 
BRANCH  25  26
ATOM     26  C   UNL     1       0.534  -8.283   0.331  0.00  0.00    +0.054 C 
BRANCH  26  27
ATOM     27  C   UNL     1      -0.017  -8.866   1.607  0.00  0.00    -0.040 C 
ATOM     28  C   UNL     1      -1.125  -9.628   1.740  0.00  0.00    -0.001 A 
ATOM     29  C   UNL     1      -2.113 -10.124   0.774  0.00  0.00    +0.010 A 
ATOM     30  C   UNL     1      -3.140 -10.884   1.218  0.00  0.00    +0.001 A 
ATOM     31  C   UNL     1      -3.285 -11.209   2.573  0.00  0.00    +0.002 A 
ATOM     32  C   UNL     1      -2.418 -10.791   3.520  0.00  0.00    +0.026 A 
ATOM     33  C   UNL     1      -1.300  -9.986   3.166  0.00  0.00    +0.043 A 
ATOM     34  N   UNL     1      -0.337  -9.465   3.886  0.00  0.00    -0.380 N 
ATOM     35  C   UNL     1       0.562  -8.721   2.997  0.00  0.00    +0.144 C 
ATOM     36  H   UNL     1      -0.234  -9.558   4.846  0.00  0.00    +0.160 HD
ENDBRANCH  26  27
ENDBRANCH  25  26
ENDBRANCH   3  25
TORSDOF 6
