REMARK  Name = ZINC04554487
REMARK  10 active torsions:
REMARK  status: ('A' for Active; 'I' for Inactive)
REMARK    1  A    between atoms: C_1  and  C_2
REMARK    2  A    between atoms: C_2  and  C_3
REMARK    3  A    between atoms: C_3  and  N_57
REMARK    4  A    between atoms: C_4  and  C_5
REMARK    5  A    between atoms: C_4  and  N_57
REMARK    6  A    between atoms: N_7  and  C_8
REMARK    7  A    between atoms: C_9  and  C_18
REMARK    8  A    between atoms: N_20  and  C_21
REMARK    9  A    between atoms: C_26  and  O_27
REMARK   10  A    between atoms: O_27  and  C_28
REMARK                            x       y       z     vdW  Elec       q    Type
REMARK                         _______ _______ _______ _____ _____    ______ ____
ROOT
ATOM      1  C   UNL     1       4.371  -1.703   1.465  0.00  0.00    +0.084 A 
ATOM      2  C   UNL     1       3.015  -1.650   1.749  0.00  0.00    +0.069 A 
ATOM      3  C   UNL     1       2.205  -0.691   1.012  0.00  0.00    -0.023 A 
ATOM      4  C   UNL     1       2.882   0.050   0.108  0.00  0.00    -0.004 A 
ATOM      5  S   UNL     1       4.562  -0.499   0.235  0.00  0.00    -0.077 S 
ATOM      6  C   UNL     1       2.334   1.094  -0.815  0.00  0.00    +0.043 C 
ATOM      7  C   UNL     1       1.452   2.062  -0.016  0.00  0.00    +0.005 C 
ATOM      8  C   UNL     1       0.024   1.525  -0.013  0.00  0.00    +0.001 C 
ATOM      9  C   UNL     1       0.038  -0.002  -0.017  0.00  0.00    +0.005 C 
ATOM     10  C   UNL     1       0.708  -0.533   1.245  0.00  0.00    +0.037 C 
ENDROOT
BRANCH   1  13
ATOM     11  C   UNL     1       6.620  -2.430   1.619  0.00  0.00    +0.201 C 
ATOM     12  O   UNL     1       6.926  -1.631   0.759  0.00  0.00    -0.278 OA
ATOM     13  N   UNL     1       5.339  -2.522   2.028  0.00  0.00    -0.281 N 
ATOM     14  H   UNL     1       5.093  -3.160   2.715  0.00  0.00    +0.155 HD
BRANCH  11  15
ATOM     15  C   UNL     1       7.671  -3.319   2.231  0.00  0.00    +0.015 C 
BRANCH  15  16
ATOM     16  N   UNL     1       8.977  -3.019   1.613  0.00  0.00    +0.385 N 
ATOM     17  H   UNL     1       8.920  -3.191   0.602  0.00  0.00    -0.085 HD
ATOM     18  H   UNL     1       9.213  -2.034   1.780  0.00  0.00    -0.085 HD
BRANCH  16  19
ATOM     19  C   UNL     1      10.027  -3.877   2.194  0.00  0.00    -0.082 C 
BRANCH  19  21
ATOM     20  C   UNL     1      12.463  -4.430   2.132  0.00  0.00    +0.002 C 
ATOM     21  C   UNL     1      11.367  -3.544   1.535  0.00  0.00    -0.022 C 
ENDBRANCH  19  21
ENDBRANCH  16  19
ENDBRANCH  15  16
ENDBRANCH  11  15
ENDBRANCH   1  13
BRANCH   2  22
ATOM     22  C   UNL     1       2.418  -2.530   2.758  0.00  0.00    +0.251 C 
ATOM     23  O   UNL     1       1.985  -3.621   2.436  0.00  0.00    -0.270 OA
ATOM     24  N   UNL     1       2.347  -2.131   4.044  0.00  0.00    -0.278 N 
ATOM     25  H   UNL     1       2.749  -1.290   4.313  0.00  0.00    +0.155 HD
BRANCH  24  26
ATOM     26  C   UNL     1       1.693  -2.929   4.990  0.00  0.00    +0.076 A 
ATOM     27  C   UNL     1       1.748  -4.312   4.891  0.00  0.00    +0.027 A 
ATOM     28  C   UNL     1       1.106  -5.098   5.829  0.00  0.00    +0.002 A 
ATOM     29  C   UNL     1       0.400  -4.510   6.862  0.00  0.00    +0.004 A 
ATOM     30  C   UNL     1       0.336  -3.133   6.965  0.00  0.00    +0.047 A 
ATOM     31  C   UNL     1       0.981  -2.337   6.031  0.00  0.00    +0.141 A 
BRANCH  31  32
ATOM     32  O   UNL     1       0.918  -0.983   6.130  0.00  0.00    -0.493 OA
ATOM     33  C   UNL     1       0.170  -0.446   7.223  0.00  0.00    +0.277 C 
ENDBRANCH  31  32
ENDBRANCH  24  26
ENDBRANCH   2  22
TORSDOF 8
