REMARK  Name = ZINC09092497
REMARK  8 active torsions:
REMARK  status: ('A' for Active; 'I' for Inactive)
REMARK    1  A    between atoms: C_4  and  O_7
REMARK    2  A    between atoms: O_7  and  C_8
REMARK    3  A    between atoms: C_11  and  N_14
REMARK    4  A    between atoms: C_15  and  C_17
REMARK    5  A    between atoms: C_17  and  S_18
REMARK    6  A    between atoms: S_18  and  C_19
REMARK    7  A    between atoms: C_22  and  C_25
REMARK    8  A    between atoms: N_23  and  N_24
REMARK                            x       y       z     vdW  Elec       q    Type
REMARK                         _______ _______ _______ _____ _____    ______ ____
ROOT
ATOM      1  N   UNL     1       0.171   1.305   2.563  0.00  0.00    -0.285 N 
ATOM      2  C   UNL     1      -0.410   1.383   1.349  0.00  0.00    +0.227 C 
ATOM      3  O   UNL     1      -1.492   1.917   1.229  0.00  0.00    -0.275 OA
ATOM      4  H   UNL     1       1.086   0.992   2.643  0.00  0.00    +0.155 HD
ENDROOT
BRANCH   1   8
ATOM      5  C   UNL     1      -1.962   2.408   5.972  0.00  0.00    +0.129 A 
ATOM      6  C   UNL     1      -2.247   3.004   4.752  0.00  0.00    +0.048 A 
ATOM      7  C   UNL     1      -1.541   2.640   3.623  0.00  0.00    +0.027 A 
ATOM      8  C   UNL     1      -0.545   1.675   3.708  0.00  0.00    +0.034 A 
ATOM      9  C   UNL     1      -0.264   1.074   4.928  0.00  0.00    +0.027 A 
ATOM     10  C   UNL     1      -0.967   1.444   6.058  0.00  0.00    +0.048 A 
BRANCH   5  11
ATOM     11  O   UNL     1      -2.657   2.767   7.083  0.00  0.00    -0.456 OA
BRANCH  11  15
ATOM     12  C   UNL     1      -0.848   5.342   9.751  0.00  0.00    +0.000 A 
ATOM     13  C   UNL     1      -2.060   4.757  10.070  0.00  0.00    +0.004 A 
ATOM     14  C   UNL     1      -2.668   3.895   9.178  0.00  0.00    +0.046 A 
ATOM     15  C   UNL     1      -2.061   3.615   7.962  0.00  0.00    +0.128 A 
ATOM     16  C   UNL     1      -0.842   4.199   7.647  0.00  0.00    +0.046 A 
ATOM     17  C   UNL     1      -0.241   5.065   8.540  0.00  0.00    +0.004 A 
ENDBRANCH  11  15
ENDBRANCH   5  11
ENDBRANCH   1   8
BRANCH   2  18
ATOM     18  C   UNL     1       0.285   0.807   0.142  0.00  0.00    +0.173 C 
BRANCH  18  19
ATOM     19  S   UNL     1      -0.741   1.068  -1.326  0.00  0.00    -0.075 S 
BRANCH  19  20
ATOM     20  C   UNL     1       0.282   0.321  -2.551  0.00  0.00    +0.209 A 
ATOM     21  N   UNL     1       1.455  -0.239  -2.352  0.00  0.00    -0.121 NA
ATOM     22  N   UNL     1       1.924  -0.687  -3.461  0.00  0.00    -0.127 NA
ATOM     23  C   UNL     1       1.084  -0.433  -4.438  0.00  0.00    +0.183 A 
ATOM     24  N   UNL     1       0.007   0.220  -3.885  0.00  0.00    -0.224 N 
BRANCH  23  25
ATOM     25  C   UNL     1       1.263  -0.783  -5.863  0.00  0.00    +0.035 A 
ATOM     26  C   UNL     1       0.952   0.146  -6.857  0.00  0.00    +0.013 A 
ATOM     27  C   UNL     1       1.121  -0.186  -8.185  0.00  0.00    +0.001 A 
ATOM     28  C   UNL     1       1.598  -1.438  -8.533  0.00  0.00    +0.001 A 
ATOM     29  C   UNL     1       1.908  -2.364  -7.554  0.00  0.00    +0.016 A 
ATOM     30  C   UNL     1       1.749  -2.042  -6.220  0.00  0.00    +0.029 A 
ATOM     31 BR   UNL     1       2.181  -3.306  -4.882  0.00  0.00    -0.050 Br
ENDBRANCH  23  25
BRANCH  24  32
ATOM     32  N   UNL     1      -1.106   0.674  -4.534  0.00  0.00    -0.295 N 
ATOM     33  H   UNL     1      -1.003   1.644  -4.793  0.00  0.00    +0.163 HD
ATOM     34  H   UNL     1      -1.310   0.104  -5.342  0.00  0.00    +0.163 HD
ENDBRANCH  24  32
ENDBRANCH  19  20
ENDBRANCH  18  19
ENDBRANCH   2  18
TORSDOF 8
