REMARK  Name = ZINC21880650
REMARK  6 active torsions:
REMARK  status: ('A' for Active; 'I' for Inactive)
REMARK    1  A    between atoms: C_1  and  O_2
REMARK    2  A    between atoms: O_2  and  C_3
REMARK    3  A    between atoms: C_6  and  C_9
REMARK    4  A    between atoms: C_12  and  C_28
REMARK    5  A    between atoms: C_18  and  C_19
REMARK    6  A    between atoms: N_21  and  C_22
REMARK                            x       y       z     vdW  Elec       q    Type
REMARK                         _______ _______ _______ _____ _____    ______ ____
ROOT
ATOM      1  C   UNL     1       2.509  -2.508  -4.398  0.00  0.00    +0.145 C 
ATOM      2  C   UNL     1       1.498  -3.406  -5.120  0.00  0.00    +0.087 C 
ATOM      3  C   UNL     1       1.269  -4.682  -4.360  0.00  0.00    +0.053 C 
ATOM      4  N   UNL     1       2.215  -5.268  -3.673  0.00  0.00    -0.232 NA
ATOM      5  C   UNL     1       3.420  -4.667  -3.583  0.00  0.00    +0.164 A 
ATOM      6  N   UNL     1       3.609  -3.353  -3.922  0.00  0.00    -0.238 N 
ATOM      7  N   UNL     1       4.948  -3.039  -3.728  0.00  0.00    -0.176 NA
ATOM      8  C   UNL     1       5.575  -4.091  -3.267  0.00  0.00    +0.149 A 
ATOM      9  C   UNL     1       4.644  -5.153  -3.146  0.00  0.00    +0.100 A 
ENDROOT
BRANCH   3  10
ATOM     10  C   UNL     1      -0.068  -5.294  -4.389  0.00  0.00    -0.004 A 
ATOM     11  C   UNL     1      -1.100  -4.694  -5.119  0.00  0.00    +0.011 A 
ATOM     12  C   UNL     1      -2.350  -5.273  -5.142  0.00  0.00    +0.016 A 
ATOM     13  C   UNL     1      -2.586  -6.446  -4.445  0.00  0.00    +0.018 A 
ATOM     14  C   UNL     1      -1.570  -7.046  -3.720  0.00  0.00    +0.016 A 
ATOM     15  C   UNL     1      -0.313  -6.482  -3.692  0.00  0.00    +0.011 A 
ATOM     16 BR   UNL     1      -4.306  -7.233  -4.482  0.00  0.00    -0.050 Br
ENDBRANCH   3  10
BRANCH   1  20
ATOM     17  C   UNL     1       0.624  -0.587  -1.079  0.00  0.00    +0.120 A 
ATOM     18  C   UNL     1       1.190   0.173  -2.092  0.00  0.00    +0.046 A 
ATOM     19  C   UNL     1       1.799  -0.450  -3.163  0.00  0.00    +0.009 A 
ATOM     20  C   UNL     1       1.844  -1.830  -3.228  0.00  0.00    -0.022 A 
ATOM     21  C   UNL     1       1.280  -2.590  -2.220  0.00  0.00    +0.009 A 
ATOM     22  C   UNL     1       0.675  -1.972  -1.143  0.00  0.00    +0.046 A 
BRANCH  17  24
ATOM     23  C   UNL     1       0.008   1.453  -0.024  0.00  0.00    +0.277 C 
ATOM     24  O   UNL     1       0.024   0.024  -0.023  0.00  0.00    -0.495 OA
ENDBRANCH  17  24
ENDBRANCH   1  20
BRANCH   9  25
ATOM     25  C   UNL     1       4.921  -6.508  -2.651  0.00  0.00    +0.253 C 
ATOM     26  O   UNL     1       4.026  -7.331  -2.597  0.00  0.00    -0.270 OA
ATOM     27  N   UNL     1       6.167  -6.840  -2.257  0.00  0.00    -0.281 N 
ATOM     28  H   UNL     1       6.894  -6.207  -2.363  0.00  0.00    +0.155 HD
BRANCH  27  29
ATOM     29  C   UNL     1       6.411  -8.097  -1.696  0.00  0.00    +0.034 A 
ATOM     30  C   UNL     1       5.716  -9.210  -2.153  0.00  0.00    +0.023 A 
ATOM     31  C   UNL     1       5.960 -10.451  -1.597  0.00  0.00    +0.002 A 
ATOM     32  C   UNL     1       6.894 -10.585  -0.586  0.00  0.00    +0.000 A 
ATOM     33  C   UNL     1       7.586  -9.479  -0.128  0.00  0.00    +0.002 A 
ATOM     34  C   UNL     1       7.352  -8.237  -0.684  0.00  0.00    +0.023 A 
ENDBRANCH  27  29
ENDBRANCH   9  25
TORSDOF 5
