REMARK  Name = ZINC35375006
REMARK  8 active torsions:
REMARK  status: ('A' for Active; 'I' for Inactive)
REMARK    1  A    between atoms: C_1  and  C_2
REMARK    2  A    between atoms: C_2  and  C_3
REMARK    3  A    between atoms: C_3  and  C_5
REMARK    4  A    between atoms: C_3  and  N_6
REMARK    5  A    between atoms: C_18  and  C_26
REMARK    6  A    between atoms: C_28  and  C_30
REMARK    7  A    between atoms: C_30  and  C_32
REMARK    8  A    between atoms: C_30  and  O_33
REMARK                            x       y       z     vdW  Elec       q    Type
REMARK                         _______ _______ _______ _____ _____    ______ ____
ROOT
ATOM      1  N   UNL     1      -2.131  -0.101   1.260  0.00  0.00    -0.239 N 
ATOM      2  C   UNL     1      -1.655  -0.506   2.479  0.00  0.00    +0.228 C 
ATOM      3  O   UNL     1      -0.542  -0.919   2.727  0.00  0.00    -0.275 OA
ATOM      4  C   UNL     1      -2.789  -0.334   3.443  0.00  0.00    +0.109 C 
ATOM      5  C   UNL     1      -3.403   0.944   2.768  0.00  0.00    +0.123 C 
ATOM      6  C   UNL     1      -3.261   0.674   1.363  0.00  0.00    +0.228 C 
ATOM      7  O   UNL     1      -3.983   1.049   0.464  0.00  0.00    -0.275 OA
ATOM      8  C   UNL     1      -4.251   1.579   3.768  0.00  0.00    +0.136 C 
ATOM      9  C   UNL     1      -5.731   1.360   3.571  0.00  0.00    +0.005 A 
ATOM     10  C   UNL     1      -6.503   0.228   3.427  0.00  0.00    +0.011 A 
ATOM     11  C   UNL     1      -7.871   0.341   3.259  0.00  0.00    -0.049 A 
ATOM     12  C   UNL     1      -8.461   1.592   3.236  0.00  0.00    +0.025 A 
ATOM     13  C   UNL     1      -7.691   2.729   3.381  0.00  0.00    +0.063 A 
ATOM     14  C   UNL     1      -6.311   2.623   3.551  0.00  0.00    +0.057 A 
ATOM     15  N   UNL     1      -5.333   3.605   3.717  0.00  0.00    -0.282 N 
ATOM     16  C   UNL     1      -4.103   3.080   3.852  0.00  0.00    +0.243 C 
ATOM     17  O   UNL     1      -3.070   3.696   4.012  0.00  0.00    -0.273 OA
ATOM     18 CL   UNL     1      -8.442   4.294   3.350  0.00  0.00    -0.082 Cl
ATOM     19  C   UNL     1      -8.718  -0.895   3.100  0.00  0.00    +0.044 C 
ATOM     20  N   UNL     1      -3.847   0.982   5.083  0.00  0.00    -0.293 NA
ATOM     21  C   UNL     1      -2.534   0.247   4.833  0.00  0.00    +0.096 C 
ATOM     22  H   UNL     1      -5.520   4.557   3.732  0.00  0.00    +0.155 HD
ATOM     23  H   UNL     1      -3.733   1.698   5.785  0.00  0.00    +0.124 HD
ENDROOT
BRANCH   1  24
ATOM     24  C   UNL     1      -1.501  -0.451  -0.015  0.00  0.00    +0.081 C 
ATOM     25  C   UNL     1      -1.486  -1.972  -0.175  0.00  0.00    +0.028 C 
BRANCH  24  27
ATOM     26  C   UNL     1      -0.086   1.608  -0.001  0.00  0.00    +0.006 C 
ATOM     27  C   UNL     1      -0.065   0.079  -0.036  0.00  0.00    +0.019 C 
ENDBRANCH  24  27
ENDBRANCH   1  24
BRANCH  21  28
ATOM     28  C   UNL     1      -1.345   1.210   4.815  0.00  0.00    +0.129 C 
ATOM     29  C   UNL     1      -1.217   1.888   6.180  0.00  0.00    +0.039 C 
BRANCH  28  30
ATOM     30  O   UNL     1      -0.148   0.483   4.529  0.00  0.00    -0.390 OA
ATOM     31  H   UNL     1       0.055  -0.208   5.173  0.00  0.00    +0.210 HD
ENDBRANCH  28  30
ENDBRANCH  21  28
TORSDOF 4
