REMARK  Name = ZINC62099908
REMARK  7 active torsions:
REMARK  status: ('A' for Active; 'I' for Inactive)
REMARK    1  A    between atoms: C_1  and  C_2
REMARK    2  A    between atoms: C_2  and  C_3
REMARK    3  A    between atoms: C_2  and  C_4
REMARK    4  A    between atoms: C_2  and  C_5
REMARK    5  A    between atoms: C_9  and  C_22
REMARK    6  A    between atoms: C_11  and  N_14
REMARK    7  A    between atoms: C_22  and  N_23
REMARK                            x       y       z     vdW  Elec       q    Type
REMARK                         _______ _______ _______ _____ _____    ______ ____
ROOT
ATOM      1  C   UNL     1       0.715  -0.497  -1.263  0.00  0.00    -0.004 C 
ATOM      2  C   UNL     1      -0.022   0.009  -2.504  0.00  0.00    +0.004 C 
ATOM      3  C   UNL     1       0.698  -0.484  -3.761  0.00  0.00    +0.003 C 
ATOM      4  C   UNL     1       2.133   0.046  -3.768  0.00  0.00    -0.011 C 
ATOM      5  C   UNL     1       2.870  -0.461  -2.526  0.00  0.00    +0.058 C 
ATOM      6  C   UNL     1       2.150   0.032  -1.270  0.00  0.00    +0.023 C 
ENDROOT
BRANCH   5   7
ATOM      7  N   UNL     1       2.890  -1.930  -2.534  0.00  0.00    -0.297 NA
ATOM      8  C   UNL     1       3.470  -2.451  -1.305  0.00  0.00    +0.094 C 
ATOM      9  C   UNL     1       3.134  -3.935  -1.135  0.00  0.00    +0.111 C 
ATOM     10  C   UNL     1       4.145  -4.747  -1.918  0.00  0.00    +0.214 C 
ATOM     11  O   UNL     1       4.971  -5.416  -1.334  0.00  0.00    -0.276 OA
ATOM     12  N   UNL     1       4.125  -4.725  -3.254  0.00  0.00    -0.314 N 
ATOM     13  C   UNL     1       3.120  -3.917  -3.965  0.00  0.00    +0.119 C 
ATOM     14  C   UNL     1       3.459  -2.437  -3.774  0.00  0.00    +0.103 C 
ATOM     15  H   UNL     1       4.775  -5.241  -3.757  0.00  0.00    +0.149 HD
ENDBRANCH   5   7
BRANCH   1  17
ATOM     16  C   UNL     1      -0.025   1.526   0.003  0.00  0.00    +0.011 C 
ATOM     17  C   UNL     1      -0.005  -0.004  -0.006  0.00  0.00    -0.035 C 
ATOM     18  C   UNL     1       0.732  -0.511   1.236  0.00  0.00    +0.011 C 
ATOM     19  C   UNL     1      -1.440  -0.534   0.001  0.00  0.00    +0.011 C 
ENDBRANCH   1  17
BRANCH   4  20
ATOM     20  C   UNL     1       2.112   1.575  -3.760  0.00  0.00    -0.081 C 
BRANCH  20  21
ATOM     21  N   UNL     1       1.512   2.064  -5.008  0.00  0.00    +0.378 N 
ATOM     22  H   UNL     1       2.057   1.739  -5.793  0.00  0.00    -0.090 HD
ATOM     23  H   UNL     1       0.568   1.715  -5.086  0.00  0.00    -0.090 HD
ATOM     24  H   UNL     1       1.498   3.073  -5.003  0.00  0.00    -0.090 HD
ENDBRANCH  20  21
ENDBRANCH   4  20
TORSDOF 4
