REMARK  Name = ZINC37027674
REMARK  5 active torsions:
REMARK  status: ('A' for Active; 'I' for Inactive)
REMARK    1  A    between atoms: C_1  and  C_2
REMARK    2  A    between atoms: C_2  and  C_4
REMARK    3  A    between atoms: C_2  and  N_18
REMARK    4  A    between atoms: N_6  and  C_7
REMARK    5  A    between atoms: C_12  and  N_13
REMARK                            x       y       z     vdW  Elec       q    Type
REMARK                         _______ _______ _______ _____ _____    ______ ____
ROOT
ATOM      1  C   UNL     1       2.630  -0.696  -2.579  0.00  0.00    +0.059 A 
ATOM      2  C   UNL     1       1.917  -1.485  -3.470  0.00  0.00    +0.025 A 
ATOM      3  C   UNL     1       2.549  -2.026  -4.573  0.00  0.00    +0.002 A 
ATOM      4  C   UNL     1       3.894  -1.784  -4.792  0.00  0.00    +0.002 A 
ATOM      5  C   UNL     1       4.612  -1.000  -3.909  0.00  0.00    +0.030 A 
ATOM      6  C   UNL     1       3.984  -0.448  -2.803  0.00  0.00    +0.088 A 
ENDROOT
BRANCH   6   7
ATOM      7  N   UNL     1       4.709   0.353  -1.909  0.00  0.00    -0.218 N 
ATOM      8  C   UNL     1       5.986   0.759  -2.043  0.00  0.00    +0.225 A 
ATOM      9  N   UNL     1       6.291   1.488  -1.000  0.00  0.00    -0.222 NA
ATOM     10  C   UNL     1       5.242   1.569  -0.182  0.00  0.00    +0.245 A 
ATOM     11  N   UNL     1       4.247   0.895  -0.699  0.00  0.00    -0.153 NA
ENDBRANCH   6   7
BRANCH   1  14
ATOM     12  C   UNL     1       0.661   0.067  -1.483  0.00  0.00    +0.203 C 
ATOM     13  O   UNL     1       0.032  -0.123  -2.502  0.00  0.00    -0.277 OA
ATOM     14  N   UNL     1       1.991  -0.146  -1.461  0.00  0.00    -0.285 N 
ATOM     15  H   UNL     1       2.506   0.081  -0.671  0.00  0.00    +0.155 HD
BRANCH  12  17
ATOM     16  C   UNL     1       0.537   1.888   0.196  0.00  0.00    -0.005 C 
ATOM     17  C   UNL     1      -0.046   0.542  -0.240  0.00  0.00    +0.010 C 
BRANCH  17  18
ATOM     18  N   UNL     1      -1.480   0.698  -0.521  0.00  0.00    +0.385 N 
ATOM     19  H   UNL     1      -1.606   1.374  -1.259  0.00  0.00    -0.089 HD
ATOM     20  H   UNL     1      -1.864  -0.190  -0.808  0.00  0.00    -0.089 HD
ATOM     21  H   UNL     1      -1.953   1.016   0.311  0.00  0.00    -0.089 HD
ENDBRANCH  17  18
ENDBRANCH  12  17
ENDBRANCH   1  14
TORSDOF 4
