REMARK  Name = ZINC27103774
REMARK  10 active torsions:
REMARK  status: ('A' for Active; 'I' for Inactive)
REMARK    1  A    between atoms: C_1  and  C_2
REMARK    2  A    between atoms: C_2  and  C_34
REMARK    3  A    between atoms: C_4  and  N_11
REMARK    4  A    between atoms: C_6  and  C_9
REMARK    5  A    between atoms: C_6  and  C_10
REMARK    6  A    between atoms: N_7  and  C_8
REMARK    7  A    between atoms: C_12  and  C_14
REMARK    8  A    between atoms: C_14  and  O_15
REMARK    9  A    between atoms: O_15  and  C_16
REMARK   10  A    between atoms: C_24  and  C_27
REMARK                            x       y       z     vdW  Elec       q    Type
REMARK                         _______ _______ _______ _____ _____    ______ ____
ROOT
ATOM      1  O   UNL     1      -2.403   1.001   0.019  0.00  0.00    -0.483 OA
ENDROOT
BRANCH   1   2
ATOM      2  C   UNL     1      -3.664   1.503   0.028  0.00  0.00    +0.125 A 
ATOM      3  C   UNL     1      -3.858   2.883   0.042  0.00  0.00    +0.046 A 
ATOM      4  C   UNL     1      -5.122   3.401   0.045  0.00  0.00    +0.019 A 
ATOM      5  C   UNL     1      -6.222   2.543   0.045  0.00  0.00    +0.065 A 
ATOM      6  C   UNL     1      -6.038   1.149   0.037  0.00  0.00    +0.142 A 
ATOM      7  C   UNL     1      -4.746   0.639   0.028  0.00  0.00    +0.092 A 
ATOM      8  O   UNL     1      -7.102   0.322   0.038  0.00  0.00    -0.462 OA
ATOM      9  C   UNL     1      -8.365   0.754   0.046  0.00  0.00    +0.208 A 
ATOM     10  C   UNL     1      -8.687   2.073   0.055  0.00  0.00    +0.064 A 
ATOM     11  C   UNL     1      -7.600   3.067   0.055  0.00  0.00    +0.200 A 
ATOM     12  O   UNL     1      -7.829   4.264   0.063  0.00  0.00    -0.286 OA
BRANCH  10  13
ATOM     13  C   UNL     1     -10.106   2.505   0.064  0.00  0.00    -0.011 A 
ATOM     14  C   UNL     1     -10.546   3.440   0.999  0.00  0.00    +0.010 A 
ATOM     15  C   UNL     1     -11.866   3.843   1.000  0.00  0.00    +0.020 A 
ATOM     16  C   UNL     1     -12.755   3.311   0.082  0.00  0.00    +0.041 A 
ATOM     17  C   UNL     1     -12.325   2.378  -0.845  0.00  0.00    +0.020 A 
ATOM     18  C   UNL     1     -11.005   1.972  -0.858  0.00  0.00    +0.010 A 
ATOM     19 CL   UNL     1     -14.416   3.817   0.094  0.00  0.00    -0.084 Cl
ENDBRANCH  10  13
ENDBRANCH   1   2
BRANCH   1  20
ATOM     20  C   UNL     1      -1.330   1.944   0.019  0.00  0.00    +0.324 C 
BRANCH  20  22
ATOM     21  N   UNL     1       1.143   1.898   0.001  0.00  0.00    -0.310 N 
ATOM     22  C   UNL     1      -0.014   1.209   0.009  0.00  0.00    +0.251 C 
ATOM     23  O   UNL     1       0.002  -0.004   0.002  0.00  0.00    -0.272 OA
ATOM     24  H   UNL     1       1.129   2.998   0.007  0.00  0.00    +0.149 HD
BRANCH  21  28
ATOM     25  C   UNL     1       4.872   0.330  -1.743  0.00  0.00    -0.010 C 
ATOM     26  C   UNL     1       4.851   1.375  -0.622  0.00  0.00    -0.069 C 
ATOM     27  C   UNL     1       3.501   2.087  -0.614  0.00  0.00    +0.010 C 
ATOM     28  C   UNL     1       2.425   1.181  -0.015  0.00  0.00    +0.070 C 
ATOM     29  C   UNL     1       2.825   0.834   1.419  0.00  0.00    +0.010 C 
ATOM     30  C   UNL     1       4.167   0.105   1.434  0.00  0.00    -0.069 C 
ATOM     31  N   UNL     1       5.184   0.779   0.655  0.00  0.00    +0.385 N 
ATOM     32  C   UNL     1       6.438   0.015   0.600  0.00  0.00    -0.095 C 
ATOM     33  C   UNL     1       3.971  -1.339   0.958  0.00  0.00    -0.010 C 
ATOM     34  C   UNL     1       4.645   0.042   2.901  0.00  0.00    -0.010 C 
ATOM     35  C   UNL     1       5.930   2.429  -0.959  0.00  0.00    -0.010 C 
ATOM     36  H   UNL     1       5.290   1.695   1.256  0.00  0.00    -0.081 HD
ENDBRANCH  21  28
ENDBRANCH  20  22
ENDBRANCH   1  20
TORSDOF 5
