REMARK  Name = ZINC14198102
REMARK  12 active torsions:
REMARK  status: ('A' for Active; 'I' for Inactive)
REMARK    1  A    between atoms: C_1  and  C_2
REMARK    2  A    between atoms: C_5  and  S_9
REMARK    3  A    between atoms: C_6  and  C_8
REMARK    4  A    between atoms: S_9  and  C_10
REMARK    5  A    between atoms: C_13  and  N_16
REMARK    6  A    between atoms: C_17  and  C_19
REMARK    7  A    between atoms: C_19  and  N_54
REMARK    8  A    between atoms: C_20  and  C_21
REMARK    9  A    between atoms: C_20  and  N_54
REMARK   10  A    between atoms: C_24  and  C_25
REMARK   11  A    between atoms: C_24  and  C_26
REMARK   12  A    between atoms: C_24  and  N_54
REMARK                            x       y       z     vdW  Elec       q    Type
REMARK                         _______ _______ _______ _____ _____    ______ ____
ROOT
ATOM      1  N   UNL     1      -0.222   0.523   0.159  0.00  0.00    -0.287 N 
ATOM      2  C   UNL     1       0.072  -0.649  -0.437  0.00  0.00    +0.201 C 
ATOM      3  O   UNL     1      -0.819  -1.349  -0.871  0.00  0.00    -0.278 OA
ATOM      4  H   UNL     1       0.482   1.050   0.569  0.00  0.00    +0.155 HD
ENDROOT
BRANCH   1   8
ATOM      5  C   UNL     1      -4.165   1.880   0.261  0.00  0.00    +0.013 A 
ATOM      6  C   UNL     1      -3.895   0.521   0.361  0.00  0.00    +0.017 A 
ATOM      7  C   UNL     1      -2.590   0.072   0.328  0.00  0.00    +0.024 A 
ATOM      8  C   UNL     1      -1.547   0.979   0.193  0.00  0.00    +0.033 A 
ATOM      9  C   UNL     1      -1.816   2.338   0.098  0.00  0.00    +0.024 A 
ATOM     10  C   UNL     1      -3.121   2.788   0.126  0.00  0.00    +0.017 A 
BRANCH   5  11
ATOM     11  S   UNL     1      -5.830   2.454   0.303  0.00  0.00    -0.089 S 
BRANCH  11  16
ATOM     12  C   UNL     1      -6.787   3.732   6.124  0.00  0.00    +0.044 C 
ATOM     13  C   UNL     1      -6.548   3.412   4.671  0.00  0.00    -0.050 A 
ATOM     14  C   UNL     1      -5.289   3.029   4.247  0.00  0.00    +0.004 A 
ATOM     15  C   UNL     1      -5.066   2.736   2.916  0.00  0.00    +0.015 A 
ATOM     16  C   UNL     1      -6.110   2.826   2.002  0.00  0.00    +0.016 A 
ATOM     17  C   UNL     1      -7.373   3.217   2.431  0.00  0.00    -0.036 A 
ATOM     18  C   UNL     1      -7.589   3.503   3.765  0.00  0.00    +0.007 A 
ATOM     19  C   UNL     1      -8.506   3.322   1.443  0.00  0.00    +0.045 C 
ENDBRANCH  11  16
ENDBRANCH   5  11
ENDBRANCH   1   8
BRANCH   2  20
ATOM     20  C   UNL     1       1.507  -1.091  -0.564  0.00  0.00    +0.020 C 
BRANCH  20  21
ATOM     21  N   UNL     1       1.549  -2.346  -1.343  0.00  0.00    +0.393 N 
ATOM     22  H   UNL     1       0.775  -2.951  -1.042  0.00  0.00    -0.080 HD
BRANCH  21  23
ATOM     23  C   UNL     1       2.828  -3.047  -1.102  0.00  0.00    -0.074 C 
ATOM     24  C   UNL     1       4.004  -2.080  -1.243  0.00  0.00    -0.013 C 
ATOM     25  C   UNL     1       2.811  -3.628   0.313  0.00  0.00    -0.013 C 
ENDBRANCH  21  23
BRANCH  21  26
ATOM     26  C   UNL     1       1.397  -2.052  -2.783  0.00  0.00    +0.019 C 
BRANCH  26  27
ATOM     27  C   UNL     1       1.222  -3.350  -3.529  0.00  0.00    +0.194 C 
ATOM     28  O   UNL     1       1.240  -4.402  -2.926  0.00  0.00    -0.278 OA
ATOM     29  N   UNL     1       1.046  -3.342  -4.865  0.00  0.00    -0.331 N 
ATOM     30  H   UNL     1       1.032  -2.500  -5.347  0.00  0.00    +0.145 HD
ATOM     31  H   UNL     1       0.933  -4.177  -5.344  0.00  0.00    +0.145 HD
ENDBRANCH  26  27
ENDBRANCH  21  26
ENDBRANCH  20  21
ENDBRANCH   2  20
TORSDOF 8
