REMARK  Name = ZINC38097963
REMARK  7 active torsions:
REMARK  status: ('A' for Active; 'I' for Inactive)
REMARK    1  A    between atoms: C_1  and  C_2
REMARK    2  A    between atoms: C_2  and  N_3
REMARK    3  A    between atoms: C_6  and  N_9
REMARK    4  A    between atoms: N_9  and  C_10
REMARK    5  A    between atoms: C_13  and  C_23
REMARK    6  A    between atoms: C_17  and  O_22
REMARK    7  A    between atoms: C_20  and  C_21
REMARK                            x       y       z     vdW  Elec       q    Type
REMARK                         _______ _______ _______ _____ _____    ______ ____
ROOT
ATOM      1  C   UNL     1       3.082  -3.912   4.172  0.00  0.00    -0.036 C 
ATOM      2  C   UNL     1       3.494  -4.331   5.599  0.00  0.00    -0.003 C 
ATOM      3  C   UNL     1       4.994  -4.652   5.430  0.00  0.00    +0.015 C 
ATOM      4  C   UNL     1       5.153  -5.047   3.977  0.00  0.00    -0.037 A 
ATOM      5  C   UNL     1       4.053  -4.622   3.253  0.00  0.00    -0.016 A 
ATOM      6  C   UNL     1       3.980  -4.877   1.889  0.00  0.00    +0.119 A 
ATOM      7  C   UNL     1       5.007  -5.556   1.253  0.00  0.00    +0.046 A 
ATOM      8  C   UNL     1       6.104  -5.980   1.977  0.00  0.00    +0.007 A 
ATOM      9  C   UNL     1       6.179  -5.725   3.339  0.00  0.00    -0.047 A 
ATOM     10  C   UNL     1       7.376  -6.188   4.128  0.00  0.00    +0.044 C 
ATOM     11  C   UNL     1       5.395  -5.812   6.344  0.00  0.00    +0.012 C 
ENDROOT
BRANCH   1  12
ATOM     12  N   UNL     1       3.201  -2.457   4.013  0.00  0.00    +0.386 N 
ATOM     13  H   UNL     1       4.163  -2.182   4.144  0.00  0.00    -0.085 HD
ATOM     14  H   UNL     1       2.623  -1.995   4.700  0.00  0.00    -0.085 HD
BRANCH  12  18
ATOM     15  N   UNL     1       1.023  -0.504   0.976  0.00  0.00    -0.303 NA
ATOM     16  C   UNL     1       2.447  -0.165   1.086  0.00  0.00    +0.083 C 
ATOM     17  C   UNL     1       2.964  -0.569   2.469  0.00  0.00    -0.000 C 
ATOM     18  C   UNL     1       2.761  -2.074   2.665  0.00  0.00    -0.069 C 
ATOM     19  C   UNL     1       1.276  -2.407   2.498  0.00  0.00    -0.000 C 
ATOM     20  C   UNL     1       0.808  -1.950   1.114  0.00  0.00    +0.083 C 
BRANCH  15  22
ATOM     21  C   UNL     1       0.476   1.524  -0.283  0.00  0.00    +0.020 C 
ATOM     22  C   UNL     1       0.459  -0.006  -0.285  0.00  0.00    +0.081 C 
ENDBRANCH  15  22
ENDBRANCH  12  18
ENDBRANCH   1  12
BRANCH   6  23
ATOM     23  O   UNL     1       2.899  -4.460   1.178  0.00  0.00    -0.507 OA
ATOM     24  H   UNL     1       3.030  -3.617   0.723  0.00  0.00    +0.292 HD
ENDBRANCH   6  23
TORSDOF 4
