REMARK  Name = ZINC43287044
REMARK  11 active torsions:
REMARK  status: ('A' for Active; 'I' for Inactive)
REMARK    1  A    between atoms: C_1  and  C_2
REMARK    2  A    between atoms: C_2  and  N_3
REMARK    3  A    between atoms: C_4  and  C_6
REMARK    4  A    between atoms: C_6  and  N_7
REMARK    5  A    between atoms: N_7  and  C_8
REMARK    6  A    between atoms: N_7  and  C_10
REMARK    7  A    between atoms: C_8  and  C_9
REMARK    8  A    between atoms: C_10  and  C_12
REMARK    9  A    between atoms: C_10  and  C_18
REMARK   10  A    between atoms: C_18  and  C_20
REMARK   11  A    between atoms: C_18  and  N_21
REMARK                            x       y       z     vdW  Elec       q    Type
REMARK                         _______ _______ _______ _____ _____    ______ ____
ROOT
ATOM      1  C   UNL     1      -4.950  -4.127   0.240  0.00  0.00    +0.079 C 
ENDROOT
BRANCH   1   2
ATOM      2  C   UNL     1      -5.151  -4.267   1.727  0.00  0.00    +0.006 A 
ATOM      3  C   UNL     1      -6.022  -5.057   2.400  0.00  0.00    +0.028 A 
ATOM      4  C   UNL     1      -6.031  -5.020   3.782  0.00  0.00    +0.025 A 
ATOM      5  C   UNL     1      -5.166  -4.196   4.423  0.00  0.00    +0.060 A 
ATOM      6  S   UNL     1      -4.296  -3.440   3.059  0.00  0.00    -0.099 S 
ATOM      7 BR   UNL     1      -7.230  -6.104   4.764  0.00  0.00    -0.050 Br
ENDBRANCH   1   2
BRANCH   1   8
ATOM      8  C   UNL     1      -5.549  -2.801  -0.233  0.00  0.00    -0.056 C 
ATOM      9  C   UNL     1      -5.463  -2.718  -1.758  0.00  0.00    -0.012 C 
BRANCH   8  10
ATOM     10  N   UNL     1      -6.956  -2.724   0.182  0.00  0.00    +0.381 N 
ATOM     11  H   UNL     1      -7.013  -2.779   1.188  0.00  0.00    -0.090 HD
ATOM     12  H   UNL     1      -7.352  -1.850  -0.130  0.00  0.00    -0.090 HD
ATOM     13  H   UNL     1      -7.470  -3.490  -0.226  0.00  0.00    -0.090 HD
ENDBRANCH   8  10
ENDBRANCH   1   8
BRANCH   1  14
ATOM     14  N   UNL     1      -3.513  -4.151  -0.065  0.00  0.00    -0.288 NA
BRANCH  14  15
ATOM     15  C   UNL     1      -3.272  -4.649  -1.425  0.00  0.00    +0.082 C 
ATOM     16  C   UNL     1      -3.514  -6.159  -1.467  0.00  0.00    +0.020 C 
ENDBRANCH  14  15
BRANCH  14  17
ATOM     17  C   UNL     1      -2.912  -2.824   0.125  0.00  0.00    +0.180 C 
BRANCH  17  19
ATOM     18  N   UNL     1      -0.658  -1.873   0.489  0.00  0.00    -0.315 N 
ATOM     19  C   UNL     1      -1.422  -2.967   0.299  0.00  0.00    +0.227 C 
ATOM     20  O   UNL     1      -0.911  -4.066   0.269  0.00  0.00    -0.274 OA
ATOM     21  H   UNL     1      -1.067  -0.994   0.513  0.00  0.00    +0.149 HD
BRANCH  18  23
ATOM     22  C   UNL     1       1.416  -0.630   0.856  0.00  0.00    +0.024 C 
ATOM     23  C   UNL     1       0.791  -2.012   0.658  0.00  0.00    +0.101 C 
ENDBRANCH  18  23
ENDBRANCH  17  19
ENDBRANCH  14  17
ENDBRANCH   1  14
TORSDOF 8
