REMARK  Name = ZINC50032188
REMARK  12 active torsions:
REMARK  status: ('A' for Active; 'I' for Inactive)
REMARK    1  A    between atoms: C_1  and  C_2
REMARK    2  A    between atoms: C_2  and  C_3
REMARK    3  A    between atoms: C_2  and  C_4
REMARK    4  A    between atoms: C_4  and  C_5
REMARK    5  A    between atoms: C_5  and  C_7
REMARK    6  A    between atoms: C_5  and  N_11
REMARK    7  A    between atoms: C_7  and  N_8
REMARK    8  A    between atoms: N_8  and  C_9
REMARK    9  A    between atoms: N_8  and  C_10
REMARK   10  A    between atoms: N_11  and  C_12
REMARK   11  A    between atoms: C_14  and  C_20
REMARK   12  A    between atoms: C_15  and  N_19
REMARK                            x       y       z     vdW  Elec       q    Type
REMARK                         _______ _______ _______ _____ _____    ______ ____
ROOT
ATOM      1  C   UNL     1       0.594  -2.843   1.759  0.00  0.00    +0.064 A 
ATOM      2  C   UNL     1       1.357  -2.102   0.877  0.00  0.00    +0.040 A 
ATOM      3  C   UNL     1       2.736  -1.983   1.079  0.00  0.00    +0.059 A 
ATOM      4  C   UNL     1       3.335  -2.618   2.177  0.00  0.00    +0.040 A 
ATOM      5  C   UNL     1       2.556  -3.360   3.055  0.00  0.00    +0.063 A 
ATOM      6  C   UNL     1       1.193  -3.468   2.851  0.00  0.00    +0.146 A 
ATOM      7  F   UNL     1       0.440  -4.186   3.712  0.00  0.00    -0.203 F 
ENDROOT
BRANCH   3   8
ATOM      8  C   UNL     1       3.555  -1.194   0.142  0.00  0.00    +0.243 C 
ATOM      9  O   UNL     1       4.765  -1.169   0.266  0.00  0.00    -0.270 OA
ATOM     10  N   UNL     1       2.965  -0.501  -0.851  0.00  0.00    -0.325 N 
ATOM     11  H   UNL     1       2.000  -0.521  -0.950  0.00  0.00    +0.145 HD
ATOM     12  H   UNL     1       3.505   0.018  -1.468  0.00  0.00    +0.145 HD
ENDBRANCH   3   8
BRANCH   4  13
ATOM     13  N   UNL     1       4.706  -2.506   2.386  0.00  0.00    -0.357 N 
ATOM     14  H   UNL     1       5.232  -1.903   1.838  0.00  0.00    +0.142 HD
ATOM     15  H   UNL     1       5.136  -3.030   3.080  0.00  0.00    +0.142 HD
ENDBRANCH   4  13
BRANCH   1  16
ATOM     16  N   UNL     1      -0.788  -2.963   1.557  0.00  0.00    -0.341 N 
ATOM     17  H   UNL     1      -1.336  -3.422   2.213  0.00  0.00    +0.146 HD
BRANCH  16  18
ATOM     18  C   UNL     1      -1.405  -2.394   0.356  0.00  0.00    +0.054 C 
BRANCH  18  19
ATOM     19  C   UNL     1      -1.646  -0.898   0.567  0.00  0.00    +0.023 C 
BRANCH  19  21
ATOM     20  C   UNL     1      -2.592   1.173  -0.463  0.00  0.00    +0.007 C 
ATOM     21  C   UNL     1      -2.208  -0.286  -0.718  0.00  0.00    -0.016 C 
ATOM     22  C   UNL     1      -1.148  -0.349  -1.819  0.00  0.00    +0.007 C 
ENDBRANCH  19  21
ENDBRANCH  18  19
BRANCH  18  23
ATOM     23  C   UNL     1      -2.740  -3.092   0.089  0.00  0.00    -0.057 C 
BRANCH  23  24
ATOM     24  N   UNL     1      -2.522  -4.541  -0.017  0.00  0.00    +0.377 N 
ATOM     25  C   UNL     1      -3.818  -5.225  -0.126  0.00  0.00    -0.097 C 
ATOM     26  C   UNL     1      -1.715  -4.829  -1.210  0.00  0.00    -0.097 C 
ATOM     27  H   UNL     1      -2.037  -4.869   0.805  0.00  0.00    -0.083 HD
ENDBRANCH  23  24
ENDBRANCH  18  23
ENDBRANCH  16  18
ENDBRANCH   1  16
TORSDOF 8
