REMARK  Name = ZINC12763675
REMARK  11 active torsions:
REMARK  status: ('A' for Active; 'I' for Inactive)
REMARK    1  A    between atoms: C_1  and  C_2
REMARK    2  A    between atoms: C_5  and  C_30
REMARK    3  A    between atoms: C_6  and  N_8
REMARK    4  A    between atoms: C_9  and  N_14
REMARK    5  A    between atoms: C_11  and  C_13
REMARK    6  A    between atoms: C_15  and  C_17
REMARK    7  A    between atoms: C_17  and  N_57
REMARK    8  A    between atoms: C_18  and  N_57
REMARK    9  A    between atoms: C_19  and  C_20
REMARK   10  A    between atoms: C_19  and  N_57
REMARK   11  A    between atoms: N_22  and  C_23
REMARK                            x       y       z     vdW  Elec       q    Type
REMARK                         _______ _______ _______ _____ _____    ______ ____
ROOT
ATOM      1  N   UNL     1       6.930   0.856   0.038  0.00  0.00    -0.272 N 
ATOM      2  C   UNL     1       5.723   0.397   0.422  0.00  0.00    +0.202 C 
ATOM      3  O   UNL     1       5.532  -0.797   0.523  0.00  0.00    -0.278 OA
ATOM      4  H   UNL     1       7.083   1.811  -0.042  0.00  0.00    +0.156 HD
ENDROOT
BRANCH   1   6
ATOM      5  N   UNL     1       9.255   0.280  -0.512  0.00  0.00    -0.218 N 
ATOM      6  C   UNL     1       7.960  -0.040  -0.244  0.00  0.00    +0.129 A 
ATOM      7  C   UNL     1       7.856  -1.397  -0.295  0.00  0.00    +0.068 A 
ATOM      8  C   UNL     1       9.116  -1.912  -0.612  0.00  0.00    +0.062 A 
ATOM      9  N   UNL     1       9.953  -0.914  -0.738  0.00  0.00    -0.170 NA
ATOM     10  C   UNL     1       9.455  -3.372  -0.774  0.00  0.00    +0.067 C 
BRANCH   5  16
ATOM     11  C   UNL     1       8.984   4.930  -2.091  0.00  0.00    +0.044 C 
ATOM     12  C   UNL     1       9.684   3.845  -1.314  0.00  0.00    -0.048 A 
ATOM     13  C   UNL     1      10.861   4.124  -0.643  0.00  0.00    +0.004 A 
ATOM     14  C   UNL     1      11.506   3.131   0.071  0.00  0.00    +0.006 A 
ATOM     15  C   UNL     1      10.976   1.856   0.116  0.00  0.00    -0.025 A 
ATOM     16  C   UNL     1       9.795   1.572  -0.556  0.00  0.00    +0.071 A 
ATOM     17  C   UNL     1       9.152   2.571  -1.276  0.00  0.00    +0.031 A 
ATOM     18  C   UNL     1      11.680   0.774   0.894  0.00  0.00    +0.046 C 
ENDBRANCH   5  16
ENDBRANCH   1   6
BRANCH   2  19
ATOM     19  C   UNL     1       4.610   1.366   0.727  0.00  0.00    +0.019 C 
BRANCH  19  21
ATOM     20  C   UNL     1       3.615  -0.083   2.393  0.00  0.00    -0.095 C 
ATOM     21  N   UNL     1       3.401   0.602   1.100  0.00  0.00    +0.389 N 
ATOM     22  H   UNL     1       3.215  -0.103   0.376  0.00  0.00    -0.081 HD
BRANCH  21  23
ATOM     23  C   UNL     1       2.239   1.510   1.195  0.00  0.00    +0.019 C 
BRANCH  23  24
ATOM     24  C   UNL     1       0.989   0.684   1.357  0.00  0.00    +0.201 C 
ATOM     25  O   UNL     1       1.063  -0.526   1.405  0.00  0.00    -0.278 OA
ATOM     26  N   UNL     1      -0.213   1.289   1.443  0.00  0.00    -0.286 N 
ATOM     27  H   UNL     1      -0.267   2.257   1.471  0.00  0.00    +0.155 HD
BRANCH  26  28
ATOM     28  C   UNL     1      -1.381   0.520   1.492  0.00  0.00    +0.047 A 
ATOM     29  C   UNL     1      -1.352  -0.758   2.033  0.00  0.00    +0.024 A 
ATOM     30  C   UNL     1      -2.508  -1.512   2.084  0.00  0.00    +0.002 A 
ATOM     31  C   UNL     1      -3.692  -0.999   1.588  0.00  0.00    +0.001 A 
ATOM     32  C   UNL     1      -3.725   0.272   1.043  0.00  0.00    +0.017 A 
ATOM     33  C   UNL     1      -2.573   1.033   0.994  0.00  0.00    +0.039 A 
ATOM     34 BR   UNL     1      -2.618   2.770   0.248  0.00  0.00    -0.048 Br
ENDBRANCH  26  28
ENDBRANCH  23  24
ENDBRANCH  21  23
ENDBRANCH  19  21
ENDBRANCH   2  19
TORSDOF 7
