REMARK  Name = ZINC20830396
REMARK  10 active torsions:
REMARK  status: ('A' for Active; 'I' for Inactive)
REMARK    1  A    between atoms: C_1  and  C_2
REMARK    2  A    between atoms: C_2  and  C_28
REMARK    3  A    between atoms: C_4  and  N_10
REMARK    4  A    between atoms: C_6  and  C_8
REMARK    5  A    between atoms: C_6  and  C_9
REMARK    6  A    between atoms: C_11  and  C_13
REMARK    7  A    between atoms: C_13  and  S_14
REMARK    8  A    between atoms: S_14  and  C_15
REMARK    9  A    between atoms: C_18  and  C_21
REMARK   10  A    between atoms: N_19  and  N_20
REMARK                            x       y       z     vdW  Elec       q    Type
REMARK                         _______ _______ _______ _____ _____    ______ ____
ROOT
ATOM      1  C   UNL     1       0.105   7.210  -2.379  0.00  0.00    +0.173 C 
ENDROOT
BRANCH   1   3
ATOM      2  N   UNL     1       0.389   5.051  -1.207  0.00  0.00    -0.312 N 
ATOM      3  C   UNL     1       0.113   5.703  -2.353  0.00  0.00    +0.224 C 
ATOM      4  O   UNL     1      -0.129   5.078  -3.364  0.00  0.00    -0.275 OA
ATOM      5  H   UNL     1       0.608   5.617  -0.290  0.00  0.00    +0.149 HD
BRANCH   2   9
ATOM      6  C   UNL     1      -0.944   0.975  -2.269  0.00  0.00    -0.010 C 
ATOM      7  C   UNL     1      -1.042   1.551  -0.852  0.00  0.00    -0.072 C 
ATOM      8  C   UNL     1      -1.022   3.076  -0.918  0.00  0.00    +0.009 C 
ATOM      9  C   UNL     1       0.396   3.583  -1.181  0.00  0.00    +0.070 C 
ATOM     10  C   UNL     1       1.298   3.104  -0.042  0.00  0.00    +0.009 C 
ATOM     11  C   UNL     1       1.320   1.577  -0.002  0.00  0.00    -0.072 C 
ATOM     12  N   UNL     1      -0.012   1.005   0.008  0.00  0.00    +0.386 N 
ATOM     13  C   UNL     1       2.035   1.156   1.301  0.00  0.00    -0.010 C 
ATOM     14  C   UNL     1       2.151   1.041  -1.172  0.00  0.00    -0.010 C 
ATOM     15  C   UNL     1      -2.415   1.129  -0.282  0.00  0.00    -0.010 C 
ATOM     16  H   UNL     1      -0.328   1.088   1.058  0.00  0.00    -0.084 HD
ATOM     17  H   UNL     1       0.152  -0.053  -0.244  0.00  0.00    -0.084 HD
ENDBRANCH   2   9
ENDBRANCH   1   3
BRANCH   1  18
ATOM     18  S   UNL     1      -0.296   7.783  -4.048  0.00  0.00    -0.075 S 
BRANCH  18  19
ATOM     19  C   UNL     1      -0.237   9.526  -3.796  0.00  0.00    +0.209 A 
ATOM     20  N   UNL     1       0.034  10.142  -2.667  0.00  0.00    -0.121 NA
ATOM     21  N   UNL     1      -0.008  11.415  -2.838  0.00  0.00    -0.127 NA
ATOM     22  C   UNL     1      -0.308  11.690  -4.086  0.00  0.00    +0.182 A 
ATOM     23  N   UNL     1      -0.459  10.488  -4.739  0.00  0.00    -0.224 N 
BRANCH  22  24
ATOM     24  C   UNL     1      -0.451  13.037  -4.679  0.00  0.00    +0.022 A 
ATOM     25  C   UNL     1       0.033  14.156  -4.000  0.00  0.00    +0.012 A 
ATOM     26  C   UNL     1      -0.104  15.410  -4.558  0.00  0.00    +0.002 A 
ATOM     27  C   UNL     1      -0.719  15.560  -5.788  0.00  0.00    +0.015 A 
ATOM     28  C   UNL     1      -1.201  14.454  -6.467  0.00  0.00    +0.019 A 
ATOM     29  C   UNL     1      -1.066  13.193  -5.922  0.00  0.00    +0.027 A 
ATOM     30 BR   UNL     1      -2.040  14.670  -8.148  0.00  0.00    -0.050 Br
ENDBRANCH  22  24
BRANCH  23  31
ATOM     31  N   UNL     1      -0.768  10.298  -6.056  0.00  0.00    -0.295 N 
ATOM     32  H   UNL     1      -0.923  11.165  -6.716  0.00  0.00    +0.163 HD
ATOM     33  H   UNL     1      -0.862   9.278  -6.457  0.00  0.00    +0.163 HD
ENDBRANCH  23  31
ENDBRANCH  18  19
ENDBRANCH   1  18
TORSDOF 6
