REMARK  Name = ZINC52906120
REMARK  5 active torsions:
REMARK  status: ('A' for Active; 'I' for Inactive)
REMARK    1  A    between atoms: C_1  and  C_2
REMARK    2  A    between atoms: C_2  and  N_3
REMARK    3  A    between atoms: N_3  and  C_4
REMARK    4  A    between atoms: N_3  and  C_14
REMARK    5  A    between atoms: C_9  and  C_10
REMARK                            x       y       z     vdW  Elec       q    Type
REMARK                         _______ _______ _______ _____ _____    ______ ____
ROOT
ATOM      1  N   UNL     1       0.446  -0.447   0.981  0.00  0.00    -0.327 N 
ENDROOT
BRANCH   1   2
ATOM      2  C   UNL     1       1.866  -0.189   0.733  0.00  0.00    +0.070 C 
ATOM      3  C   UNL     1       2.045   1.254   0.251  0.00  0.00    +0.006 C 
ATOM      4  C   UNL     1       3.514   1.468  -0.147  0.00  0.00    -0.070 C 
ATOM      5  C   UNL     1       4.398   0.918   0.996  0.00  0.00    -0.017 C 
ATOM      6  C   UNL     1       4.610  -0.571   0.651  0.00  0.00    -0.017 C 
ATOM      7  C   UNL     1       3.835  -0.785  -0.669  0.00  0.00    -0.070 C 
ATOM      8  C   UNL     1       2.381  -1.158  -0.336  0.00  0.00    +0.006 C 
ATOM      9  N   UNL     1       3.791   0.575  -1.304  0.00  0.00    +0.383 N 
ATOM     10  H   UNL     1       3.051   0.638  -1.987  0.00  0.00    -0.085 HD
ATOM     11  H   UNL     1       4.682   0.801  -1.721  0.00  0.00    -0.085 HD
ENDBRANCH   1   2
BRANCH   1  12
ATOM     12  C   UNL     1       0.018  -0.812   2.251  0.00  0.00    +0.044 A 
ATOM     13  C   UNL     1      -0.249   0.161   3.205  0.00  0.00    +0.024 A 
ATOM     14  C   UNL     1      -0.673  -0.203   4.466  0.00  0.00    +0.003 A 
ATOM     15  C   UNL     1      -0.836  -1.540   4.793  0.00  0.00    +0.021 A 
ATOM     16  C   UNL     1      -0.577  -2.522   3.860  0.00  0.00    +0.055 A 
ATOM     17  C   UNL     1      -0.151  -2.168   2.575  0.00  0.00    +0.076 A 
ATOM     18 CL   UNL     1      -0.782  -4.194   4.277  0.00  0.00    -0.083 Cl
BRANCH  17  19
ATOM     19  C   UNL     1       0.122  -3.211   1.571  0.00  0.00    +0.245 C 
ATOM     20  O   UNL     1       1.214  -3.745   1.532  0.00  0.00    -0.270 OA
ATOM     21  N   UNL     1      -0.837  -3.572   0.696  0.00  0.00    -0.325 N 
ATOM     22  H   UNL     1      -1.708  -3.146   0.727  0.00  0.00    +0.145 HD
ATOM     23  H   UNL     1      -0.657  -4.258   0.035  0.00  0.00    +0.145 HD
ENDBRANCH  17  19
ENDBRANCH   1  12
BRANCH   1  25
ATOM     24  C   UNL     1      -1.159   1.072  -0.068  0.00  0.00    +0.024 C 
ATOM     25  C   UNL     1      -0.524  -0.320  -0.110  0.00  0.00    +0.102 C 
ENDBRANCH   1  25
TORSDOF 4
