REMARK  Name = ZINC66908957
REMARK  7 active torsions:
REMARK  status: ('A' for Active; 'I' for Inactive)
REMARK    1  A    between atoms: C_1  and  N_2
REMARK    2  A    between atoms: C_3  and  C_5
REMARK    3  A    between atoms: C_5  and  N_6
REMARK    4  A    between atoms: C_9  and  N_12
REMARK    5  A    between atoms: N_15  and  C_16
REMARK    6  A    between atoms: C_16  and  C_17
REMARK    7  A    between atoms: C_17  and  O_27
REMARK                            x       y       z     vdW  Elec       q    Type
REMARK                         _______ _______ _______ _____ _____    ______ ____
ROOT
ATOM      1  N   UNL     1      -6.041  -4.870   0.619  0.00  0.00    -0.297 N 
ATOM      2  C   UNL     1      -6.394  -6.064   1.136  0.00  0.00    +0.300 C 
ATOM      3  O   UNL     1      -5.554  -6.775   1.652  0.00  0.00    -0.253 OA
ATOM      4  N   UNL     1      -7.678  -6.468   1.081  0.00  0.00    -0.296 N 
ATOM      5  H   UNL     1      -6.711  -4.302   0.208  0.00  0.00    +0.151 HD
ATOM      6  H   UNL     1      -8.349  -5.900   0.670  0.00  0.00    +0.150 HD
ENDROOT
BRANCH   1  10
ATOM      7  N   UNL     1      -2.453  -3.006  -0.571  0.00  0.00    +0.385 N 
ATOM      8  C   UNL     1      -3.125  -2.451   0.610  0.00  0.00    -0.076 C 
ATOM      9  C   UNL     1      -4.587  -2.901   0.628  0.00  0.00    +0.004 C 
ATOM     10  C   UNL     1      -4.645  -4.430   0.678  0.00  0.00    +0.071 C 
ATOM     11  C   UNL     1      -3.877  -4.999  -0.518  0.00  0.00    +0.004 C 
ATOM     12  C   UNL     1      -2.441  -4.472  -0.494  0.00  0.00    -0.076 C 
ATOM     13  H   UNL     1      -2.946  -2.718  -1.402  0.00  0.00    -0.081 HD
BRANCH   7  14
ATOM     14  C   UNL     1      -1.071  -2.509  -0.625  0.00  0.00    +0.019 C 
BRANCH  14  17
ATOM     15  C   UNL     1       0.069   1.114  -1.105  0.00  0.00    +0.128 C 
ATOM     16  N   UNL     1       0.080  -0.338  -0.909  0.00  0.00    -0.320 N 
ATOM     17  C   UNL     1      -1.083  -1.016  -0.828  0.00  0.00    +0.196 C 
ATOM     18  O   UNL     1      -2.137  -0.424  -0.917  0.00  0.00    -0.278 OA
ATOM     19  H   UNL     1       0.923  -0.811  -0.837  0.00  0.00    +0.148 HD
ENDBRANCH  14  17
ENDBRANCH   7  14
ENDBRANCH   1  10
BRANCH   4  20
ATOM     20  C   UNL     1      -8.062  -7.766   1.643  0.00  0.00    +0.145 C 
BRANCH  20  21
ATOM     21  C   UNL     1      -9.582  -7.923   1.571  0.00  0.00    +0.107 C 
ATOM     22  C   UNL     1     -10.244  -6.760   2.307  0.00  0.00    +0.041 C 
ATOM     23  C   UNL     1     -11.747  -7.047   2.413  0.00  0.00    +0.008 C 
ATOM     24  C   UNL     1     -11.949  -8.201   3.392  0.00  0.00    +0.035 C 
ATOM     25  C   UNL     1     -11.065  -9.365   3.028  0.00  0.00    -0.041 A 
ATOM     26  C   UNL     1      -9.976  -9.237   2.195  0.00  0.00    -0.011 A 
ATOM     27  C   UNL     1      -9.197 -10.349   1.904  0.00  0.00    +0.007 A 
ATOM     28  C   UNL     1      -9.508 -11.582   2.440  0.00  0.00    +0.000 A 
ATOM     29  C   UNL     1     -10.603 -11.712   3.273  0.00  0.00    +0.000 A 
ATOM     30  C   UNL     1     -11.377 -10.607   3.564  0.00  0.00    +0.004 A 
BRANCH  21  31
ATOM     31  O   UNL     1      -9.993  -7.909   0.203  0.00  0.00    -0.382 OA
ATOM     32  H   UNL     1      -9.605  -8.616  -0.331  0.00  0.00    +0.211 HD
ENDBRANCH  21  31
ENDBRANCH  20  21
ENDBRANCH   4  20
TORSDOF 6
