REMARK  Name = ZINC46767979
REMARK  8 active torsions:
REMARK  status: ('A' for Active; 'I' for Inactive)
REMARK    1  A    between atoms: C_3  and  C_6
REMARK    2  A    between atoms: C_8  and  C_11
REMARK    3  A    between atoms: C_11  and  C_12
REMARK    4  A    between atoms: C_12  and  C_13
REMARK    5  A    between atoms: C_13  and  C_14
REMARK    6  A    between atoms: N_16  and  C_17
REMARK    7  A    between atoms: C_19  and  C_26
REMARK    8  A    between atoms: C_21  and  C_23
REMARK                            x       y       z     vdW  Elec       q    Type
REMARK                         _______ _______ _______ _____ _____    ______ ____
ROOT
ATOM      1  C   UNL     1       9.705   0.523  -2.967  0.00  0.00    +0.217 C 
ATOM      2  O   UNL     1       8.946   0.780  -3.878  0.00  0.00    -0.275 OA
ATOM      3  N   UNL     1      10.956   0.097  -3.232  0.00  0.00    -0.285 N 
ATOM      4  H   UNL     1      11.584  -0.043  -2.506  0.00  0.00    +0.155 HD
ENDROOT
BRANCH   3   5
ATOM      5  C   UNL     1      11.349  -0.142  -4.554  0.00  0.00    +0.035 A 
ATOM      6  C   UNL     1      10.864   0.661  -5.576  0.00  0.00    +0.036 A 
ATOM      7  C   UNL     1      11.254   0.425  -6.895  0.00  0.00    +0.039 A 
ATOM      8  C   UNL     1      12.131  -0.618  -7.185  0.00  0.00    +0.026 A 
ATOM      9  C   UNL     1      12.616  -1.423  -6.156  0.00  0.00    +0.039 A 
ATOM     10  C   UNL     1      12.227  -1.178  -4.838  0.00  0.00    +0.036 A 
BRANCH   9  11
ATOM     11  C   UNL     1      13.546  -2.532  -6.459  0.00  0.00    +0.242 C 
ATOM     12  O   UNL     1      13.969  -3.233  -5.560  0.00  0.00    -0.270 OA
ATOM     13  N   UNL     1      13.926  -2.764  -7.731  0.00  0.00    -0.325 N 
ATOM     14  H   UNL     1      13.589  -2.204  -8.447  0.00  0.00    +0.145 HD
ATOM     15  H   UNL     1      14.536  -3.492  -7.929  0.00  0.00    +0.145 HD
ENDBRANCH   9  11
BRANCH   7  16
ATOM     16  C   UNL     1      10.737   1.281  -7.984  0.00  0.00    +0.242 C 
ATOM     17  O   UNL     1       9.972   2.191  -7.731  0.00  0.00    -0.270 OA
ATOM     18  N   UNL     1      11.114   1.053  -9.258  0.00  0.00    -0.325 N 
ATOM     19  H   UNL     1      11.725   0.327  -9.460  0.00  0.00    +0.145 HD
ATOM     20  H   UNL     1      10.775   1.614  -9.972  0.00  0.00    +0.145 HD
ENDBRANCH   7  16
ENDBRANCH   3   5
BRANCH   1  21
ATOM     21  C   UNL     1       9.249   0.681  -1.540  0.00  0.00    +0.096 C 
BRANCH  21  22
ATOM     22  C   UNL     1       7.800   1.174  -1.518  0.00  0.00    +0.019 C 
BRANCH  22  23
ATOM     23  C   UNL     1       7.337   1.334  -0.069  0.00  0.00    +0.099 C 
BRANCH  23  26
ATOM     24  C   UNL     1       3.741   1.827  -0.018  0.00  0.00    +0.209 A 
ATOM     25  N   UNL     1       4.851   1.064  -0.036  0.00  0.00    -0.191 NA
ATOM     26  C   UNL     1       5.911   1.820  -0.048  0.00  0.00    +0.228 A 
ATOM     27  O   UNL     1       5.521   3.101  -0.039  0.00  0.00    -0.338 OA
ATOM     28  N   UNL     1       4.101   3.089  -0.025  0.00  0.00    -0.056 NA
BRANCH  24  31
ATOM     29  C   UNL     1      -0.012   1.345   0.027  0.00  0.00    +0.008 A 
ATOM     30  C   UNL     1       1.178   2.035   0.012  0.00  0.00    +0.019 A 
ATOM     31  C   UNL     1       2.351   1.326  -0.001  0.00  0.00    +0.060 A 
ATOM     32  S   UNL     1       1.762  -0.359   0.008  0.00  0.00    -0.093 S 
ATOM     33  C   UNL     1       0.010  -0.014   0.029  0.00  0.00    +0.046 A 
ENDBRANCH  24  31
ENDBRANCH  23  26
ENDBRANCH  22  23
ENDBRANCH  21  22
ENDBRANCH   1  21
TORSDOF 8
