REMARK  Name = ZINC02559362
REMARK  6 active torsions:
REMARK  status: ('A' for Active; 'I' for Inactive)
REMARK    1  A    between atoms: C_1  and  O_2
REMARK    2  A    between atoms: O_2  and  C_3
REMARK    3  A    between atoms: C_8  and  O_9
REMARK    4  A    between atoms: C_15  and  O_22
REMARK    5  A    between atoms: C_16  and  O_21
REMARK    6  A    between atoms: O_22  and  C_23
REMARK                            x       y       z     vdW  Elec       q    Type
REMARK                         _______ _______ _______ _____ _____    ______ ____
ROOT
ATOM      1  C   UNL     1      -4.748   2.853  -3.931  0.00  0.00    +0.162 A 
ATOM      2  C   UNL     1      -3.777   3.590  -3.274  0.00  0.00    +0.058 A 
ATOM      3  C   UNL     1      -2.942   2.964  -2.353  0.00  0.00    -0.007 A 
ATOM      4  C   UNL     1      -3.093   1.606  -2.081  0.00  0.00    -0.037 A 
ATOM      5  C   UNL     1      -4.057   0.874  -2.742  0.00  0.00    +0.053 A 
ATOM      6  C   UNL     1      -4.885   1.493  -3.667  0.00  0.00    +0.159 A 
ATOM      7  C   UNL     1      -2.203   0.948  -1.061  0.00  0.00    +0.025 C 
ATOM      8  C   UNL     1      -0.791   1.527  -1.124  0.00  0.00    -0.036 C 
ATOM      9  C   UNL     1      -0.823   3.032  -1.051  0.00  0.00    -0.047 A 
ATOM     10  C   UNL     1      -1.865   3.723  -1.672  0.00  0.00    +0.030 A 
ATOM     11  C   UNL     1      -1.907   5.116  -1.638  0.00  0.00    +0.169 A 
ATOM     12  C   UNL     1      -0.907   5.812  -0.969  0.00  0.00    +0.159 A 
ATOM     13  C   UNL     1       0.121   5.119  -0.357  0.00  0.00    +0.053 A 
ATOM     14  C   UNL     1       0.172   3.731  -0.402  0.00  0.00    -0.043 A 
ATOM     15  C   UNL     1       1.333   3.045   0.260  0.00  0.00    +0.016 C 
ATOM     16  C   UNL     1       1.348   1.548  -0.003  0.00  0.00    -0.077 C 
ATOM     17  N   UNL     1      -0.015   0.999   0.014  0.00  0.00    +0.384 N 
ATOM     18  H   UNL     1       0.031  -0.025  -0.053  0.00  0.00    -0.085 HD
ATOM     19  H   UNL     1      -0.477   1.264   0.892  0.00  0.00    -0.085 HD
ENDROOT
BRANCH   1  21
ATOM     20  C   UNL     1      -5.370   4.856  -5.053  0.00  0.00    +0.277 C 
ATOM     21  O   UNL     1      -5.567   3.458  -4.833  0.00  0.00    -0.491 OA
ENDBRANCH   1  21
BRANCH   6  22
ATOM     22  O   UNL     1      -5.834   0.768  -4.319  0.00  0.00    -0.503 OA
ATOM     23  H   UNL     1      -6.688   0.741  -3.867  0.00  0.00    +0.292 HD
ENDBRANCH   6  22
BRANCH  12  24
ATOM     24  O   UNL     1      -0.939   7.171  -0.917  0.00  0.00    -0.503 OA
ATOM     25  H   UNL     1      -1.420   7.524  -0.156  0.00  0.00    +0.292 HD
ENDBRANCH  12  24
BRANCH  11  26
ATOM     26  O   UNL     1      -2.916   5.788  -2.253  0.00  0.00    -0.491 OA
ATOM     27  C   UNL     1      -4.083   6.061  -1.474  0.00  0.00    +0.277 C 
ENDBRANCH  11  26
TORSDOF 4
