REMARK  Name = ZINC04223163
REMARK  4 active torsions:
REMARK  status: ('A' for Active; 'I' for Inactive)
REMARK    1  A    between atoms: C_1  and  C_2
REMARK    2  A    between atoms: C_7  and  N_8
REMARK    3  A    between atoms: C_9  and  C_11
REMARK    4  A    between atoms: C_11  and  C_12
REMARK                            x       y       z     vdW  Elec       q    Type
REMARK                         _______ _______ _______ _____ _____    ______ ____
ROOT
ATOM      1  C   UNL     1       5.996   3.041   0.280  0.00  0.00    +0.025 C 
ATOM      2  C   UNL     1       7.284   3.814   0.242  0.00  0.00    +0.200 C 
ATOM      3  O   UNL     1       7.391   4.724  -0.553  0.00  0.00    -0.278 OA
ATOM      4  N   UNL     1       8.317   3.540   1.048  0.00  0.00    -0.315 N 
ATOM      5  C   UNL     1       8.262   2.494   2.061  0.00  0.00    +0.059 C 
ATOM      6  C   UNL     1       9.605   1.777   2.162  0.00  0.00    +0.020 C 
ATOM      7  C   UNL     1       9.908   1.021   0.867  0.00  0.00    +0.002 C 
ATOM      8  C   UNL     1       8.796   0.001   0.610  0.00  0.00    -0.001 C 
ATOM      9  C   UNL     1       7.464   0.736   0.456  0.00  0.00    -0.014 C 
ATOM     10  C   UNL     1       7.144   1.504   1.741  0.00  0.00    -0.050 C 
ATOM     11  H   UNL     1       9.133   4.056   0.954  0.00  0.00    +0.149 HD
ATOM     12  N   UNL     1       5.899   2.271   1.530  0.00  0.00    +0.390 N 
ATOM     13  H   UNL     1       5.104   1.623   1.470  0.00  0.00    -0.084 HD
ATOM     14  H   UNL     1       5.757   2.915   2.317  0.00  0.00    -0.084 HD
ENDROOT
BRANCH   1  15
ATOM     15  C   UNL     1       4.818   4.013   0.194  0.00  0.00    +0.089 C 
BRANCH  15  17
ATOM     16  N   UNL     1       2.355   3.889   0.001  0.00  0.00    -0.285 N 
ATOM     17  C   UNL     1       3.531   3.236   0.088  0.00  0.00    +0.216 C 
ATOM     18  O   UNL     1       3.554   2.024   0.082  0.00  0.00    -0.276 OA
ATOM     19  H   UNL     1       2.341   4.857  -0.060  0.00  0.00    +0.155 HD
BRANCH  16  26
ATOM     20  C   UNL     1       0.089   5.051   1.269  0.00  0.00    +0.045 C 
ATOM     21  C   UNL     1       0.025   3.700   0.605  0.00  0.00    -0.029 A 
ATOM     22  C   UNL     1      -1.159   2.987   0.600  0.00  0.00    +0.005 A 
ATOM     23  C   UNL     1      -1.220   1.750  -0.014  0.00  0.00    +0.000 A 
ATOM     24  C   UNL     1      -0.095   1.217  -0.616  0.00  0.00    +0.002 A 
ATOM     25  C   UNL     1       1.091   1.924  -0.614  0.00  0.00    +0.023 A 
ATOM     26  C   UNL     1       1.155   3.170  -0.003  0.00  0.00    +0.036 A 
ENDBRANCH  16  26
ENDBRANCH  15  17
ENDBRANCH   1  15
TORSDOF 3
