REMARK  Name = ZINC51994720
REMARK  5 active torsions:
REMARK  status: ('A' for Active; 'I' for Inactive)
REMARK    1  A    between atoms: C_3  and  N_21
REMARK    2  A    between atoms: C_4  and  S_8
REMARK    3  A    between atoms: S_8  and  N_11
REMARK    4  A    between atoms: N_11  and  C_12
REMARK    5  A    between atoms: C_18  and  O_20
REMARK                            x       y       z     vdW  Elec       q    Type
REMARK                         _______ _______ _______ _____ _____    ______ ____
ROOT
ATOM      1  S   UNL     1       3.643  -0.835  -1.245  0.00  0.00    +0.062 S 
ATOM      2  O   UNL     1       3.153  -2.093  -1.687  0.00  0.00    -0.153 OA
ATOM      3  O   UNL     1       4.295   0.078  -2.117  0.00  0.00    -0.153 OA
ENDROOT
BRANCH   1   7
ATOM      4  C   UNL     1       0.112   1.376   0.540  0.00  0.00    +0.003 A 
ATOM      5  C   UNL     1       0.089  -0.003   0.460  0.00  0.00    +0.025 A 
ATOM      6  C   UNL     1       1.169  -0.684  -0.086  0.00  0.00    +0.053 A 
ATOM      7  C   UNL     1       2.270   0.024  -0.551  0.00  0.00    +0.144 A 
ATOM      8  C   UNL     1       2.287   1.404  -0.468  0.00  0.00    +0.069 A 
ATOM      9  C   UNL     1       1.209   2.079   0.077  0.00  0.00    +0.022 A 
ATOM     10 CL   UNL     1       3.663   2.290  -1.048  0.00  0.00    -0.081 Cl
BRANCH   6  11
ATOM     11  N   UNL     1       1.148  -2.078  -0.168  0.00  0.00    -0.356 N 
ATOM     12  H   UNL     1       0.302  -2.552  -0.154  0.00  0.00    +0.142 HD
ATOM     13  H   UNL     1       1.980  -2.572  -0.238  0.00  0.00    +0.142 HD
ENDBRANCH   6  11
ENDBRANCH   1   7
BRANCH   1  14
ATOM     14  N   UNL     1       4.701  -1.147  -0.009  0.00  0.00    -0.184 NA
ATOM     15  H   UNL     1       5.579  -0.735  -0.007  0.00  0.00    +0.148 HD
BRANCH  14  16
ATOM     16  C   UNL     1       4.310  -2.045   1.081  0.00  0.00    +0.105 C 
ATOM     17  C   UNL     1       3.759  -1.222   2.247  0.00  0.00    +0.023 C 
ATOM     18  C   UNL     1       3.351  -2.159   3.385  0.00  0.00    +0.002 C 
ATOM     19  C   UNL     1       4.572  -2.955   3.853  0.00  0.00    +0.003 C 
ATOM     20  C   UNL     1       5.122  -3.778   2.687  0.00  0.00    +0.033 C 
ATOM     21  C   UNL     1       5.530  -2.840   1.549  0.00  0.00    +0.133 C 
BRANCH  21  22
ATOM     22  O   UNL     1       6.044  -3.609   0.459  0.00  0.00    -0.390 OA
ATOM     23  H   UNL     1       6.821  -4.139   0.684  0.00  0.00    +0.210 HD
ENDBRANCH  21  22
ENDBRANCH  14  16
ENDBRANCH   1  14
TORSDOF 5
