REMARK  Name = ZINC66634993
REMARK  4 active torsions:
REMARK  status: ('A' for Active; 'I' for Inactive)
REMARK    1  A    between atoms: N_6  and  C_12
REMARK    2  A    between atoms: C_12  and  C_13
REMARK    3  A    between atoms: N_15  and  C_16
REMARK    4  A    between atoms: C_19  and  C_22
REMARK                            x       y       z     vdW  Elec       q    Type
REMARK                         _______ _______ _______ _____ _____    ______ ____
ROOT
ATOM      1  C   UNL     1      -2.232  -1.213  -2.108  0.00  0.00    +0.231 C 
ATOM      2  O   UNL     1      -1.252  -1.879  -2.368  0.00  0.00    -0.274 OA
ATOM      3  N   UNL     1      -3.216  -1.077  -3.020  0.00  0.00    -0.311 N 
ATOM      4  H   UNL     1      -3.999  -0.545  -2.812  0.00  0.00    +0.149 HD
ENDROOT
BRANCH   3   5
ATOM      5  C   UNL     1      -3.101  -1.734  -4.324  0.00  0.00    +0.073 C 
ATOM      6  C   UNL     1      -2.298  -0.844  -5.275  0.00  0.00    +0.023 C 
ATOM      7  C   UNL     1      -2.179  -1.530  -6.637  0.00  0.00    +0.014 C 
ATOM      8  C   UNL     1      -3.576  -1.762  -7.215  0.00  0.00    +0.075 C 
ATOM      9  C   UNL     1      -4.379  -2.653  -6.265  0.00  0.00    +0.014 C 
ATOM     10  C   UNL     1      -4.499  -1.967  -4.902  0.00  0.00    +0.023 C 
BRANCH   8  11
ATOM     11  C   UNL     1      -3.458  -2.438  -8.557  0.00  0.00    +0.214 C 
ATOM     12  O   UNL     1      -2.365  -2.707  -9.007  0.00  0.00    -0.276 OA
ATOM     13  N   UNL     1      -4.569  -2.744  -9.257  0.00  0.00    -0.329 N 
ATOM     14  H   UNL     1      -5.444  -2.529  -8.898  0.00  0.00    +0.145 HD
ATOM     15  H   UNL     1      -4.493  -3.178 -10.121  0.00  0.00    +0.145 HD
ENDBRANCH   8  11
ENDBRANCH   3   5
BRANCH   1  16
ATOM     16  C   UNL     1      -2.349  -0.537  -0.766  0.00  0.00    +0.209 C 
BRANCH  16  22
ATOM     17  C   UNL     1      -0.017   1.388   0.010  0.00  0.00    +0.031 A 
ATOM     18  C   UNL     1       1.151   2.075   0.002  0.00  0.00    +0.047 A 
ATOM     19  S   UNL     1       2.359   0.757  -0.018  0.00  0.00    -0.100 S 
ATOM     20  C   UNL     1       1.228  -0.605  -0.025  0.00  0.00    +0.011 A 
ATOM     21  C   UNL     1       0.002  -0.004   0.002  0.00  0.00    +0.047 A 
ATOM     22  N   UNL     1      -1.161  -0.837   0.037  0.00  0.00    -0.262 N 
ATOM     23  C   UNL     1      -1.105  -1.910   0.848  0.00  0.00    +0.220 C 
ATOM     24  O   UNL     1      -1.926  -2.796   0.734  0.00  0.00    -0.275 OA
ATOM     25  C   UNL     1      -0.034  -2.018   1.891  0.00  0.00    +0.097 C 
ATOM     26  C   UNL     1       1.241  -2.667   1.339  0.00  0.00    +0.014 C 
ATOM     27  C   UNL     1       1.502  -2.072  -0.062  0.00  0.00    +0.045 C 
ENDBRANCH  16  22
ENDBRANCH   1  16
TORSDOF 4
