REMARK  Name = ZINC38673220
REMARK  9 active torsions:
REMARK  status: ('A' for Active; 'I' for Inactive)
REMARK    1  A    between atoms: C_1  and  C_2
REMARK    2  A    between atoms: C_4  and  C_33
REMARK    3  A    between atoms: C_6  and  N_8
REMARK    4  A    between atoms: N_11  and  C_12
REMARK    5  A    between atoms: C_12  and  C_13
REMARK    6  A    between atoms: C_13  and  C_15
REMARK    7  A    between atoms: C_13  and  N_26
REMARK    8  A    between atoms: N_24  and  C_25
REMARK    9  A    between atoms: N_29  and  C_32
REMARK                            x       y       z     vdW  Elec       q    Type
REMARK                         _______ _______ _______ _____ _____    ______ ____
ROOT
ATOM      1  C   UNL     1       0.613  -3.084   7.115  0.00  0.00    +0.104 C 
ENDROOT
BRANCH   1   2
ATOM      2  C   UNL     1       0.961  -2.382   8.402  0.00  0.00    -0.028 A 
ATOM      3  C   UNL     1       2.222  -1.842   8.575  0.00  0.00    +0.007 A 
ATOM      4  C   UNL     1       2.541  -1.200   9.755  0.00  0.00    +0.024 A 
ATOM      5  C   UNL     1       1.594  -1.096  10.768  0.00  0.00    +0.033 A 
ATOM      6  C   UNL     1       0.329  -1.634  10.593  0.00  0.00    -0.026 A 
ATOM      7  C   UNL     1       0.017  -2.274   9.405  0.00  0.00    +0.010 A 
ATOM      8  C   UNL     1      -0.725  -1.532  11.664  0.00  0.00    +0.038 C 
ATOM      9  C   UNL     1      -0.081  -1.266  13.024  0.00  0.00    +0.024 C 
ATOM     10  C   UNL     1       0.873  -0.071  12.897  0.00  0.00    +0.105 C 
ATOM     11  N   UNL     1       1.939  -0.446  11.958  0.00  0.00    -0.333 N 
ATOM     12  C   UNL     1       3.340  -0.144  12.263  0.00  0.00    +0.129 C 
ENDBRANCH   1   2
BRANCH   1  13
ATOM     13  N   UNL     1       1.401  -4.318   7.002  0.00  0.00    -0.297 NA
ATOM     14  C   UNL     1       1.561  -4.962   8.313  0.00  0.00    +0.066 C 
ATOM     15  C   UNL     1       2.334  -6.272   8.144  0.00  0.00    -0.064 C 
ATOM     16  N   UNL     1       3.650  -5.991   7.553  0.00  0.00    +0.379 N 
ATOM     17  C   UNL     1       3.473  -5.371   6.233  0.00  0.00    -0.064 C 
ATOM     18  C   UNL     1       2.709  -4.054   6.387  0.00  0.00    +0.066 C 
ATOM     19  C   UNL     1       4.398  -7.247   7.407  0.00  0.00    -0.096 C 
ATOM     20  H   UNL     1       4.161  -5.363   8.154  0.00  0.00    -0.082 HD
ENDBRANCH   1  13
BRANCH   1  21
ATOM     21  C   UNL     1       0.930  -2.166   5.932  0.00  0.00    +0.129 C 
BRANCH  21  25
ATOM     22  N   UNL     1       0.506  -2.872   2.349  0.00  0.00    -0.269 N 
ATOM     23  C   UNL     1       0.842  -2.255   3.499  0.00  0.00    +0.304 C 
ATOM     24  O   UNL     1       1.396  -1.173   3.469  0.00  0.00    -0.253 OA
ATOM     25  N   UNL     1       0.565  -2.837   4.682  0.00  0.00    -0.297 N 
ATOM     26  H   UNL     1       0.012  -3.706   2.372  0.00  0.00    +0.156 HD
ATOM     27  H   UNL     1       0.123  -3.700   4.706  0.00  0.00    +0.150 HD
BRANCH  22  33
ATOM     28  C   UNL     1      -0.533  -1.989  -2.375  0.00  0.00    +0.044 C 
ATOM     29  C   UNL     1       0.385  -1.866  -1.186  0.00  0.00    -0.048 A 
ATOM     30  C   UNL     1       1.588  -1.196  -1.309  0.00  0.00    +0.006 A 
ATOM     31  C   UNL     1       2.433  -1.081  -0.221  0.00  0.00    -0.048 A 
ATOM     32  C   UNL     1       2.077  -1.635   0.993  0.00  0.00    +0.026 A 
ATOM     33  C   UNL     1       0.869  -2.309   1.120  0.00  0.00    +0.035 A 
ATOM     34  C   UNL     1       0.020  -2.417   0.027  0.00  0.00    +0.026 A 
ATOM     35  C   UNL     1       3.744  -0.350  -0.359  0.00  0.00    +0.044 C 
ENDBRANCH  22  33
ENDBRANCH  21  25
ENDBRANCH   1  21
TORSDOF 5
