REMARK  Name = ZINC00986142
REMARK  8 active torsions:
REMARK  status: ('A' for Active; 'I' for Inactive)
REMARK    1  A    between atoms: C_1  and  C_2
REMARK    2  A    between atoms: C_5  and  N_8
REMARK    3  A    between atoms: C_9  and  C_11
REMARK    4  A    between atoms: C_11  and  S_12
REMARK    5  A    between atoms: S_12  and  C_13
REMARK    6  A    between atoms: N_28  and  C_29
REMARK    7  A    between atoms: C_34  and  O_35
REMARK    8  A    between atoms: O_35  and  C_36
REMARK                            x       y       z     vdW  Elec       q    Type
REMARK                         _______ _______ _______ _____ _____    ______ ____
ROOT
ATOM      1  C   UNL     1       3.989  -6.564  -0.530  0.00  0.00    +0.198 A 
ATOM      2  N   UNL     1       2.869  -7.244  -0.518  0.00  0.00    -0.120 NA
ATOM      3  N   UNL     1       3.183  -8.602  -0.648  0.00  0.00    -0.109 NA
ATOM      4  C   UNL     1       4.488  -8.713  -0.729  0.00  0.00    +0.245 A 
ATOM      5  N   UNL     1       5.024  -7.453  -0.658  0.00  0.00    -0.249 N 
ATOM      6  C   UNL     1       6.389  -7.279  -0.718  0.00  0.00    +0.102 A 
ATOM      7  C   UNL     1       7.261  -8.350  -0.853  0.00  0.00    +0.075 A 
ATOM      8  C   UNL     1       8.693  -8.012  -0.904  0.00  0.00    -0.023 A 
ATOM      9  C   UNL     1       8.990  -6.705  -0.812  0.00  0.00    -0.004 A 
ATOM     10  S   UNL     1       7.416  -5.896  -0.661  0.00  0.00    -0.074 S 
ATOM     11  C   UNL     1      10.473  -6.457  -0.870  0.00  0.00    +0.043 C 
ATOM     12  C   UNL     1      11.109  -7.835  -0.581  0.00  0.00    +0.010 C 
ATOM     13  C   UNL     1       9.997  -8.798  -1.045  0.00  0.00    +0.037 C 
ATOM     14  C   UNL     1       6.648  -9.695  -0.928  0.00  0.00    +0.269 A 
ATOM     15  O   UNL     1       7.350 -10.683  -1.048  0.00  0.00    -0.266 OA
ATOM     16  N   UNL     1       5.311  -9.819  -0.864  0.00  0.00    -0.241 N 
ENDROOT
BRANCH  16  17
ATOM     17  C   UNL     1       4.737 -11.096  -0.934  0.00  0.00    +0.094 A 
ATOM     18  C   UNL     1       4.386 -11.634  -2.164  0.00  0.00    +0.030 A 
ATOM     19  C   UNL     1       3.820 -12.893  -2.231  0.00  0.00    +0.002 A 
ATOM     20  C   UNL     1       3.603 -13.620  -1.075  0.00  0.00    +0.004 A 
ATOM     21  C   UNL     1       3.951 -13.091   0.154  0.00  0.00    +0.048 A 
ATOM     22  C   UNL     1       4.523 -11.831   0.230  0.00  0.00    +0.144 A 
BRANCH  22  23
ATOM     23  O   UNL     1       4.871 -11.312   1.437  0.00  0.00    -0.493 OA
ATOM     24  C   UNL     1       4.622 -12.122   2.587  0.00  0.00    +0.277 C 
ENDBRANCH  22  23
ENDBRANCH  16  17
BRANCH   1  25
ATOM     25  S   UNL     1       4.139  -4.814  -0.398  0.00  0.00    -0.076 S 
BRANCH  25  26
ATOM     26  C   UNL     1       2.425  -4.236  -0.258  0.00  0.00    +0.173 C 
BRANCH  26  28
ATOM     27  N   UNL     1       1.237  -2.079  -0.020  0.00  0.00    -0.285 N 
ATOM     28  C   UNL     1       2.410  -2.734  -0.137  0.00  0.00    +0.227 C 
ATOM     29  O   UNL     1       3.452  -2.114  -0.144  0.00  0.00    -0.275 OA
ATOM     30  H   UNL     1       0.409  -2.578   0.062  0.00  0.00    +0.155 HD
BRANCH  27  35
ATOM     31  C   UNL     1       1.143   3.593  -0.015  0.00  0.00    +0.044 C 
ATOM     32  C   UNL     1       1.168   2.086  -0.017  0.00  0.00    -0.050 A 
ATOM     33  C   UNL     1       2.111   1.412  -0.771  0.00  0.00    +0.005 A 
ATOM     34  C   UNL     1       2.137   0.031  -0.774  0.00  0.00    +0.023 A 
ATOM     35  C   UNL     1       1.214  -0.680  -0.019  0.00  0.00    +0.033 A 
ATOM     36  C   UNL     1       0.268  -0.001   0.737  0.00  0.00    +0.023 A 
ATOM     37  C   UNL     1       0.248   1.380   0.736  0.00  0.00    +0.005 A 
ENDBRANCH  27  35
ENDBRANCH  26  28
ENDBRANCH  25  26
ENDBRANCH   1  25
TORSDOF 6
