REMARK  Name = ZINC24893444
REMARK  6 active torsions:
REMARK  status: ('A' for Active; 'I' for Inactive)
REMARK    1  A    between atoms: C_1  and  C_2
REMARK    2  A    between atoms: C_2  and  N_22
REMARK    3  A    between atoms: C_3  and  C_4
REMARK    4  A    between atoms: C_3  and  C_6
REMARK    5  A    between atoms: N_11  and  C_12
REMARK    6  A    between atoms: C_17  and  C_18
REMARK                            x       y       z     vdW  Elec       q    Type
REMARK                         _______ _______ _______ _____ _____    ______ ____
ROOT
ATOM      1  C   UNL     1       3.276   1.050  -0.106  0.00  0.00    +0.092 A 
ATOM      2  C   UNL     1       3.141   2.409  -0.124  0.00  0.00    +0.077 A 
ATOM      3  S   UNL     1       1.359   2.565  -0.143  0.00  0.00    -0.060 S 
ATOM      4  C   UNL     1       0.982   0.818  -0.116  0.00  0.00    +0.163 A 
ATOM      5  N   UNL     1       2.193   0.288  -0.102  0.00  0.00    -0.224 NA
ATOM      6  N   UNL     1      -0.252   0.187  -0.115  0.00  0.00    -0.293 N 
ATOM      7  H   UNL     1      -0.313  -0.902   0.025  0.00  0.00    +0.154 HD
ENDROOT
BRANCH   6   8
ATOM      8  C   UNL     1      -1.419   0.935  -0.293  0.00  0.00    +0.044 A 
ATOM      9  C   UNL     1      -1.389   2.106  -1.040  0.00  0.00    +0.024 A 
ATOM     10  C   UNL     1      -2.544   2.842  -1.214  0.00  0.00    +0.002 A 
ATOM     11  C   UNL     1      -3.730   2.415  -0.646  0.00  0.00    +0.001 A 
ATOM     12  C   UNL     1      -3.764   1.250   0.098  0.00  0.00    +0.014 A 
ATOM     13  C   UNL     1      -2.614   0.506   0.271  0.00  0.00    +0.076 A 
BRANCH  13  14
ATOM     14  C   UNL     1      -2.653  -0.767   1.077  0.00  0.00    +0.419 C 
ATOM     15  F   UNL     1      -3.955  -0.988   1.538  0.00  0.00    -0.166 F 
ATOM     16  F   UNL     1      -2.255  -1.841   0.273  0.00  0.00    -0.166 F 
ATOM     17  F   UNL     1      -1.785  -0.655   2.168  0.00  0.00    -0.166 F 
ENDBRANCH  13  14
ENDBRANCH   6   8
BRANCH   1  20
ATOM     18  C   UNL     1       4.132  -0.430   2.184  0.00  0.00    +0.060 C 
ATOM     19  C   UNL     1       5.008  -0.336   0.961  0.00  0.00    +0.002 C 
ATOM     20  C   UNL     1       4.626   0.433  -0.091  0.00  0.00    +0.092 C 
BRANCH  19  21
ATOM     21  N   UNL     1       6.191  -1.027   0.911  0.00  0.00    -0.419 NA
ATOM     22  H   UNL     1       6.687  -0.835  -0.052  0.00  0.00    +0.120 HD
ATOM     23  H   UNL     1       5.991  -2.104   1.012  0.00  0.00    +0.120 HD
ATOM     24  H   UNL     1       6.844  -0.696   1.732  0.00  0.00    +0.120 HD
ENDBRANCH  19  21
BRANCH  20  25
ATOM     25  C   UNL     1       5.524   0.648  -1.185  0.00  0.00    +0.103 C 
ATOM     26  N   UNL     1       6.237   0.819  -2.052  0.00  0.00    -0.191 NA
ENDBRANCH  20  25
ENDBRANCH   1  20
TORSDOF 5
