REMARK  Name = ZINC36595249
REMARK  17 active torsions:
REMARK  status: ('A' for Active; 'I' for Inactive)
REMARK    1  A    between atoms: C_1  and  C_2
REMARK    2  A    between atoms: C_5  and  C_7
REMARK    3  A    between atoms: C_7  and  N_8
REMARK    4  A    between atoms: N_8  and  C_9
REMARK    5  A    between atoms: C_9  and  C_11
REMARK    6  A    between atoms: C_9  and  C_18
REMARK    7  A    between atoms: C_15  and  O_17
REMARK    8  A    between atoms: N_20  and  C_21
REMARK    9  A    between atoms: C_21  and  C_22
REMARK   10  A    between atoms: C_21  and  C_23
REMARK   11  A    between atoms: C_21  and  C_24
REMARK   12  A    between atoms: C_24  and  C_25
REMARK   13  A    between atoms: C_25  and  C_26
REMARK   14  A    between atoms: C_25  and  C_27
REMARK   15  A    between atoms: C_25  and  C_28
REMARK   16  A    between atoms: C_29  and  C_31
REMARK   17  A    between atoms: C_36  and  O_37
REMARK                            x       y       z     vdW  Elec       q    Type
REMARK                         _______ _______ _______ _____ _____    ______ ____
ROOT
ATOM      1  C   UNL     1       3.255  -2.978  -1.221  0.00  0.00    +0.193 C 
ENDROOT
BRANCH   1   2
ATOM      2  C   UNL     1       2.453  -1.707  -1.327  0.00  0.00    -0.015 A 
ATOM      3  C   UNL     1       2.098  -1.017  -0.182  0.00  0.00    +0.006 A 
ATOM      4  C   UNL     1       1.362   0.150  -0.276  0.00  0.00    +0.004 A 
ATOM      5  C   UNL     1       0.978   0.628  -1.514  0.00  0.00    +0.045 A 
ATOM      6  C   UNL     1       1.332  -0.062  -2.663  0.00  0.00    +0.117 A 
ATOM      7  C   UNL     1       2.076  -1.229  -2.567  0.00  0.00    +0.051 A 
BRANCH   6   8
ATOM      8  O   UNL     1       0.956   0.407  -3.882  0.00  0.00    -0.507 OA
ATOM      9  H   UNL     1       1.595   1.010  -4.286  0.00  0.00    +0.292 HD
ENDBRANCH   6   8
ENDBRANCH   1   2
BRANCH   1  10
ATOM     10  C   UNL     1       4.725  -2.645  -1.215  0.00  0.00    +0.239 C 
ATOM     11  O   UNL     1       5.441  -3.079  -0.338  0.00  0.00    -0.273 OA
ATOM     12  N   UNL     1       5.243  -1.865  -2.185  0.00  0.00    -0.308 N 
ATOM     13  H   UNL     1       4.660  -1.462  -2.846  0.00  0.00    +0.149 HD
BRANCH  12  14
ATOM     14  C   UNL     1       6.688  -1.628  -2.239  0.00  0.00    +0.030 C 
ATOM     15  C   UNL     1       7.088  -0.660  -1.123  0.00  0.00    +0.031 C 
ATOM     16  C   UNL     1       7.430  -2.953  -2.056  0.00  0.00    +0.031 C 
BRANCH  14  17
ATOM     17  C   UNL     1       7.054  -1.021  -3.595  0.00  0.00    +0.031 C 
BRANCH  17  18
ATOM     18  C   UNL     1       6.326  -1.779  -4.706  0.00  0.00    -0.036 C 
ATOM     19  C   UNL     1       4.855  -1.358  -4.732  0.00  0.00    +0.010 C 
ATOM     20  C   UNL     1       6.973  -1.455  -6.054  0.00  0.00    +0.010 C 
ATOM     21  C   UNL     1       6.420  -3.284  -4.444  0.00  0.00    +0.010 C 
ENDBRANCH  17  18
ENDBRANCH  14  17
ENDBRANCH  12  14
ENDBRANCH   1  10
BRANCH   1  22
ATOM     22  N   UNL     1       2.907  -3.674   0.020  0.00  0.00    -0.275 N 
ATOM     23  C   UNL     1       1.643  -4.094   0.225  0.00  0.00    +0.251 C 
ATOM     24  O   UNL     1       1.304  -4.491   1.323  0.00  0.00    -0.270 OA
BRANCH  23  25
ATOM     25  C   UNL     1       0.669  -4.071  -0.883  0.00  0.00    +0.078 A 
ATOM     26  C   UNL     1       1.014  -3.501  -2.111  0.00  0.00    +0.017 A 
ATOM     27  C   UNL     1       0.100  -3.483  -3.142  0.00  0.00    +0.001 A 
ATOM     28  C   UNL     1      -1.161  -4.029  -2.967  0.00  0.00    +0.004 A 
ATOM     29  C   UNL     1      -1.515  -4.596  -1.760  0.00  0.00    +0.046 A 
ATOM     30  C   UNL     1      -0.606  -4.627  -0.712  0.00  0.00    +0.129 A 
BRANCH  30  31
ATOM     31  O   UNL     1      -0.951  -5.189   0.473  0.00  0.00    -0.506 OA
ATOM     32  H   UNL     1      -1.354  -4.571   1.099  0.00  0.00    +0.292 HD
ENDBRANCH  30  31
ENDBRANCH  23  25
BRANCH  22  33
ATOM     33  C   UNL     1       3.932  -3.913   1.038  0.00  0.00    +0.183 C 
BRANCH  33  38
ATOM     34  C   UNL     1       4.637  -8.908   1.105  0.00  0.00    +0.086 C 
ATOM     35  C   UNL     1       4.860  -7.440   0.846  0.00  0.00    +0.102 A 
ATOM     36  C   UNL     1       5.917  -6.906   0.208  0.00  0.00    +0.045 A 
ATOM     37  C   UNL     1       5.720  -5.506   0.189  0.00  0.00    +0.046 A 
ATOM     38  C   UNL     1       4.554  -5.269   0.816  0.00  0.00    +0.122 A 
ATOM     39  O   UNL     1       4.035  -6.444   1.207  0.00  0.00    -0.463 OA
ENDBRANCH  33  38
ENDBRANCH  22  33
ENDBRANCH   1  22
TORSDOF 11
