REMARK  Name = ZINC36598474
REMARK  19 active torsions:
REMARK  status: ('A' for Active; 'I' for Inactive)
REMARK    1  A    between atoms: C_1  and  C_2
REMARK    2  A    between atoms: C_5  and  C_7
REMARK    3  A    between atoms: C_7  and  N_8
REMARK    4  A    between atoms: N_8  and  C_9
REMARK    5  A    between atoms: C_9  and  C_11
REMARK    6  A    between atoms: C_9  and  C_18
REMARK    7  A    between atoms: C_14  and  O_17
REMARK    8  A    between atoms: N_20  and  C_21
REMARK    9  A    between atoms: C_21  and  C_22
REMARK   10  A    between atoms: C_21  and  C_23
REMARK   11  A    between atoms: C_21  and  C_24
REMARK   12  A    between atoms: C_24  and  C_25
REMARK   13  A    between atoms: C_25  and  C_26
REMARK   14  A    between atoms: C_25  and  C_27
REMARK   15  A    between atoms: C_25  and  C_28
REMARK   16  A    between atoms: C_29  and  C_31
REMARK   17  A    between atoms: C_31  and  C_32
REMARK   18  A    between atoms: C_32  and  C_34
REMARK   19  A    between atoms: C_32  and  C_35
REMARK                            x       y       z     vdW  Elec       q    Type
REMARK                         _______ _______ _______ _____ _____    ______ ____
ROOT
ATOM      1  C   UNL     1       4.460  -3.490  -3.013  0.00  0.00    +0.193 C 
ENDROOT
BRANCH   1   2
ATOM      2  C   UNL     1       3.725  -2.193  -3.234  0.00  0.00    -0.018 A 
ATOM      3  C   UNL     1       2.762  -1.783  -2.331  0.00  0.00    +0.009 A 
ATOM      4  C   UNL     1       2.086  -0.595  -2.532  0.00  0.00    +0.046 A 
ATOM      5  C   UNL     1       2.374   0.187  -3.641  0.00  0.00    +0.117 A 
ATOM      6  C   UNL     1       3.342  -0.226  -4.545  0.00  0.00    +0.046 A 
ATOM      7  C   UNL     1       4.018  -1.413  -4.337  0.00  0.00    +0.009 A 
BRANCH   5   8
ATOM      8  O   UNL     1       1.711   1.356  -3.841  0.00  0.00    -0.507 OA
ATOM      9  H   UNL     1       2.136   2.124  -3.435  0.00  0.00    +0.292 HD
ENDBRANCH   5   8
ENDBRANCH   1   2
BRANCH   1  10
ATOM     10  C   UNL     1       5.450  -3.320  -1.889  0.00  0.00    +0.239 C 
ATOM     11  O   UNL     1       5.251  -3.858  -0.820  0.00  0.00    -0.273 OA
ATOM     12  N   UNL     1       6.555  -2.572  -2.071  0.00  0.00    -0.308 N 
ATOM     13  H   UNL     1       6.714  -2.142  -2.926  0.00  0.00    +0.149 HD
BRANCH  12  14
ATOM     14  C   UNL     1       7.517  -2.407  -0.979  0.00  0.00    +0.030 C 
ATOM     15  C   UNL     1       6.948  -1.439   0.060  0.00  0.00    +0.031 C 
ATOM     16  C   UNL     1       7.780  -3.764  -0.322  0.00  0.00    +0.031 C 
BRANCH  14  17
ATOM     17  C   UNL     1       8.828  -1.847  -1.533  0.00  0.00    +0.031 C 
BRANCH  17  18
ATOM     18  C   UNL     1       9.116  -2.477  -2.898  0.00  0.00    -0.036 C 
ATOM     19  C   UNL     1       8.318  -1.742  -3.977  0.00  0.00    +0.010 C 
ATOM     20  C   UNL     1      10.610  -2.368  -3.205  0.00  0.00    +0.010 C 
ATOM     21  C   UNL     1       8.706  -3.951  -2.875  0.00  0.00    +0.010 C 
ENDBRANCH  17  18
ENDBRANCH  14  17
ENDBRANCH  12  14
ENDBRANCH   1  10
BRANCH   1  22
ATOM     22  N   UNL     1       3.502  -4.542  -2.665  0.00  0.00    -0.279 N 
ATOM     23  C   UNL     1       2.413  -4.742  -3.434  0.00  0.00    +0.217 C 
ATOM     24  O   UNL     1       2.227  -4.051  -4.413  0.00  0.00    -0.276 OA
BRANCH  22  25
ATOM     25  C   UNL     1       3.727  -5.376  -1.482  0.00  0.00    +0.183 C 
BRANCH  25  30
ATOM     26  C   UNL     1       2.450  -2.585   2.521  0.00  0.00    +0.086 C 
ATOM     27  C   UNL     1       2.384  -3.611   1.419  0.00  0.00    +0.102 A 
ATOM     28  C   UNL     1       1.360  -4.453   1.188  0.00  0.00    +0.045 A 
ATOM     29  C   UNL     1       1.718  -5.235   0.066  0.00  0.00    +0.046 A 
ATOM     30  C   UNL     1       2.939  -4.825  -0.322  0.00  0.00    +0.122 A 
ATOM     31  O   UNL     1       3.335  -3.837   0.498  0.00  0.00    -0.463 OA
ENDBRANCH  25  30
ENDBRANCH  22  25
BRANCH  23  32
ATOM     32  C   UNL     1       1.427  -5.824  -3.076  0.00  0.00    +0.104 C 
BRANCH  32  33
ATOM     33  C   UNL     1       0.292  -5.839  -4.103  0.00  0.00    +0.025 C 
ATOM     34  C   UNL     1       0.849  -6.235  -5.472  0.00  0.00    +0.013 C 
BRANCH  33  35
ATOM     35  C   UNL     1      -0.755  -6.837  -3.679  0.00  0.00    -0.044 A 
ATOM     36  C   UNL     1      -0.419  -8.169  -3.526  0.00  0.00    +0.004 A 
ATOM     37  C   UNL     1      -1.380  -9.083  -3.137  0.00  0.00    +0.000 A 
ATOM     38  C   UNL     1      -2.676  -8.666  -2.901  0.00  0.00    +0.000 A 
ATOM     39  C   UNL     1      -3.012  -7.334  -3.054  0.00  0.00    +0.000 A 
ATOM     40  C   UNL     1      -2.050  -6.418  -3.438  0.00  0.00    +0.004 A 
ENDBRANCH  33  35
ENDBRANCH  32  33
ENDBRANCH  23  32
ENDBRANCH   1  22
TORSDOF 12
