REMARK  Name = ZINC20763664
REMARK  9 active torsions:
REMARK  status: ('A' for Active; 'I' for Inactive)
REMARK    1  A    between atoms: C_1  and  C_2
REMARK    2  A    between atoms: C_2  and  O_3
REMARK    3  A    between atoms: O_3  and  C_4
REMARK    4  A    between atoms: C_8  and  C_11
REMARK    5  A    between atoms: C_9  and  O_10
REMARK    6  A    between atoms: C_14  and  C_26
REMARK    7  A    between atoms: C_16  and  C_19
REMARK    8  A    between atoms: C_30  and  O_32
REMARK    9  A    between atoms: O_32  and  C_33
REMARK                            x       y       z     vdW  Elec       q    Type
REMARK                         _______ _______ _______ _____ _____    ______ ____
ROOT
ATOM      1  C   UNL     1       2.319  -6.173  -3.189  0.00  0.00    -0.028 C 
ATOM      2  C   UNL     1       2.021  -4.700  -3.485  0.00  0.00    +0.044 C 
ATOM      3  C   UNL     1       1.343  -4.077  -2.296  0.00  0.00    +0.040 C 
ATOM      4  N   UNL     1       0.822  -4.763  -1.350  0.00  0.00    -0.299 NA
ATOM      5  C   UNL     1       0.817  -6.219  -1.302  0.00  0.00    +0.081 C 
ATOM      6  N   UNL     1       1.102  -6.784  -2.627  0.00  0.00    +0.401 N 
ATOM      7  H   UNL     1       0.250  -6.585  -3.294  0.00  0.00    -0.081 HD
ATOM      8  H   UNL     1       1.247  -7.870  -2.532  0.00  0.00    -0.081 HD
ENDROOT
BRANCH   5   9
ATOM      9  C   UNL     1       1.870  -6.682  -0.329  0.00  0.00    -0.040 A 
ATOM     10  C   UNL     1       2.481  -7.910  -0.504  0.00  0.00    +0.005 A 
ATOM     11  C   UNL     1       3.451  -8.333   0.386  0.00  0.00    +0.015 A 
ATOM     12  C   UNL     1       3.801  -7.532   1.458  0.00  0.00    +0.018 A 
ATOM     13  C   UNL     1       3.186  -6.306   1.636  0.00  0.00    +0.015 A 
ATOM     14  C   UNL     1       2.220  -5.882   0.743  0.00  0.00    +0.005 A 
ATOM     15 BR   UNL     1       5.122  -8.113   2.681  0.00  0.00    -0.050 Br
ENDBRANCH   5   9
BRANCH   1  20
ATOM     16  C   UNL     1       4.363  -7.499  -6.086  0.00  0.00    +0.162 A 
ATOM     17  C   UNL     1       3.398  -8.182  -6.809  0.00  0.00    +0.049 A 
ATOM     18  C   UNL     1       2.091  -8.213  -6.359  0.00  0.00    +0.004 A 
ATOM     19  C   UNL     1       1.744  -7.568  -5.187  0.00  0.00    +0.006 A 
ATOM     20  C   UNL     1       2.701  -6.880  -4.464  0.00  0.00    -0.016 A 
ATOM     21  C   UNL     1       4.013  -6.845  -4.909  0.00  0.00    +0.160 A 
BRANCH  21  22
ATOM     22  O   UNL     1       4.957  -6.173  -4.196  0.00  0.00    -0.503 OA
ATOM     23  H   UNL     1       4.679  -5.657  -3.265  0.00  0.00    +0.292 HD
ENDBRANCH  21  22
BRANCH  16  24
ATOM     24  O   UNL     1       5.649  -7.467  -6.527  0.00  0.00    -0.489 OA
BRANCH  24  26
ATOM     25  C   UNL     1       7.421  -8.013  -8.077  0.00  0.00    +0.048 C 
ATOM     26  C   UNL     1       5.935  -8.161  -7.743  0.00  0.00    +0.226 C 
ENDBRANCH  24  26
ENDBRANCH  16  24
ENDBRANCH   1  20
BRANCH   3  27
ATOM     27  C   UNL     1       1.281  -2.604  -2.214  0.00  0.00    -0.001 A 
ATOM     28  C   UNL     1       1.843  -1.821  -3.224  0.00  0.00    +0.010 A 
ATOM     29  C   UNL     1       1.784  -0.445  -3.144  0.00  0.00    +0.004 A 
ATOM     30  C   UNL     1       1.163   0.163  -2.068  0.00  0.00    +0.045 A 
ATOM     31  C   UNL     1       0.606  -0.607  -1.056  0.00  0.00    +0.121 A 
ATOM     32  C   UNL     1       0.660  -1.989  -1.126  0.00  0.00    +0.055 A 
BRANCH  31  33
ATOM     33  O   UNL     1       0.002  -0.004   0.002  0.00  0.00    -0.495 OA
ATOM     34  C   UNL     1      -0.017   1.425   0.010  0.00  0.00    +0.277 C 
ENDBRANCH  31  33
ENDBRANCH   3  27
TORSDOF 7
