REMARK  Name = ZINC47550435
REMARK  9 active torsions:
REMARK  status: ('A' for Active; 'I' for Inactive)
REMARK    1  A    between atoms: C_1  and  C_2
REMARK    2  A    between atoms: C_2  and  C_4
REMARK    3  A    between atoms: C_2  and  N_7
REMARK    4  A    between atoms: C_4  and  C_5
REMARK    5  A    between atoms: C_4  and  C_6
REMARK    6  A    between atoms: N_7  and  C_8
REMARK    7  A    between atoms: N_7  and  C_15
REMARK    8  A    between atoms: C_8  and  C_9
REMARK    9  A    between atoms: C_15  and  C_16
REMARK                            x       y       z     vdW  Elec       q    Type
REMARK                         _______ _______ _______ _____ _____    ______ ____
ROOT
ATOM      1  N   UNL     1      -0.038  -0.136  -1.282  0.00  0.00    +0.393 N 
ATOM      2  H   UNL     1       0.764   0.474  -1.238  0.00  0.00    -0.080 HD
ENDROOT
BRANCH   1   4
ATOM      3  C   UNL     1      -2.109  -0.822  -0.168  0.00  0.00    -0.013 C 
ATOM      4  C   UNL     1      -0.818  -0.009  -0.043  0.00  0.00    -0.068 C 
BRANCH   4   5
ATOM      5  C   UNL     1      -1.163   1.462   0.195  0.00  0.00    -0.031 C 
ATOM      6  C   UNL     1      -2.108   1.577   1.392  0.00  0.00    +0.005 C 
ATOM      7  C   UNL     1       0.120   2.247   0.479  0.00  0.00    +0.005 C 
ENDBRANCH   4   5
ENDBRANCH   1   4
BRANCH   1   8
ATOM      8  C   UNL     1       0.411  -1.526  -1.438  0.00  0.00    +0.020 C 
BRANCH   8   9
ATOM      9  C   UNL     1       1.412  -1.854  -0.360  0.00  0.00    +0.204 C 
ATOM     10  O   UNL     1       1.712  -1.017   0.463  0.00  0.00    -0.277 OA
ATOM     11  N   UNL     1       1.973  -3.079  -0.312  0.00  0.00    -0.242 N 
ATOM     12  C   UNL     1       2.868  -3.372   0.651  0.00  0.00    +0.303 C 
ATOM     13  O   UNL     1       3.170  -2.533   1.477  0.00  0.00    -0.253 OA
ATOM     14  N   UNL     1       3.429  -4.597   0.699  0.00  0.00    -0.313 N 
ATOM     15  H   UNL     1       1.733  -3.748  -0.972  0.00  0.00    +0.159 HD
ATOM     16  H   UNL     1       3.189  -5.267   0.040  0.00  0.00    +0.146 HD
ATOM     17  H   UNL     1       4.074  -4.808   1.393  0.00  0.00    +0.146 HD
ENDBRANCH   8   9
ENDBRANCH   1   8
BRANCH   1  18
ATOM     18  C   UNL     1      -0.876   0.240  -2.428  0.00  0.00    +0.020 C 
BRANCH  18  19
ATOM     19  C   UNL     1      -0.776   1.726  -2.659  0.00  0.00    +0.204 C 
ATOM     20  O   UNL     1       0.022   2.384  -2.027  0.00  0.00    -0.277 OA
ATOM     21  N   UNL     1      -1.573   2.322  -3.568  0.00  0.00    -0.242 N 
ATOM     22  C   UNL     1      -1.482   3.651  -3.774  0.00  0.00    +0.303 C 
ATOM     23  O   UNL     1      -0.682   4.311  -3.141  0.00  0.00    -0.253 OA
ATOM     24  N   UNL     1      -2.279   4.247  -4.683  0.00  0.00    -0.313 N 
ATOM     25  H   UNL     1      -2.211   1.795  -4.073  0.00  0.00    +0.159 HD
ATOM     26  H   UNL     1      -2.918   3.720  -5.188  0.00  0.00    +0.146 HD
ATOM     27  H   UNL     1      -2.214   5.204  -4.831  0.00  0.00    +0.146 HD
ENDBRANCH  18  19
ENDBRANCH   1  18
TORSDOF 6
