REMARK  Name = ZINC22322975
REMARK  13 active torsions:
REMARK  status: ('A' for Active; 'I' for Inactive)
REMARK    1  A    between atoms: C_1  and  C_2
REMARK    2  A    between atoms: C_5  and  S_8
REMARK    3  A    between atoms: S_8  and  N_11
REMARK    4  A    between atoms: N_11  and  C_12
REMARK    5  A    between atoms: N_11  and  C_29
REMARK    6  A    between atoms: C_12  and  C_13
REMARK    7  A    between atoms: N_15  and  C_16
REMARK    8  A    between atoms: C_25  and  O_27
REMARK    9  A    between atoms: O_27  and  C_28
REMARK   10  A    between atoms: C_31  and  O_37
REMARK   11  A    between atoms: C_34  and  O_35
REMARK   12  A    between atoms: O_35  and  C_36
REMARK   13  A    between atoms: O_37  and  C_38
REMARK                            x       y       z     vdW  Elec       q    Type
REMARK                         _______ _______ _______ _____ _____    ______ ____
ROOT
ATOM      1  N   UNL     1      -1.068   8.491  -0.679  0.00  0.00    -0.191 N 
ENDROOT
BRANCH   1   2
ATOM      2  C   UNL     1       0.329   8.562  -0.626  0.00  0.00    +0.097 A 
ATOM      3  C   UNL     1       1.036   9.130  -1.675  0.00  0.00    +0.074 A 
ATOM      4  C   UNL     1       2.419   9.205  -1.617  0.00  0.00    +0.122 A 
ATOM      5  C   UNL     1       3.096   8.702  -0.516  0.00  0.00    +0.049 A 
ATOM      6  C   UNL     1       2.394   8.130   0.529  0.00  0.00    +0.051 A 
ATOM      7  C   UNL     1       1.012   8.058   0.478  0.00  0.00    +0.143 A 
BRANCH   7   8
ATOM      8  O   UNL     1       0.321   7.495   1.507  0.00  0.00    -0.493 OA
ATOM      9  C   UNL     1       1.087   6.999   2.607  0.00  0.00    +0.277 C 
ENDBRANCH   7   8
BRANCH   4  10
ATOM     10  O   UNL     1       3.113   9.766  -2.643  0.00  0.00    -0.495 OA
ATOM     11  C   UNL     1       4.536   9.805  -2.519  0.00  0.00    +0.277 C 
ENDBRANCH   4  10
ENDBRANCH   1   2
BRANCH   1  12
ATOM     12  S   UNL     1      -1.985   9.668   0.038  0.00  0.00    +0.075 S 
ATOM     13  O   UNL     1      -1.170  10.830   0.112  0.00  0.00    -0.150 OA
ATOM     14  O   UNL     1      -3.244   9.661  -0.621  0.00  0.00    -0.150 OA
BRANCH  12  19
ATOM     15  C   UNL     1      -3.006   7.916   5.721  0.00  0.00    +0.044 C 
ATOM     16  C   UNL     1      -2.751   8.354   4.302  0.00  0.00    -0.050 A 
ATOM     17  C   UNL     1      -1.637   9.116   4.003  0.00  0.00    +0.005 A 
ATOM     18  C   UNL     1      -1.403   9.518   2.701  0.00  0.00    +0.029 A 
ATOM     19  C   UNL     1      -2.283   9.156   1.698  0.00  0.00    +0.109 A 
ATOM     20  C   UNL     1      -3.400   8.399   1.998  0.00  0.00    +0.029 A 
ATOM     21  C   UNL     1      -3.631   7.994   3.299  0.00  0.00    +0.005 A 
ENDBRANCH  12  19
ENDBRANCH   1  12
BRANCH   1  22
ATOM     22  C   UNL     1      -1.718   7.375  -1.370  0.00  0.00    +0.227 C 
BRANCH  22  23
ATOM     23  C   UNL     1      -1.838   6.203  -0.430  0.00  0.00    +0.233 C 
ATOM     24  O   UNL     1      -1.422   6.292   0.706  0.00  0.00    -0.274 OA
ATOM     25  N   UNL     1      -2.409   5.057  -0.851  0.00  0.00    -0.307 N 
ATOM     26  H   UNL     1      -2.787   4.976  -1.881  0.00  0.00    +0.149 HD
BRANCH  25  27
ATOM     27  C   UNL     1      -2.526   3.918   0.064  0.00  0.00    +0.103 C 
ATOM     28  C   UNL     1      -3.706   3.048  -0.364  0.00  0.00    +0.027 C 
ATOM     29  C   UNL     1      -3.681   1.758   0.465  0.00  0.00    +0.007 C 
ATOM     30  C   UNL     1      -2.486   0.921   0.016  0.00  0.00    +0.035 C 
ATOM     31  C   UNL     1      -1.227   1.748   0.017  0.00  0.00    -0.039 A 
ATOM     32  C   UNL     1      -1.245   3.125   0.036  0.00  0.00    -0.024 A 
ATOM     33  C   UNL     1      -0.049   3.831   0.027  0.00  0.00    +0.009 A 
ATOM     34  C   UNL     1       1.159   3.166   0.008  0.00  0.00    +0.046 A 
ATOM     35  C   UNL     1       1.180   1.779   0.000  0.00  0.00    +0.120 A 
ATOM     36  C   UNL     1      -0.013   1.076   0.008  0.00  0.00    +0.049 A 
BRANCH  35  37
ATOM     37  O   UNL     1       2.365   1.114  -0.014  0.00  0.00    -0.495 OA
ATOM     38  C   UNL     1       3.554   1.907  -0.021  0.00  0.00    +0.277 C 
ENDBRANCH  35  37
ENDBRANCH  25  27
ENDBRANCH  22  23
ENDBRANCH   1  22
TORSDOF 9
