REMARK  Name = ZINC43107145
REMARK  8 active torsions:
REMARK  status: ('A' for Active; 'I' for Inactive)
REMARK    1  A    between atoms: C_1  and  C_2
REMARK    2  A    between atoms: C_2  and  C_3
REMARK    3  A    between atoms: C_3  and  C_5
REMARK    4  A    between atoms: C_3  and  N_23
REMARK    5  A    between atoms: C_5  and  C_7
REMARK    6  A    between atoms: C_5  and  N_12
REMARK    7  A    between atoms: C_18  and  C_22
REMARK    8  A    between atoms: C_19  and  C_21
REMARK                            x       y       z     vdW  Elec       q    Type
REMARK                         _______ _______ _______ _____ _____    ______ ____
ROOT
ATOM      1  C   UNL     1       0.499  -2.046   1.198  0.00  0.00    +0.111 C 
ENDROOT
BRANCH   1   2
ATOM      2  N   UNL     1       1.202  -2.679   2.316  0.00  0.00    -0.324 N 
ATOM      3  C   UNL     1       2.528  -2.571   2.600  0.00  0.00    +0.200 A 
ATOM      4  N   UNL     1       2.816  -3.263   3.664  0.00  0.00    -0.236 NA
ATOM      5  C   UNL     1       1.693  -3.862   4.136  0.00  0.00    +0.089 A 
ATOM      6  C   UNL     1       0.641  -3.492   3.281  0.00  0.00    +0.069 A 
ATOM      7  C   UNL     1      -0.643  -3.959   3.524  0.00  0.00    +0.031 A 
ATOM      8  C   UNL     1      -0.877  -4.782   4.606  0.00  0.00    -0.045 A 
ATOM      9  C   UNL     1       0.161  -5.144   5.451  0.00  0.00    -0.045 A 
ATOM     10  C   UNL     1       1.433  -4.699   5.224  0.00  0.00    +0.033 A 
ATOM     11  C   UNL     1      -0.115  -6.043   6.629  0.00  0.00    +0.044 C 
ATOM     12  C   UNL     1      -2.271  -5.290   4.871  0.00  0.00    +0.044 C 
ENDBRANCH   1   2
BRANCH   1  13
ATOM     13  C   UNL     1       1.205  -2.375  -0.091  0.00  0.00    +0.011 A 
ATOM     14  C   UNL     1       0.729  -3.018  -1.185  0.00  0.00    +0.013 A 
ATOM     15  C   UNL     1       1.567  -3.211  -2.267  0.00  0.00    +0.008 A 
ATOM     16  C   UNL     1       2.840  -2.752  -2.203  0.00  0.00    +0.045 A 
ATOM     17  S   UNL     1       2.884  -2.013  -0.578  0.00  0.00    -0.100 S 
ENDBRANCH   1  13
BRANCH   1  18
ATOM     18  C   UNL     1       0.484  -0.529   1.399  0.00  0.00    -0.047 C 
BRANCH  18  19
ATOM     19  N   UNL     1       1.865  -0.027   1.438  0.00  0.00    +0.382 N 
ATOM     20  H   UNL     1       1.856   0.971   1.582  0.00  0.00    -0.090 HD
ATOM     21  H   UNL     1       2.363  -0.472   2.195  0.00  0.00    -0.090 HD
ATOM     22  H   UNL     1       2.324  -0.237   0.564  0.00  0.00    -0.090 HD
ENDBRANCH  18  19
BRANCH  18  24
ATOM     23  C   UNL     1      -0.388   1.634   0.503  0.00  0.00    +0.002 C 
ATOM     24  C   UNL     1      -0.266   0.132   0.240  0.00  0.00    -0.017 C 
ENDBRANCH  18  24
ENDBRANCH   1  18
TORSDOF 5
