REMARK  Name = ZINC40832907
REMARK  10 active torsions:
REMARK  status: ('A' for Active; 'I' for Inactive)
REMARK    1  A    between atoms: C_1  and  O_2
REMARK    2  A    between atoms: O_2  and  C_3
REMARK    3  A    between atoms: C_3  and  C_5
REMARK    4  A    between atoms: C_6  and  N_10
REMARK    5  A    between atoms: C_11  and  C_13
REMARK    6  A    between atoms: C_13  and  C_15
REMARK    7  A    between atoms: C_13  and  N_21
REMARK    8  A    between atoms: C_15  and  C_16
REMARK    9  A    between atoms: C_16  and  S_17
REMARK   10  A    between atoms: S_17  and  C_20
REMARK                            x       y       z     vdW  Elec       q    Type
REMARK                         _______ _______ _______ _____ _____    ______ ____
ROOT
ATOM      1  N   UNL     1      -3.667  -2.387   0.012  0.00  0.00    -0.286 N 
ATOM      2  C   UNL     1      -4.711  -3.234  -0.090  0.00  0.00    +0.203 C 
ATOM      3  O   UNL     1      -4.522  -4.432  -0.097  0.00  0.00    -0.277 OA
ATOM      4  H   UNL     1      -3.822  -1.433   0.093  0.00  0.00    +0.155 HD
ENDROOT
BRANCH   1   6
ATOM      5  C   UNL     1      -1.248  -2.047  -0.059  0.00  0.00    +0.117 A 
ATOM      6  C   UNL     1      -2.363  -2.883   0.001  0.00  0.00    +0.055 A 
ATOM      7  C   UNL     1      -2.088  -4.236   0.048  0.00  0.00    +0.032 A 
ATOM      8  C   UNL     1      -0.798  -4.645   0.034  0.00  0.00    +0.048 A 
ATOM      9  S   UNL     1       0.092  -3.223  -0.052  0.00  0.00    -0.088 S 
BRANCH   5  10
ATOM     10  C   UNL     1      -1.194  -0.635  -0.117  0.00  0.00    +0.347 C 
ATOM     11  O   UNL     1      -2.224   0.014  -0.113  0.00  0.00    -0.244 OA
BRANCH  10  13
ATOM     12  C   UNL     1      -0.022   1.421  -0.233  0.00  0.00    +0.280 C 
ATOM     13  O   UNL     1      -0.001  -0.007  -0.176  0.00  0.00    -0.464 OA
ENDBRANCH  10  13
ENDBRANCH   5  10
ENDBRANCH   1   6
BRANCH   2  14
ATOM     14  C   UNL     1      -6.113  -2.691  -0.194  0.00  0.00    +0.015 C 
BRANCH  14  15
ATOM     15  N   UNL     1      -7.072  -3.738   0.183  0.00  0.00    +0.386 N 
ATOM     16  H   UNL     1      -6.970  -4.527  -0.438  0.00  0.00    -0.089 HD
ATOM     17  H   UNL     1      -6.895  -4.031   1.132  0.00  0.00    -0.089 HD
ATOM     18  H   UNL     1      -8.011  -3.375   0.113  0.00  0.00    -0.089 HD
ENDBRANCH  14  15
BRANCH  14  19
ATOM     19  C   UNL     1      -6.383  -2.247  -1.633  0.00  0.00    +0.015 C 
BRANCH  19  20
ATOM     20  C   UNL     1      -7.758  -1.583  -1.713  0.00  0.00    +0.164 C 
BRANCH  20  21
ATOM     21  S   UNL     1      -8.078  -1.056  -3.419  0.00  0.00    -0.034 S 
ATOM     22  O   UNL     1      -7.144  -0.040  -3.757  0.00  0.00    -0.175 OA
ATOM     23  O   UNL     1      -8.166  -2.214  -4.238  0.00  0.00    -0.175 OA
ATOM     24  C   UNL     1      -9.726  -0.307  -3.305  0.00  0.00    +0.194 C 
ENDBRANCH  20  21
ENDBRANCH  19  20
ENDBRANCH  14  19
ENDBRANCH   2  14
TORSDOF 8
