REMARK  Name = ZINC22921857
REMARK  7 active torsions:
REMARK  status: ('A' for Active; 'I' for Inactive)
REMARK    1  A    between atoms: C_3  and  C_6
REMARK    2  A    between atoms: C_9  and  C_32
REMARK    3  A    between atoms: C_12  and  C_14
REMARK    4  A    between atoms: C_14  and  N_15
REMARK    5  A    between atoms: N_18  and  C_21
REMARK    6  A    between atoms: C_21  and  C_22
REMARK    7  A    between atoms: N_24  and  C_25
REMARK                            x       y       z     vdW  Elec       q    Type
REMARK                         _______ _______ _______ _____ _____    ______ ____
ROOT
ATOM      1  N   UNL     1       0.882  -4.846   1.467  0.00  0.00    -0.298 NA
ATOM      2  C   UNL     1       1.318  -4.633   0.080  0.00  0.00    +0.066 C 
ATOM      3  C   UNL     1       1.788  -3.186  -0.088  0.00  0.00    -0.063 C 
ATOM      4  N   UNL     1       0.691  -2.273   0.262  0.00  0.00    +0.387 N 
ATOM      5  C   UNL     1       0.256  -2.486   1.650  0.00  0.00    -0.063 C 
ATOM      6  C   UNL     1      -0.215  -3.933   1.818  0.00  0.00    +0.066 C 
ATOM      7  H   UNL     1      -0.160  -2.495  -0.399  0.00  0.00    -0.081 HD
ENDROOT
BRANCH   1   8
ATOM      8  C   UNL     1       0.494  -6.245   1.688  0.00  0.00    +0.182 C 
BRANCH   8  14
ATOM      9  C   UNL     1      -0.302  -8.071   5.010  0.00  0.00    +0.173 C 
ATOM     10  C   UNL     1      -0.687  -9.562   4.937  0.00  0.00    +0.090 C 
ATOM     11  C   UNL     1      -0.630  -9.882   3.461  0.00  0.00    +0.075 C 
ATOM     12  N   UNL     1      -0.295  -8.822   2.803  0.00  0.00    -0.180 NA
ATOM     13  N   UNL     1      -0.072  -7.704   3.604  0.00  0.00    -0.181 N 
ATOM     14  C   UNL     1       0.291  -6.483   3.162  0.00  0.00    +0.249 C 
ATOM     15  O   UNL     1       0.454  -5.576   3.951  0.00  0.00    -0.272 OA
BRANCH   9  18
ATOM     16  C   UNL     1       2.386  -7.411   7.444  0.00  0.00    +0.041 A 
ATOM     17  C   UNL     1       1.020  -7.418   7.078  0.00  0.00    +0.046 A 
ATOM     18  C   UNL     1       0.956  -7.887   5.819  0.00  0.00    +0.128 A 
ATOM     19  O   UNL     1       2.203  -8.170   5.408  0.00  0.00    -0.466 OA
ATOM     20  C   UNL     1       3.075  -7.878   6.387  0.00  0.00    +0.195 A 
ENDBRANCH   9  18
BRANCH  11  21
ATOM     21  C   UNL     1      -0.917 -11.191   2.866  0.00  0.00    +0.035 A 
ATOM     22  C   UNL     1      -0.895 -11.569   1.534  0.00  0.00    +0.017 A 
ATOM     23  C   UNL     1      -1.203 -12.872   1.220  0.00  0.00    +0.008 A 
ATOM     24  C   UNL     1      -1.525 -13.738   2.215  0.00  0.00    +0.046 A 
ATOM     25  S   UNL     1      -1.394 -12.712   3.670  0.00  0.00    -0.095 S 
ENDBRANCH  11  21
ENDBRANCH   8  14
ENDBRANCH   1   8
BRANCH   4  26
ATOM     26  C   UNL     1       1.079  -0.874   0.041  0.00  0.00    +0.019 C 
BRANCH  26  27
ATOM     27  C   UNL     1      -0.133   0.011   0.173  0.00  0.00    +0.201 C 
ATOM     28  O   UNL     1      -1.215  -0.476   0.426  0.00  0.00    -0.278 OA
ATOM     29  N   UNL     1      -0.016   1.344   0.009  0.00  0.00    -0.287 N 
ATOM     30  H   UNL     1       0.977   1.795  -0.132  0.00  0.00    +0.155 HD
BRANCH  29  31
ATOM     31  C   UNL     1      -1.159   2.153   0.019  0.00  0.00    +0.033 A 
ATOM     32  C   UNL     1      -2.358   1.669  -0.486  0.00  0.00    +0.026 A 
ATOM     33  C   UNL     1      -3.485   2.468  -0.472  0.00  0.00    +0.040 A 
ATOM     34  C   UNL     1      -3.417   3.754   0.037  0.00  0.00    +0.124 A 
ATOM     35  C   UNL     1      -2.220   4.240   0.536  0.00  0.00    +0.040 A 
ATOM     36  C   UNL     1      -1.092   3.443   0.528  0.00  0.00    +0.026 A 
ATOM     37  F   UNL     1      -4.519   4.535   0.046  0.00  0.00    -0.205 F 
ENDBRANCH  29  31
ENDBRANCH  26  27
ENDBRANCH   4  26
TORSDOF 7
