REMARK  Name = ZINC13424701
REMARK  11 active torsions:
REMARK  status: ('A' for Active; 'I' for Inactive)
REMARK    1  A    between atoms: C_3  and  O_38
REMARK    2  A    between atoms: C_4  and  O_37
REMARK    3  A    between atoms: C_6  and  C_7
REMARK    4  A    between atoms: C_13  and  O_36
REMARK    5  A    between atoms: C_15  and  O_19
REMARK    6  A    between atoms: O_19  and  C_20
REMARK    7  A    between atoms: C_22  and  O_35
REMARK    8  A    between atoms: C_24  and  O_34
REMARK    9  A    between atoms: C_26  and  O_33
REMARK   10  A    between atoms: C_28  and  C_31
REMARK   11  A    between atoms: C_31  and  O_32
REMARK                            x       y       z     vdW  Elec       q    Type
REMARK                         _______ _______ _______ _____ _____    ______ ____
ROOT
ATOM      1  C   UNL     1       2.447   4.220   0.001  0.00  0.00    +0.211 C 
ATOM      2  C   UNL     1       2.836   4.584   1.442  0.00  0.00    +0.129 C 
ATOM      3  C   UNL     1       4.123   5.385   1.370  0.00  0.00    +0.174 C 
ATOM      4  O   UNL     1       5.019   5.226   2.173  0.00  0.00    -0.292 OA
ATOM      5  C   UNL     1       4.229   6.362   0.280  0.00  0.00    +0.101 A 
ATOM      6  C   UNL     1       5.257   7.318   0.273  0.00  0.00    +0.134 A 
ATOM      7  C   UNL     1       5.340   8.220  -0.773  0.00  0.00    +0.092 A 
ATOM      8  C   UNL     1       4.411   8.178  -1.805  0.00  0.00    +0.131 A 
ATOM      9  C   UNL     1       3.390   7.237  -1.801  0.00  0.00    +0.092 A 
ATOM     10  C   UNL     1       3.286   6.326  -0.764  0.00  0.00    +0.139 A 
ATOM     11  O   UNL     1       2.284   5.415  -0.761  0.00  0.00    -0.483 OA
ENDROOT
BRANCH   1  17
ATOM     12  C   UNL     1      -0.053   4.125   0.025  0.00  0.00    +0.011 A 
ATOM     13  C   UNL     1      -1.244   3.422   0.033  0.00  0.00    +0.049 A 
ATOM     14  C   UNL     1      -1.230   2.037   0.019  0.00  0.00    +0.158 A 
ATOM     15  C   UNL     1      -0.016   1.356   0.009  0.00  0.00    +0.159 A 
ATOM     16  C   UNL     1       1.173   2.066   0.002  0.00  0.00    +0.056 A 
ATOM     17  C   UNL     1       1.152   3.449   0.010  0.00  0.00    -0.003 A 
BRANCH  15  18
ATOM     18  O   UNL     1       0.002  -0.004   0.002  0.00  0.00    -0.503 OA
ATOM     19  H   UNL     1       0.016  -0.402   0.883  0.00  0.00    +0.292 HD
ENDBRANCH  15  18
BRANCH  14  20
ATOM     20  O   UNL     1      -2.401   1.344   0.021  0.00  0.00    -0.503 OA
ATOM     21  H   UNL     1      -2.735   1.139   0.905  0.00  0.00    +0.292 HD
ENDBRANCH  14  20
ENDBRANCH   1  17
BRANCH   6  22
ATOM     22  O   UNL     1       6.161   7.357   1.283  0.00  0.00    -0.506 OA
ATOM     23  H   UNL     1       6.942   6.808   1.133  0.00  0.00    +0.292 HD
ENDBRANCH   6  22
BRANCH   8  24
ATOM     24  O   UNL     1       4.503   9.064  -2.828  0.00  0.00    -0.461 OA
BRANCH  24  25
ATOM     25  C   UNL     1       5.576  10.007  -2.775  0.00  0.00    +0.339 C 
ATOM     26  C   UNL     1       5.592  10.835  -4.063  0.00  0.00    +0.214 C 
ATOM     27  C   UNL     1       6.705  11.882  -3.973  0.00  0.00    +0.180 C 
ATOM     28  C   UNL     1       6.480  12.747  -2.729  0.00  0.00    +0.177 C 
ATOM     29  C   UNL     1       6.430  11.845  -1.493  0.00  0.00    +0.179 C 
ATOM     30  O   UNL     1       5.393  10.874  -1.655  0.00  0.00    -0.331 OA
BRANCH  28  31
ATOM     31  O   UNL     1       7.553  13.681  -2.595  0.00  0.00    -0.386 OA
ATOM     32  H   UNL     1       7.644  14.286  -3.345  0.00  0.00    +0.210 HD
ENDBRANCH  28  31
BRANCH  27  33
ATOM     33  O   UNL     1       7.971  11.227  -3.877  0.00  0.00    -0.386 OA
ATOM     34  H   UNL     1       8.180  10.661  -4.633  0.00  0.00    +0.210 HD
ENDBRANCH  27  33
BRANCH  26  35
ATOM     35  O   UNL     1       4.332  11.490  -4.225  0.00  0.00    -0.383 OA
ATOM     36  H   UNL     1       3.579  10.886  -4.284  0.00  0.00    +0.210 HD
ENDBRANCH  26  35
BRANCH  29  37
ATOM     37  C   UNL     1       6.145  12.694  -0.253  0.00  0.00    +0.190 C 
BRANCH  37  38
ATOM     38  O   UNL     1       6.212  11.871   0.914  0.00  0.00    -0.392 OA
ATOM     39  H   UNL     1       6.042  12.344   1.740  0.00  0.00    +0.210 HD
ENDBRANCH  37  38
ENDBRANCH  29  37
ENDBRANCH  24  25
ENDBRANCH   8  24
TORSDOF 11
