REMARK  Name = ZINC40794824
REMARK  8 active torsions:
REMARK  status: ('A' for Active; 'I' for Inactive)
REMARK    1  A    between atoms: C_1  and  C_2
REMARK    2  A    between atoms: C_5  and  S_8
REMARK    3  A    between atoms: S_8  and  N_11
REMARK    4  A    between atoms: N_11  and  N_12
REMARK    5  A    between atoms: C_14  and  N_31
REMARK    6  A    between atoms: C_15  and  N_19
REMARK    7  A    between atoms: N_19  and  C_20
REMARK    8  A    between atoms: C_28  and  C_30
REMARK                            x       y       z     vdW  Elec       q    Type
REMARK                         _______ _______ _______ _____ _____    ______ ____
ROOT
ATOM      1  N   UNL     1       3.198  -4.578   0.518  0.00  0.00    -0.244 N 
ATOM      2  C   UNL     1       3.704  -5.558   1.364  0.00  0.00    +0.159 A 
ATOM      3  C   UNL     1       4.401  -5.204   2.521  0.00  0.00    +0.107 A 
ATOM      4  C   UNL     1       4.888  -6.227   3.336  0.00  0.00    +0.149 A 
ATOM      5  N   UNL     1       4.670  -7.492   2.982  0.00  0.00    -0.219 NA
ATOM      6  C   UNL     1       4.008  -7.782   1.882  0.00  0.00    +0.225 A 
ATOM      7  N   UNL     1       3.527  -6.847   1.087  0.00  0.00    -0.218 NA
ATOM      8  H   UNL     1       3.331  -3.641   0.727  0.00  0.00    +0.169 HD
ENDROOT
BRANCH   3   9
ATOM      9  N   UNL     1       4.607  -3.856   2.855  0.00  0.00    -0.353 N 
ATOM     10  H   UNL     1       4.263  -3.155   2.279  0.00  0.00    +0.143 HD
ATOM     11  H   UNL     1       5.093  -3.625   3.662  0.00  0.00    +0.143 HD
ENDBRANCH   3   9
BRANCH   1  12
ATOM     12  N   UNL     1       2.495  -4.946  -0.637  0.00  0.00    -0.109 NA
ATOM     13  H   UNL     1       2.903  -5.542  -1.284  0.00  0.00    +0.172 HD
BRANCH  12  14
ATOM     14  S   UNL     1       0.967  -4.362  -0.898  0.00  0.00    +0.074 S 
ATOM     15  O   UNL     1       0.209  -4.678   0.262  0.00  0.00    -0.152 OA
ATOM     16  O   UNL     1       0.585  -4.790  -2.198  0.00  0.00    -0.152 OA
BRANCH  14  21
ATOM     17  C   UNL     1       1.366   1.655  -1.111  0.00  0.00    +0.044 C 
ATOM     18  C   UNL     1       1.266   0.152  -1.058  0.00  0.00    -0.050 A 
ATOM     19  C   UNL     1       1.403  -0.591  -2.215  0.00  0.00    +0.005 A 
ATOM     20  C   UNL     1       1.312  -1.970  -2.166  0.00  0.00    +0.029 A 
ATOM     21  C   UNL     1       1.085  -2.605  -0.960  0.00  0.00    +0.107 A 
ATOM     22  C   UNL     1       0.949  -1.862   0.198  0.00  0.00    +0.029 A 
ATOM     23  C   UNL     1       1.044  -0.484   0.150  0.00  0.00    +0.005 A 
ENDBRANCH  14  21
ENDBRANCH  12  14
ENDBRANCH   1  12
BRANCH   4  24
ATOM     24  N   UNL     1       5.589  -5.929   4.500  0.00  0.00    -0.297 N 
ATOM     25  H   UNL     1       5.663  -5.010   4.800  0.00  0.00    +0.154 HD
BRANCH  24  26
ATOM     26  C   UNL     1       6.185  -6.952   5.234  0.00  0.00    +0.042 A 
ATOM     27  C   UNL     1       6.563  -8.126   4.614  0.00  0.00    +0.024 A 
ATOM     28  C   UNL     1       7.159  -9.150   5.341  0.00  0.00    +0.004 A 
ATOM     29  C   UNL     1       7.386  -9.026   6.679  0.00  0.00    +0.026 A 
ATOM     30  C   UNL     1       7.017  -7.848   7.349  0.00  0.00    +0.048 A 
ATOM     31  C   UNL     1       6.414  -6.795   6.617  0.00  0.00    +0.020 A 
ATOM     32  C   UNL     1       6.051  -5.616   7.289  0.00  0.00    +0.013 A 
ATOM     33  C   UNL     1       6.303  -5.535   8.630  0.00  0.00    +0.021 A 
ATOM     34  C   UNL     1       6.904  -6.603   9.291  0.00  0.00    +0.013 A 
ATOM     35  N   UNL     1       7.231  -7.707   8.662  0.00  0.00    -0.358 N 
ATOM     36  C   UNL     1       7.173  -6.494  10.769  0.00  0.00    +0.063 C 
ATOM     37  H   UNL     1       7.647  -8.430   9.156  0.00  0.00    +0.166 HD
ENDBRANCH  24  26
ENDBRANCH   4  24
TORSDOF 6
