REMARK  Name = ZINC20873162
REMARK  14 active torsions:
REMARK  status: ('A' for Active; 'I' for Inactive)
REMARK    1  A    between atoms: C_1  and  C_2
REMARK    2  A    between atoms: C_2  and  C_3
REMARK    3  A    between atoms: C_2  and  C_4
REMARK    4  A    between atoms: C_2  and  N_5
REMARK    5  A    between atoms: C_6  and  C_8
REMARK    6  A    between atoms: C_8  and  O_9
REMARK    7  A    between atoms: O_9  and  C_10
REMARK    8  A    between atoms: C_15  and  C_16
REMARK    9  A    between atoms: C_16  and  N_17
REMARK   10  A    between atoms: N_17  and  C_18
REMARK   11  A    between atoms: C_18  and  C_19
REMARK   12  A    between atoms: C_18  and  C_20
REMARK   13  A    between atoms: C_18  and  C_21
REMARK   14  A    between atoms: C_21  and  O_22
REMARK                            x       y       z     vdW  Elec       q    Type
REMARK                         _______ _______ _______ _____ _____    ______ ____
ROOT
ATOM      1  C   UNL     1       1.179   1.786   0.000  0.00  0.00    +0.123 A 
ATOM      2  C   UNL     1      -0.013   1.076   0.008  0.00  0.00    +0.047 A 
ATOM      3  C   UNL     1      -1.218   1.751   0.017  0.00  0.00    +0.019 A 
ATOM      4  C   UNL     1      -1.237   3.134   0.030  0.00  0.00    +0.018 A 
ATOM      5  C   UNL     1      -0.050   3.844   0.023  0.00  0.00    +0.020 A 
ATOM      6  C   UNL     1       1.158   3.173   0.008  0.00  0.00    -0.022 A 
ATOM      7 BR   UNL     1      -2.888   4.055   0.050  0.00  0.00    -0.050 Br
ENDROOT
BRANCH   1   8
ATOM      8  O   UNL     1       2.366   1.124  -0.015  0.00  0.00    -0.483 OA
BRANCH   8   9
ATOM      9  C   UNL     1       2.312  -0.304  -0.023  0.00  0.00    +0.324 C 
BRANCH   9  11
ATOM     10  N   UNL     1       3.909  -2.192  -0.049  0.00  0.00    -0.308 N 
ATOM     11  C   UNL     1       3.713  -0.859  -0.040  0.00  0.00    +0.251 C 
ATOM     12  O   UNL     1       4.664  -0.106  -0.044  0.00  0.00    -0.272 OA
ATOM     13  H   UNL     1       3.047  -2.875  -0.045  0.00  0.00    +0.149 HD
BRANCH  10  15
ATOM     14  C   UNL     1       6.023  -2.257   1.179  0.00  0.00    +0.031 C 
ATOM     15  C   UNL     1       5.271  -2.732  -0.066  0.00  0.00    +0.026 C 
ATOM     16  C   UNL     1       5.214  -4.261  -0.074  0.00  0.00    +0.031 C 
ATOM     17  C   UNL     1       5.999  -2.243  -1.319  0.00  0.00    +0.031 C 
ENDBRANCH  10  15
ENDBRANCH   9  11
ENDBRANCH   8   9
ENDBRANCH   1   8
BRANCH   6  18
ATOM     18  C   UNL     1       2.450   3.947   0.000  0.00  0.00    -0.042 C 
BRANCH  18  19
ATOM     19  N   UNL     1       2.982   4.000  -1.368  0.00  0.00    +0.387 N 
ATOM     20  H   UNL     1       3.164   2.978  -1.730  0.00  0.00    -0.085 HD
ATOM     21  H   UNL     1       2.253   4.497  -2.026  0.00  0.00    -0.085 HD
BRANCH  19  22
ATOM     22  C   UNL     1       4.245   4.749  -1.414  0.00  0.00    -0.050 C 
ATOM     23  C   UNL     1       4.008   6.179  -0.925  0.00  0.00    -0.008 C 
ATOM     24  C   UNL     1       5.276   4.066  -0.514  0.00  0.00    -0.008 C 
BRANCH  22  25
ATOM     25  C   UNL     1       4.766   4.782  -2.853  0.00  0.00    +0.143 C 
BRANCH  25  26
ATOM     26  O   UNL     1       5.994   5.511  -2.897  0.00  0.00    -0.396 OA
ATOM     27  H   UNL     1       6.521   5.641  -3.854  0.00  0.00    +0.209 HD
ENDBRANCH  25  26
ENDBRANCH  22  25
ENDBRANCH  19  22
ENDBRANCH  18  19
ENDBRANCH   6  18
TORSDOF 9
