REMARK  Name = ZINC19323015
REMARK  13 active torsions:
REMARK  status: ('A' for Active; 'I' for Inactive)
REMARK    1  A    between atoms: C_1  and  C_2
REMARK    2  A    between atoms: C_6  and  C_27
REMARK    3  A    between atoms: C_7  and  O_8
REMARK    4  A    between atoms: C_12  and  C_13
REMARK    5  A    between atoms: C_13  and  C_15
REMARK    6  A    between atoms: C_13  and  O_26
REMARK    7  A    between atoms: C_15  and  C_17
REMARK    8  A    between atoms: C_15  and  O_25
REMARK    9  A    between atoms: C_17  and  C_19
REMARK   10  A    between atoms: C_17  and  O_24
REMARK   11  A    between atoms: C_19  and  C_21
REMARK   12  A    between atoms: C_19  and  O_23
REMARK   13  A    between atoms: C_21  and  O_22
REMARK                            x       y       z     vdW  Elec       q    Type
REMARK                         _______ _______ _______ _____ _____    ______ ____
ROOT
ATOM      1  C   UNL     1      -0.050   1.539  -0.032  0.00  0.00    +0.013 C 
ATOM      2  C   UNL     1      -0.030   0.009  -0.024  0.00  0.00    -0.008 C 
ATOM      3  C   UNL     1       0.722  -0.513  -1.253  0.00  0.00    -0.066 C 
ATOM      4  N   UNL     1       0.712  -1.979  -1.250  0.00  0.00    +0.393 N 
ATOM      5  C   UNL     1       1.418  -2.488  -0.069  0.00  0.00    -0.066 C 
ATOM      6  C   UNL     1       0.691  -2.034   1.201  0.00  0.00    -0.008 C 
ATOM      7  C   UNL     1       0.677  -0.500   1.239  0.00  0.00    +0.125 C 
ATOM      8  C   UNL     1      -0.757  -2.537   1.143  0.00  0.00    +0.090 C 
ATOM      9  N   UNL     1      -1.390  -2.018  -0.079  0.00  0.00    -0.312 NA
ATOM     10  C   UNL     1      -1.463  -0.535  -0.036  0.00  0.00    +0.090 C 
ATOM     11  C   UNL     1      -0.666  -2.478  -1.272  0.00  0.00    +0.034 C 
ATOM     12  C   UNL     1       1.403  -2.583   2.438  0.00  0.00    +0.013 C 
ATOM     13  H   UNL     1       1.193  -2.310  -2.073  0.00  0.00    -0.079 HD
ENDROOT
BRANCH   7  14
ATOM     14  O   UNL     1      -0.019  -0.041   2.399  0.00  0.00    -0.391 OA
ATOM     15  H   UNL     1       0.376  -0.327   3.234  0.00  0.00    +0.210 HD
ENDBRANCH   7  14
BRANCH  11  16
ATOM     16  C   UNL     1      -0.651  -4.007  -1.299  0.00  0.00    +0.146 C 
BRANCH  16  17
ATOM     17  O   UNL     1      -1.994  -4.497  -1.292  0.00  0.00    -0.390 OA
ATOM     18  H   UNL     1      -2.504  -4.258  -2.078  0.00  0.00    +0.210 HD
ENDBRANCH  16  17
BRANCH  16  19
ATOM     19  C   UNL     1       0.060  -4.488  -2.566  0.00  0.00    +0.173 C 
BRANCH  19  20
ATOM     20  O   UNL     1      -0.562  -3.904  -3.712  0.00  0.00    -0.387 OA
ATOM     21  H   UNL     1      -1.498  -4.127  -3.808  0.00  0.00    +0.210 HD
ENDBRANCH  19  20
BRANCH  19  22
ATOM     22  C   UNL     1      -0.034  -6.013  -2.656  0.00  0.00    +0.176 C 
BRANCH  22  23
ATOM     23  O   UNL     1       0.588  -6.597  -1.510  0.00  0.00    -0.387 OA
ATOM     24  H   UNL     1       1.524  -6.374  -1.413  0.00  0.00    +0.210 HD
ENDBRANCH  22  23
BRANCH  22  25
ATOM     25  C   UNL     1       0.677  -6.494  -3.922  0.00  0.00    +0.171 C 
BRANCH  25  26
ATOM     26  O   UNL     1       0.055  -5.909  -5.069  0.00  0.00    -0.387 OA
ATOM     27  H   UNL     1      -0.881  -6.132  -5.165  0.00  0.00    +0.210 HD
ENDBRANCH  25  26
BRANCH  25  28
ATOM     28  C   UNL     1       0.583  -8.018  -4.013  0.00  0.00    +0.189 C 
BRANCH  28  29
ATOM     29  O   UNL     1       1.344  -8.477  -5.131  0.00  0.00    -0.392 OA
ATOM     30  H   UNL     1       1.330  -9.437  -5.250  0.00  0.00    +0.210 HD
ENDBRANCH  28  29
ENDBRANCH  25  28
ENDBRANCH  22  25
ENDBRANCH  19  22
ENDBRANCH  16  19
ENDBRANCH  11  16
TORSDOF 11
