REMARK  Name = ZINC22917402
REMARK  7 active torsions:
REMARK  status: ('A' for Active; 'I' for Inactive)
REMARK    1  A    between atoms: C_1  and  C_2
REMARK    2  A    between atoms: C_2  and  C_33
REMARK    3  A    between atoms: N_12  and  C_15
REMARK    4  A    between atoms: C_15  and  N_16
REMARK    5  A    between atoms: N_19  and  C_22
REMARK    6  A    between atoms: C_22  and  C_23
REMARK    7  A    between atoms: C_24  and  C_25
REMARK                            x       y       z     vdW  Elec       q    Type
REMARK                         _______ _______ _______ _____ _____    ______ ____
ROOT
ATOM      1  C   UNL     1      -0.019   1.526   0.010  0.00  0.00    +0.021 C 
ATOM      2  C   UNL     1       0.002  -0.004   0.002  0.00  0.00    +0.040 C 
ATOM      3  C   UNL     1      -1.435  -0.537   0.026  0.00  0.00    +0.177 C 
ATOM      4  O   UNL     1      -2.046  -0.167   1.268  0.00  0.00    -0.337 OA
ATOM      5  C   UNL     1      -1.340  -0.630   2.416  0.00  0.00    +0.278 C 
ATOM      6  C   UNL     1      -2.049  -0.209   3.678  0.00  0.00    +0.042 A 
ATOM      7  C   UNL     1      -2.362   1.020   4.215  0.00  0.00    +0.011 A 
ATOM      8  C   UNL     1      -3.037   1.094   5.421  0.00  0.00    +0.001 A 
ATOM      9  C   UNL     1      -3.395  -0.067   6.083  0.00  0.00    +0.002 A 
ATOM     10  C   UNL     1      -3.082  -1.299   5.547  0.00  0.00    +0.024 A 
ATOM     11  C   UNL     1      -2.403  -1.382   4.333  0.00  0.00    +0.047 A 
ATOM     12  N   UNL     1      -1.981  -2.491   3.599  0.00  0.00    -0.253 N 
ATOM     13  C   UNL     1      -1.351  -2.140   2.464  0.00  0.00    +0.286 C 
ATOM     14  O   UNL     1      -0.881  -2.892   1.636  0.00  0.00    -0.269 OA
ATOM     15  O   UNL     1       0.001  -0.146   2.411  0.00  0.00    -0.337 OA
ATOM     16  C   UNL     1       0.743  -0.514   1.243  0.00  0.00    +0.177 C 
ENDROOT
BRANCH   2  17
ATOM     17  C   UNL     1       0.703  -0.492  -1.240  0.00  0.00    -0.037 A 
ATOM     18  C   UNL     1       1.835  -1.278  -1.131  0.00  0.00    +0.004 A 
ATOM     19  C   UNL     1       2.477  -1.726  -2.270  0.00  0.00    +0.000 A 
ATOM     20  C   UNL     1       1.987  -1.388  -3.518  0.00  0.00    +0.000 A 
ATOM     21  C   UNL     1       0.854  -0.604  -3.627  0.00  0.00    +0.000 A 
ATOM     22  C   UNL     1       0.209  -0.159  -2.488  0.00  0.00    +0.004 A 
ENDBRANCH   2  17
BRANCH  12  23
ATOM     23  C   UNL     1      -2.200  -3.879   4.016  0.00  0.00    +0.200 C 
BRANCH  23  24
ATOM     24  N   UNL     1      -3.482  -4.355   3.480  0.00  0.00    -0.290 NA
ATOM     25  C   UNL     1      -4.602  -3.906   4.317  0.00  0.00    +0.067 C 
ATOM     26  C   UNL     1      -5.920  -4.371   3.693  0.00  0.00    -0.063 C 
ATOM     27  N   UNL     1      -5.922  -5.836   3.588  0.00  0.00    +0.384 N 
ATOM     28  C   UNL     1      -4.812  -6.268   2.729  0.00  0.00    -0.063 C 
ATOM     29  C   UNL     1      -3.485  -5.819   3.345  0.00  0.00    +0.067 C 
ATOM     30  H   UNL     1      -5.812  -6.239   4.507  0.00  0.00    -0.081 HD
BRANCH  27  31
ATOM     31  C   UNL     1      -7.194  -6.284   3.006  0.00  0.00    -0.051 C 
BRANCH  31  32
ATOM     32  C   UNL     1      -7.247  -7.790   3.011  0.00  0.00    -0.045 C 
ATOM     33  C   UNL     1      -8.263  -8.415   3.589  0.00  0.00    +0.002 C 
BRANCH  33  34
ATOM     34  C   UNL     1      -8.315  -9.893   3.594  0.00  0.00    -0.025 A 
ATOM     35  C   UNL     1      -7.293 -10.631   2.997  0.00  0.00    +0.008 A 
ATOM     36  C   UNL     1      -7.347 -12.010   3.005  0.00  0.00    +0.001 A 
ATOM     37  C   UNL     1      -8.412 -12.660   3.603  0.00  0.00    +0.000 A 
ATOM     38  C   UNL     1      -9.428 -11.933   4.197  0.00  0.00    +0.001 A 
ATOM     39  C   UNL     1      -9.383 -10.554   4.201  0.00  0.00    +0.008 A 
ENDBRANCH  33  34
ENDBRANCH  31  32
ENDBRANCH  27  31
ENDBRANCH  23  24
ENDBRANCH  12  23
TORSDOF 6
