REMARK  Name = ZINC48827147
REMARK  12 active torsions:
REMARK  status: ('A' for Active; 'I' for Inactive)
REMARK    1  A    between atoms: C_1  and  N_2
REMARK    2  A    between atoms: N_2  and  C_3
REMARK    3  A    between atoms: N_2  and  C_4
REMARK    4  A    between atoms: C_4  and  C_6
REMARK    5  A    between atoms: C_4  and  C_23
REMARK    6  A    between atoms: C_6  and  N_7
REMARK    7  A    between atoms: C_8  and  C_10
REMARK    8  A    between atoms: N_12  and  C_13
REMARK    9  A    between atoms: C_18  and  C_19
REMARK   10  A    between atoms: C_19  and  C_20
REMARK   11  A    between atoms: C_28  and  O_29
REMARK   12  A    between atoms: O_29  and  C_30
REMARK                            x       y       z     vdW  Elec       q    Type
REMARK                         _______ _______ _______ _____ _____    ______ ____
ROOT
ATOM      1  N   UNL     1      -0.828  -2.939   1.385  0.00  0.00    -0.309 N 
ATOM      2  C   UNL     1      -0.898  -4.275   1.551  0.00  0.00    +0.299 C 
ATOM      3  O   UNL     1      -1.423  -4.965   0.702  0.00  0.00    -0.265 OA
ATOM      4  H   UNL     1      -0.408  -2.388   2.064  0.00  0.00    +0.149 HD
ENDROOT
BRANCH   2   5
ATOM      5  C   UNL     1      -0.331  -4.906   2.780  0.00  0.00    +0.303 C 
ATOM      6  O   UNL     1       0.194  -4.216   3.630  0.00  0.00    -0.265 OA
ATOM      7  N   UNL     1      -0.401  -6.242   2.946  0.00  0.00    -0.277 N 
ATOM      8  H   UNL     1      -0.759  -6.800   2.238  0.00  0.00    +0.155 HD
BRANCH   7   9
ATOM      9  C   UNL     1       0.041  -6.822   4.138  0.00  0.00    +0.037 A 
ATOM     10  C   UNL     1       1.014  -6.189   4.901  0.00  0.00    +0.023 A 
ATOM     11  C   UNL     1       1.449  -6.765   6.078  0.00  0.00    +0.002 A 
ATOM     12  C   UNL     1       0.917  -7.971   6.497  0.00  0.00    +0.000 A 
ATOM     13  C   UNL     1      -0.051  -8.604   5.740  0.00  0.00    +0.006 A 
ATOM     14  C   UNL     1      -0.495  -8.030   4.564  0.00  0.00    -0.017 A 
BRANCH  14  15
ATOM     15  C   UNL     1      -1.556  -8.717   3.743  0.00  0.00    +0.132 C 
BRANCH  15  16
ATOM     16  C   UNL     1      -0.900  -9.552   2.673  0.00  0.00    +0.215 C 
ATOM     17  O   UNL     1       0.309  -9.586   2.587  0.00  0.00    -0.276 OA
ATOM     18  N   UNL     1      -1.658 -10.261   1.813  0.00  0.00    -0.329 N 
ATOM     19  H   UNL     1      -2.625 -10.234   1.883  0.00  0.00    +0.145 HD
ATOM     20  H   UNL     1      -1.236 -10.798   1.125  0.00  0.00    +0.145 HD
ENDBRANCH  15  16
ENDBRANCH  14  15
ENDBRANCH   7   9
ENDBRANCH   2   5
BRANCH   1  21
ATOM     21  C   UNL     1      -1.384  -2.321   0.179  0.00  0.00    +0.094 C 
BRANCH  21  22
ATOM     22  C   UNL     1      -1.288  -0.798   0.297  0.00  0.00    -0.017 C 
BRANCH  22  23
ATOM     23  C   UNL     1       0.161  -0.386   0.308  0.00  0.00    -0.018 A 
ATOM     24  C   UNL     1       0.816  -0.195   1.510  0.00  0.00    +0.005 A 
ATOM     25  C   UNL     1       2.145   0.184   1.521  0.00  0.00    +0.000 A 
ATOM     26  C   UNL     1       2.823   0.372   0.331  0.00  0.00    +0.004 A 
ATOM     27  C   UNL     1       2.174   0.182  -0.873  0.00  0.00    +0.046 A 
ATOM     28  C   UNL     1       0.841  -0.203  -0.887  0.00  0.00    +0.122 A 
BRANCH  28  29
ATOM     29  O   UNL     1       0.201  -0.397  -2.070  0.00  0.00    -0.495 OA
ATOM     30  C   UNL     1       0.963  -0.190  -3.261  0.00  0.00    +0.277 C 
ENDBRANCH  28  29
ENDBRANCH  22  23
BRANCH  22  32
ATOM     31  C   UNL     1      -1.936   1.106   1.604  0.00  0.00    -0.096 C 
ATOM     32  N   UNL     1      -1.932  -0.362   1.543  0.00  0.00    +0.382 N 
ATOM     33  C   UNL     1      -3.314  -0.857   1.580  0.00  0.00    -0.096 C 
ATOM     34  H   UNL     1      -1.421  -0.729   2.332  0.00  0.00    -0.082 HD
ENDBRANCH  22  32
ENDBRANCH  21  22
ENDBRANCH   1  21
TORSDOF 9
