REMARK  Name = ZINC63375979
REMARK  5 active torsions:
REMARK  status: ('A' for Active; 'I' for Inactive)
REMARK    1  A    between atoms: C_1  and  C_2
REMARK    2  A    between atoms: C_7  and  C_8
REMARK    3  A    between atoms: N_26  and  C_29
REMARK    4  A    between atoms: C_34  and  C_35
REMARK    5  A    between atoms: N_37  and  C_38
REMARK                            x       y       z     vdW  Elec       q    Type
REMARK                         _______ _______ _______ _____ _____    ______ ____
ROOT
ATOM      1  C   UNL     1       0.243   0.045   2.494  0.00  0.00    +0.135 C 
ATOM      2  C   UNL     1      -1.151   0.262   3.098  0.00  0.00    +0.131 C 
ATOM      3  C   UNL     1      -1.598  -1.070   3.686  0.00  0.00    -0.034 C 
ATOM      4  C   UNL     1      -2.749  -1.374   3.095  0.00  0.00    -0.001 A 
ATOM      5  C   UNL     1      -3.681  -2.497   3.288  0.00  0.00    +0.010 A 
ATOM      6  C   UNL     1      -4.781  -2.506   2.489  0.00  0.00    +0.001 A 
ATOM      7  C   UNL     1      -5.044  -1.523   1.531  0.00  0.00    +0.002 A 
ATOM      8  C   UNL     1      -4.245  -0.453   1.290  0.00  0.00    +0.026 A 
ATOM      9  C   UNL     1      -3.059  -0.331   2.071  0.00  0.00    +0.043 A 
ATOM     10  N   UNL     1      -2.132   0.595   2.061  0.00  0.00    -0.375 N 
ATOM     11  C   UNL     1      -0.778  -1.846   4.690  0.00  0.00    +0.065 C 
ATOM     12  C   UNL     1       0.568  -1.112   4.815  0.00  0.00    +0.169 C 
ATOM     13  N   UNL     1       1.020  -0.747   3.456  0.00  0.00    -0.264 N 
ATOM     14  C   UNL     1       2.231  -1.293   3.289  0.00  0.00    +0.317 C 
ATOM     15  O   UNL     1       2.936  -1.095   2.319  0.00  0.00    -0.252 OA
ATOM     16  N   UNL     1       2.576  -2.083   4.315  0.00  0.00    -0.192 N 
ATOM     17  C   UNL     1       1.631  -2.069   5.311  0.00  0.00    +0.248 C 
ATOM     18  O   UNL     1       1.633  -2.683   6.356  0.00  0.00    -0.273 OA
ATOM     19  H   UNL     1      -2.094   1.365   1.472  0.00  0.00    +0.160 HD
ENDROOT
BRANCH   1  26
ATOM     20  C   UNL     1       0.039   1.503   0.008  0.00  0.00    +0.044 C 
ATOM     21  C   UNL     1       0.030  -0.004   0.001  0.00  0.00    -0.045 A 
ATOM     22  C   UNL     1      -0.071  -0.689  -1.196  0.00  0.00    +0.004 A 
ATOM     23  C   UNL     1      -0.080  -2.071  -1.202  0.00  0.00    +0.000 A 
ATOM     24  C   UNL     1       0.013  -2.769  -0.012  0.00  0.00    +0.000 A 
ATOM     25  C   UNL     1       0.114  -2.084   1.184  0.00  0.00    +0.006 A 
ATOM     26  C   UNL     1       0.127  -0.701   1.190  0.00  0.00    -0.022 A 
ENDBRANCH   1  26
BRANCH  16  27
ATOM     27  C   UNL     1       3.758  -2.825   4.371  0.00  0.00    +0.058 A 
ATOM     28  C   UNL     1       4.902  -2.273   4.930  0.00  0.00    +0.025 A 
ATOM     29  C   UNL     1       6.069  -3.008   4.985  0.00  0.00    +0.002 A 
ATOM     30  C   UNL     1       6.109  -4.299   4.485  0.00  0.00    +0.001 A 
ATOM     31  C   UNL     1       4.982  -4.864   3.926  0.00  0.00    +0.015 A 
ATOM     32  C   UNL     1       3.793  -4.133   3.868  0.00  0.00    +0.059 A 
BRANCH  32  33
ATOM     33  C   UNL     1       2.581  -4.734   3.277  0.00  0.00    +0.246 C 
ATOM     34  O   UNL     1       1.549  -4.093   3.224  0.00  0.00    -0.270 OA
ATOM     35  N   UNL     1       2.619  -5.992   2.795  0.00  0.00    -0.308 N 
ATOM     36  H   UNL     1       3.443  -6.503   2.837  0.00  0.00    +0.149 HD
BRANCH  35  37
ATOM     37  C   UNL     1       1.417  -6.588   2.208  0.00  0.00    +0.073 C 
ATOM     38  C   UNL     1       0.573  -7.266   3.306  0.00  0.00    +0.022 C 
ATOM     39  C   UNL     1       0.006  -8.535   2.621  0.00  0.00    +0.002 C 
ATOM     40  C   UNL     1       1.189  -9.002   1.737  0.00  0.00    +0.002 C 
ATOM     41  C   UNL     1       1.809  -7.691   1.210  0.00  0.00    +0.022 C 
ENDBRANCH  35  37
ENDBRANCH  32  33
ENDBRANCH  16  27
TORSDOF 4
