REMARK  Name = ZINC33688584
REMARK  3 active torsions:
REMARK  status: ('A' for Active; 'I' for Inactive)
REMARK    1  A    between atoms: C_1  and  C_2
REMARK    2  A    between atoms: C_5  and  C_8
REMARK    3  A    between atoms: N_25  and  N_28
REMARK                            x       y       z     vdW  Elec       q    Type
REMARK                         _______ _______ _______ _____ _____    ______ ____
ROOT
ATOM      1  C   UNL     1       0.016  -2.899  -2.427  0.00  0.00    +0.092 C 
ATOM      2  C   UNL     1       0.462  -4.313  -2.170  0.00  0.00    +0.015 A 
ATOM      3  C   UNL     1       0.883  -5.112  -3.248  0.00  0.00    -0.010 A 
ATOM      4  C   UNL     1       0.893  -4.613  -4.562  0.00  0.00    +0.010 A 
ATOM      5  C   UNL     1       1.304  -5.412  -5.583  0.00  0.00    +0.016 A 
ATOM      6  C   UNL     1       1.717  -6.723  -5.347  0.00  0.00    +0.018 A 
ATOM      7  C   UNL     1       1.722  -7.240  -4.087  0.00  0.00    +0.023 A 
ATOM      8  C   UNL     1       1.304  -6.444  -3.008  0.00  0.00    -0.016 A 
ATOM      9  C   UNL     1       1.295  -6.942  -1.693  0.00  0.00    +0.012 A 
ATOM     10  C   UNL     1       0.881  -6.145  -0.674  0.00  0.00    +0.047 A 
ATOM     11  C   UNL     1       0.461  -4.827  -0.906  0.00  0.00    +0.135 A 
ATOM     12  O   UNL     1       0.053  -4.077   0.148  0.00  0.00    -0.437 OA
ATOM     13  C   UNL     1       0.037  -2.730   0.062  0.00  0.00    +0.229 A 
ATOM     14  C   UNL     1       0.019  -2.108  -1.150  0.00  0.00    +0.068 A 
ATOM     15  C   UNL     1      -0.006  -0.695  -1.194  0.00  0.00    +0.132 A 
ATOM     16  N   UNL     1      -0.030  -0.055  -2.345  0.00  0.00    -0.383 N 
ATOM     17  N   UNL     1       0.002  -0.004   0.002  0.00  0.00    -0.241 N 
ATOM     18  C   UNL     1       0.022  -0.695   1.169  0.00  0.00    +0.223 A 
ATOM     19  N   UNL     1       0.039  -1.997   1.191  0.00  0.00    -0.201 NA
ATOM     20 BR   UNL     1       2.280  -7.799  -6.797  0.00  0.00    -0.050 Br
ATOM     21  H   UNL     1      -0.048   1.045  -2.362  0.00  0.00    +0.157 HD
ATOM     22  H   UNL     1      -0.031  -0.620  -3.289  0.00  0.00    +0.157 HD
ENDROOT
BRANCH   1  27
ATOM     23  C   UNL     1      -5.324  -2.950  -4.634  0.00  0.00    +0.044 C 
ATOM     24  C   UNL     1      -3.932  -2.937  -4.059  0.00  0.00    -0.050 A 
ATOM     25  C   UNL     1      -2.887  -2.400  -4.788  0.00  0.00    +0.003 A 
ATOM     26  C   UNL     1      -1.610  -2.387  -4.260  0.00  0.00    +0.005 A 
ATOM     27  C   UNL     1      -1.377  -2.912  -3.003  0.00  0.00    -0.035 A 
ATOM     28  C   UNL     1      -2.420  -3.454  -2.276  0.00  0.00    +0.005 A 
ATOM     29  C   UNL     1      -3.698  -3.462  -2.801  0.00  0.00    +0.003 A 
ENDBRANCH   1  27
BRANCH  17  30
ATOM     30  N   UNL     1      -0.016   1.362   0.009  0.00  0.00    -0.296 N 
ATOM     31  H   UNL     1      -0.010   1.907   0.965  0.00  0.00    +0.163 HD
ATOM     32  H   UNL     1      -0.037   1.917  -0.940  0.00  0.00    +0.163 HD
ENDBRANCH  17  30
TORSDOF 2
