REMARK  Name = ZINC20804479
REMARK  11 active torsions:
REMARK  status: ('A' for Active; 'I' for Inactive)
REMARK    1  A    between atoms: C_1  and  C_2
REMARK    2  A    between atoms: C_2  and  S_3
REMARK    3  A    between atoms: S_3  and  C_4
REMARK    4  A    between atoms: C_9  and  C_18
REMARK    5  A    between atoms: C_11  and  C_15
REMARK    6  A    between atoms: C_12  and  C_14
REMARK    7  A    between atoms: C_21  and  O_26
REMARK    8  A    between atoms: C_22  and  O_24
REMARK    9  A    between atoms: O_24  and  C_25
REMARK   10  A    between atoms: O_26  and  C_27
REMARK   11  A    between atoms: C_27  and  C_28
REMARK                            x       y       z     vdW  Elec       q    Type
REMARK                         _______ _______ _______ _____ _____    ______ ____
ROOT
ATOM      1  C   UNL     1       2.781  -0.207   3.193  0.00  0.00    +0.210 A 
ATOM      2  N   UNL     1       2.563  -1.322   2.481  0.00  0.00    -0.187 NA
ATOM      3  C   UNL     1       2.462  -1.019   1.216  0.00  0.00    +0.219 A 
ATOM      4  N   UNL     1       2.609   0.324   1.091  0.00  0.00    -0.220 N 
ATOM      5  N   UNL     1       2.817   0.824   2.376  0.00  0.00    -0.141 NA
ATOM      6  C   UNL     1       2.545   1.028  -0.187  0.00  0.00    +0.177 C 
ATOM      7  C   UNL     1       2.593   0.030  -1.313  0.00  0.00    +0.060 C 
ATOM      8  C   UNL     1       2.444  -1.289  -1.128  0.00  0.00    +0.018 C 
ATOM      9  N   UNL     1       2.244  -1.837   0.115  0.00  0.00    -0.287 N 
ATOM     10  C   UNL     1       2.497  -2.203  -2.326  0.00  0.00    +0.061 C 
ATOM     11  H   UNL     1       1.925  -2.879   0.260  0.00  0.00    +0.155 HD
ENDROOT
BRANCH   6  12
ATOM     12  C   UNL     1       1.259   1.811  -0.264  0.00  0.00    -0.015 A 
ATOM     13  C   UNL     1       0.045   1.154  -0.182  0.00  0.00    +0.010 A 
ATOM     14  C   UNL     1      -1.137   1.867  -0.259  0.00  0.00    +0.050 A 
ATOM     15  C   UNL     1      -1.106   3.245  -0.407  0.00  0.00    +0.163 A 
ATOM     16  C   UNL     1       0.115   3.906  -0.490  0.00  0.00    +0.162 A 
ATOM     17  C   UNL     1       1.296   3.184  -0.418  0.00  0.00    +0.055 A 
BRANCH  16  18
ATOM     18  O   UNL     1       0.150   5.257  -0.641  0.00  0.00    -0.491 OA
ATOM     19  C   UNL     1       1.440   5.868  -0.719  0.00  0.00    +0.277 C 
ENDBRANCH  16  18
BRANCH  15  20
ATOM     20  O   UNL     1      -2.268   3.948  -0.476  0.00  0.00    -0.479 OA
BRANCH  20  21
ATOM     21  C   UNL     1      -3.484   3.203  -0.384  0.00  0.00    +0.324 C 
BRANCH  21  22
ATOM     22  C   UNL     1      -4.658   4.144  -0.480  0.00  0.00    +0.248 C 
ATOM     23  O   UNL     1      -4.471   5.335  -0.615  0.00  0.00    -0.272 OA
ATOM     24  N   UNL     1      -5.915   3.662  -0.417  0.00  0.00    -0.327 N 
ATOM     25  H   UNL     1      -6.771   4.348  -0.487  0.00  0.00    +0.145 HD
ATOM     26  H   UNL     1      -6.084   2.582  -0.295  0.00  0.00    +0.145 HD
ENDBRANCH  21  22
ENDBRANCH  20  21
ENDBRANCH  15  20
ENDBRANCH   6  12
BRANCH   7  27
ATOM     27  C   UNL     1       2.806   0.507  -2.628  0.00  0.00    +0.241 C 
ATOM     28  O   UNL     1       2.954  -0.280  -3.545  0.00  0.00    -0.271 OA
ATOM     29  N   UNL     1       2.847   1.834  -2.865  0.00  0.00    -0.325 N 
ATOM     30  H   UNL     1       3.012   2.205  -3.887  0.00  0.00    +0.145 HD
ATOM     31  H   UNL     1       2.714   2.545  -2.037  0.00  0.00    +0.145 HD
ENDBRANCH   7  27
BRANCH   1  32
ATOM     32  S   UNL     1       2.986  -0.133   4.942  0.00  0.00    -0.085 S 
BRANCH  32  34
ATOM     33  C   UNL     1       2.993  -1.941   6.994  0.00  0.00    +0.016 C 
ATOM     34  C   UNL     1       2.833  -1.860   5.475  0.00  0.00    +0.074 C 
ENDBRANCH  32  34
ENDBRANCH   1  32
TORSDOF 8
