REMARK  Name = ZINC20490413
REMARK  11 active torsions:
REMARK  status: ('A' for Active; 'I' for Inactive)
REMARK    1  A    between atoms: C_1  and  C_2
REMARK    2  A    between atoms: C_2  and  O_3
REMARK    3  A    between atoms: O_3  and  C_4
REMARK    4  A    between atoms: C_7  and  C_10
REMARK    5  A    between atoms: C_16  and  C_22
REMARK    6  A    between atoms: N_24  and  C_25
REMARK    7  A    between atoms: C_25  and  C_26
REMARK    8  A    between atoms: C_26  and  C_27
REMARK    9  A    between atoms: C_27  and  N_28
REMARK   10  A    between atoms: C_29  and  C_37
REMARK   11  A    between atoms: C_34  and  C_36
REMARK                            x       y       z     vdW  Elec       q    Type
REMARK                         _______ _______ _______ _____ _____    ______ ____
ROOT
ATOM      1  C   UNL     1       2.477  -6.280  -0.999  0.00  0.00    +0.090 A 
ATOM      2  C   UNL     1       2.947  -6.884  -2.116  0.00  0.00    +0.122 A 
ATOM      3  N   UNL     1       2.730  -8.252  -1.973  0.00  0.00    -0.293 N 
ATOM      4  C   UNL     1       2.971  -9.399  -2.735  0.00  0.00    +0.062 A 
ATOM      5  C   UNL     1       3.575  -9.448  -4.005  0.00  0.00    +0.028 A 
ATOM      6  C   UNL     1       3.757 -10.640  -4.655  0.00  0.00    +0.015 A 
ATOM      7  C   UNL     1       3.349 -11.847  -4.077  0.00  0.00    +0.038 A 
ATOM      8  C   UNL     1       2.747 -11.822  -2.816  0.00  0.00    +0.030 A 
ATOM      9  C   UNL     1       2.571 -10.621  -2.177  0.00  0.00    +0.040 A 
ATOM     10  S   UNL     1       1.872 -10.148  -0.614  0.00  0.00    -0.049 S 
ATOM     11  C   UNL     1       2.130  -8.394  -0.755  0.00  0.00    +0.179 A 
ATOM     12  N   UNL     1       1.987  -7.235  -0.180  0.00  0.00    -0.221 NA
ENDROOT
BRANCH   1  16
ATOM     13  C   UNL     1       2.549  -2.102  -0.201  0.00  0.00    +0.121 A 
ATOM     14  C   UNL     1       2.011  -2.977   0.734  0.00  0.00    +0.046 A 
ATOM     15  C   UNL     1       1.986  -4.332   0.478  0.00  0.00    +0.013 A 
ATOM     16  C   UNL     1       2.501  -4.822  -0.721  0.00  0.00    +0.002 A 
ATOM     17  C   UNL     1       3.040  -3.942  -1.657  0.00  0.00    +0.013 A 
ATOM     18  C   UNL     1       3.057  -2.587  -1.398  0.00  0.00    +0.046 A 
BRANCH  13  19
ATOM     19  O   UNL     1       2.571  -0.767   0.054  0.00  0.00    -0.492 OA
BRANCH  19  21
ATOM     20  C   UNL     1       2.144   1.186   1.412  0.00  0.00    +0.048 C 
ATOM     21  C   UNL     1       2.032  -0.336   1.305  0.00  0.00    +0.225 C 
ENDBRANCH  19  21
ENDBRANCH  13  19
ENDBRANCH   1  16
BRANCH   7  22
ATOM     22  C   UNL     1       3.551 -13.126  -4.788  0.00  0.00    +0.244 C 
ATOM     23  O   UNL     1       3.192 -14.169  -4.276  0.00  0.00    -0.270 OA
ATOM     24  N   UNL     1       4.133 -13.137  -6.004  0.00  0.00    -0.311 N 
ATOM     25  H   UNL     1       4.419 -12.305  -6.412  0.00  0.00    +0.149 HD
BRANCH  24  26
ATOM     26  C   UNL     1       4.332 -14.405  -6.709  0.00  0.00    +0.102 C 
BRANCH  26  27
ATOM     27  C   UNL     1       5.007 -14.139  -8.056  0.00  0.00    +0.000 C 
BRANCH  27  28
ATOM     28  C   UNL     1       5.216 -15.464  -8.793  0.00  0.00    -0.077 C 
BRANCH  28  29
ATOM     29  N   UNL     1       5.814 -15.203 -10.109  0.00  0.00    +0.383 N 
ATOM     30  C   UNL     1       4.893 -14.389 -10.910  0.00  0.00    -0.071 C 
ATOM     31  C   UNL     1       5.474 -14.182 -12.310  0.00  0.00    -0.016 C 
ATOM     32  C   UNL     1       6.823 -13.467 -12.196  0.00  0.00    -0.003 C 
ATOM     33  C   UNL     1       7.752 -14.289 -11.297  0.00  0.00    -0.016 C 
ATOM     34  C   UNL     1       7.085 -14.491  -9.935  0.00  0.00    -0.071 C 
ATOM     35  C   UNL     1       8.009 -15.312  -9.033  0.00  0.00    -0.013 C 
ATOM     36  C   UNL     1       3.544 -15.104 -11.020  0.00  0.00    -0.013 C 
ATOM     37  H   UNL     1       5.982 -16.079 -10.580  0.00  0.00    -0.081 HD
ENDBRANCH  28  29
ENDBRANCH  27  28
ENDBRANCH  26  27
ENDBRANCH  24  26
ENDBRANCH   7  22
TORSDOF 8
