REMARK  Name = ZINC35372103
REMARK  7 active torsions:
REMARK  status: ('A' for Active; 'I' for Inactive)
REMARK    1  A    between atoms: C_4  and  O_19
REMARK    2  A    between atoms: C_5  and  N_7
REMARK    3  A    between atoms: C_8  and  C_10
REMARK    4  A    between atoms: C_10  and  O_11
REMARK    5  A    between atoms: O_11  and  C_12
REMARK    6  A    between atoms: O_19  and  C_20
REMARK    7  A    between atoms: C_20  and  C_21
REMARK                            x       y       z     vdW  Elec       q    Type
REMARK                         _______ _______ _______ _____ _____    ______ ____
ROOT
ATOM      1  C   UNL     1      -0.028   1.373   0.037  0.00  0.00    +0.002 A 
ATOM      2  C   UNL     1       1.155   2.088   0.033  0.00  0.00    +0.004 A 
ATOM      3  C   UNL     1       2.368   1.425   0.011  0.00  0.00    +0.047 A 
ATOM      4  C   UNL     1       2.400   0.040  -0.008  0.00  0.00    +0.142 A 
ATOM      5  C   UNL     1       1.208  -0.681  -0.003  0.00  0.00    +0.076 A 
ATOM      6  C   UNL     1      -0.005  -0.008   0.019  0.00  0.00    +0.027 A 
ENDROOT
BRANCH   5   7
ATOM      7  N   UNL     1       1.234  -2.082  -0.022  0.00  0.00    -0.280 N 
ATOM      8  C   UNL     1       0.182  -2.769  -0.510  0.00  0.00    +0.255 C 
ATOM      9  O   UNL     1      -0.743  -2.177  -1.023  0.00  0.00    -0.272 OA
ATOM     10  H   UNL     1       2.010  -2.557   0.316  0.00  0.00    +0.155 HD
BRANCH   8  11
ATOM     11  C   UNL     1       0.156  -4.273  -0.416  0.00  0.00    +0.324 C 
BRANCH  11  12
ATOM     12  O   UNL     1      -1.053  -4.765  -0.998  0.00  0.00    -0.483 OA
BRANCH  12  13
ATOM     13  C   UNL     1      -1.235  -6.112  -0.995  0.00  0.00    +0.121 A 
ATOM     14  C   UNL     1      -0.272  -6.942  -0.439  0.00  0.00    +0.047 A 
ATOM     15  C   UNL     1      -0.459  -8.311  -0.437  0.00  0.00    +0.023 A 
ATOM     16  C   UNL     1      -1.605  -8.854  -0.990  0.00  0.00    +0.041 A 
ATOM     17  C   UNL     1      -2.567  -8.028  -1.545  0.00  0.00    +0.023 A 
ATOM     18  C   UNL     1      -2.386  -6.659  -1.543  0.00  0.00    +0.047 A 
ATOM     19 CL   UNL     1      -1.838 -10.575  -0.987  0.00  0.00    -0.084 Cl
ENDBRANCH  12  13
ENDBRANCH  11  12
ENDBRANCH   8  11
ENDBRANCH   5   7
BRANCH   4  20
ATOM     20  O   UNL     1       3.592  -0.614  -0.030  0.00  0.00    -0.484 OA
BRANCH  20  21
ATOM     21  C   UNL     1       4.773   0.190  -0.034  0.00  0.00    +0.282 C 
BRANCH  21  22
ATOM     22  C   UNL     1       5.988  -0.702  -0.060  0.00  0.00    +0.061 A 
ATOM     23  C   UNL     1       5.851  -2.073  -0.082  0.00  0.00    +0.095 A 
ATOM     24  C   UNL     1       6.987  -2.882  -0.105  0.00  0.00    +0.259 A 
ATOM     25  O   UNL     1       6.872  -4.098  -0.125  0.00  0.00    -0.267 OA
ATOM     26  N   UNL     1       8.229  -2.312  -0.106  0.00  0.00    -0.260 N 
ATOM     27  C   UNL     1       9.434  -3.002  -0.129  0.00  0.00    +0.039 A 
ATOM     28  C   UNL     1      10.571  -2.295  -0.128  0.00  0.00    +0.013 A 
ATOM     29  S   UNL     1      10.021  -0.608  -0.095  0.00  0.00    -0.056 S 
ATOM     30  C   UNL     1       8.273  -0.947  -0.084  0.00  0.00    +0.159 A 
ATOM     31  N   UNL     1       7.212  -0.179  -0.067  0.00  0.00    -0.336 N 
ATOM     32  C   UNL     1      11.975  -2.809  -0.149  0.00  0.00    +0.044 C 
ATOM     33  C   UNL     1      11.946  -4.306   0.194  0.00  0.00    +0.006 C 
ATOM     34  C   UNL     1      10.852  -4.978  -0.642  0.00  0.00    +0.006 C 
ATOM     35  C   UNL     1       9.475  -4.528  -0.155  0.00  0.00    +0.055 C 
ATOM     36  H   UNL     1       7.319   0.785  -0.056  0.00  0.00    +0.168 HD
ENDBRANCH  21  22
ENDBRANCH  20  21
ENDBRANCH   4  20
TORSDOF 7
