REMARK  Name = ZINC37972345
REMARK  5 active torsions:
REMARK  status: ('A' for Active; 'I' for Inactive)
REMARK    1  A    between atoms: C_1  and  C_2
REMARK    2  A    between atoms: C_2  and  C_3
REMARK    3  A    between atoms: C_2  and  C_11
REMARK    4  A    between atoms: C_2  and  N_14
REMARK    5  A    between atoms: N_14  and  C_15
REMARK                            x       y       z     vdW  Elec       q    Type
REMARK                         _______ _______ _______ _____ _____    ______ ____
ROOT
ATOM      1  C   UNL     1      -0.093   1.635  -0.112  0.00  0.00    +0.004 C 
ATOM      2  C   UNL     1       0.149   0.130   0.022  0.00  0.00    +0.033 C 
ENDROOT
BRANCH   2   3
ATOM      3  C   UNL     1       1.258  -0.115   1.012  0.00  0.00    -0.048 A 
ATOM      4  C   UNL     1       2.409  -0.769   0.613  0.00  0.00    +0.005 A 
ATOM      5  C   UNL     1       3.427  -0.994   1.519  0.00  0.00    +0.040 A 
ATOM      6  C   UNL     1       3.296  -0.563   2.828  0.00  0.00    +0.142 A 
ATOM      7  C   UNL     1       2.143   0.093   3.228  0.00  0.00    +0.076 A 
ATOM      8  C   UNL     1       1.127   0.321   2.317  0.00  0.00    +0.025 A 
ATOM      9 CL   UNL     1       1.976   0.633   4.869  0.00  0.00    -0.081 Cl
ATOM     10  F   UNL     1       4.291  -0.782   3.715  0.00  0.00    -0.204 F 
ENDBRANCH   2   3
BRANCH   2  11
ATOM     11  C   UNL     1      -1.112  -0.540   0.505  0.00  0.00    +0.204 C 
ATOM     12  O   UNL     1      -1.948   0.102   1.105  0.00  0.00    -0.277 OA
ATOM     13  N   UNL     1      -1.310  -1.852   0.270  0.00  0.00    -0.330 N 
ATOM     14  H   UNL     1      -0.642  -2.365  -0.210  0.00  0.00    +0.145 HD
ATOM     15  H   UNL     1      -2.122  -2.283   0.581  0.00  0.00    +0.145 HD
ENDBRANCH   2  11
BRANCH   2  16
ATOM     16  N   UNL     1       0.528  -0.424  -1.285  0.00  0.00    +0.393 N 
ATOM     17  H   UNL     1       1.510  -0.260  -1.447  0.00  0.00    -0.084 HD
ATOM     18  H   UNL     1       0.346  -1.416  -1.295  0.00  0.00    -0.084 HD
BRANCH  16  19
ATOM     19  C   UNL     1      -0.259   0.229  -2.340  0.00  0.00    -0.070 C 
ATOM     20  C   UNL     1      -1.745  -0.139  -2.155  0.00  0.00    -0.016 C 
ATOM     21  C   UNL     1      -2.583   0.888  -2.868  0.00  0.00    -0.002 C 
ATOM     22  C   UNL     1      -2.950   0.456  -4.301  0.00  0.00    -0.000 C 
ATOM     23  C   UNL     1      -1.774  -0.202  -5.047  0.00  0.00    -0.000 C 
ATOM     24  C   UNL     1      -0.470   0.509  -4.807  0.00  0.00    -0.002 C 
ATOM     25  C   UNL     1       0.258  -0.184  -3.636  0.00  0.00    -0.016 C 
ENDBRANCH  16  19
ENDBRANCH   2  16
TORSDOF 4
