REMARK  Name = ZINC15707446
REMARK  11 active torsions:
REMARK  status: ('A' for Active; 'I' for Inactive)
REMARK    1  A    between atoms: C_1  and  C_2
REMARK    2  A    between atoms: C_2  and  C_3
REMARK    3  A    between atoms: C_2  and  N_4
REMARK    4  A    between atoms: C_5  and  C_7
REMARK    5  A    between atoms: C_7  and  C_8
REMARK    6  A    between atoms: C_8  and  C_9
REMARK    7  A    between atoms: C_18  and  N_21
REMARK    8  A    between atoms: N_21  and  C_22
REMARK    9  A    between atoms: C_22  and  N_24
REMARK   10  A    between atoms: N_24  and  C_25
REMARK   11  A    between atoms: C_28  and  N_31
REMARK                            x       y       z     vdW  Elec       q    Type
REMARK                         _______ _______ _______ _____ _____    ______ ____
ROOT
ATOM      1  C   UNL     1      12.298   3.717  -3.549  0.00  0.00    -0.050 C 
ATOM      2  C   UNL     1      13.482   2.776  -3.817  0.00  0.00    +0.089 C 
ATOM      3  N   UNL     1      14.235   2.481  -2.604  0.00  0.00    -0.318 N 
ATOM      4  C   UNL     1      13.835   2.804  -1.359  0.00  0.00    +0.200 C 
ATOM      5  O   UNL     1      14.467   2.428  -0.394  0.00  0.00    -0.278 OA
ATOM      6  C   UNL     1      12.605   3.631  -1.182  0.00  0.00    +0.021 C 
ATOM      7  C   UNL     1      10.418   3.923  -1.901  0.00  0.00    -0.055 C 
ATOM      8  C   UNL     1      10.312   3.576  -0.390  0.00  0.00    +0.054 C 
ATOM      9  C   UNL     1      11.775   3.330   0.067  0.00  0.00    +0.014 C 
ATOM     10  H   UNL     1      15.082   2.020  -2.701  0.00  0.00    +0.149 HD
ATOM     11  N   UNL     1      11.703   3.277  -2.235  0.00  0.00    +0.391 N 
ATOM     12  H   UNL     1      11.569   2.260  -2.262  0.00  0.00    -0.080 HD
ENDROOT
BRANCH   8  13
ATOM     13  N   UNL     1       9.508   2.366  -0.200  0.00  0.00    -0.325 N 
ATOM     14  H   UNL     1       9.942   1.500  -0.145  0.00  0.00    +0.148 HD
BRANCH  13  15
ATOM     15  C   UNL     1       8.167   2.456  -0.102  0.00  0.00    +0.135 C 
ATOM     16  S   UNL     1       7.403   3.985  -0.199  0.00  0.00    -0.019 S 
BRANCH  15  17
ATOM     17  N   UNL     1       7.428   1.343   0.073  0.00  0.00    -0.297 N 
ATOM     18  H   UNL     1       7.864   0.488   0.211  0.00  0.00    +0.154 HD
BRANCH  17  19
ATOM     19  C   UNL     1       6.030   1.421   0.054  0.00  0.00    +0.033 A 
ATOM     20  C   UNL     1       5.392   2.226  -0.880  0.00  0.00    +0.025 A 
ATOM     21  C   UNL     1       4.014   2.303  -0.898  0.00  0.00    +0.029 A 
ATOM     22  C   UNL     1       3.266   1.576   0.019  0.00  0.00    +0.065 A 
ATOM     23  C   UNL     1       3.905   0.775   0.957  0.00  0.00    +0.029 A 
ATOM     24  C   UNL     1       5.282   0.694   0.971  0.00  0.00    +0.025 A 
BRANCH  22  25
ATOM     25  N   UNL     1       1.866   1.655   0.002  0.00  0.00    -0.240 N 
ATOM     26  C   UNL     1       1.021   1.003   0.832  0.00  0.00    +0.114 A 
ATOM     27  C   UNL     1      -0.242   1.346   0.488  0.00  0.00    +0.041 A 
ATOM     28  C   UNL     1      -0.168   2.237  -0.588  0.00  0.00    +0.135 A 
ATOM     29  N   UNL     1       1.094   2.423  -0.880  0.00  0.00    -0.175 NA
ENDBRANCH  22  25
ENDBRANCH  17  19
ENDBRANCH  15  17
ENDBRANCH  13  15
ENDBRANCH   8  13
BRANCH   1  30
ATOM     30  C   UNL     1      11.284   3.613  -4.690  0.00  0.00    -0.005 C 
BRANCH  30  31
ATOM     31  C   UNL     1      11.895   4.188  -5.969  0.00  0.00    +0.094 C 
BRANCH  31  33
ATOM     32  N   UNL     1      11.266   4.420  -8.350  0.00  0.00    -0.313 N 
ATOM     33  C   UNL     1      10.938   3.989  -7.116  0.00  0.00    +0.213 C 
ATOM     34  O   UNL     1       9.872   3.442  -6.929  0.00  0.00    -0.276 OA
ATOM     35  H   UNL     1      12.119   4.857  -8.500  0.00  0.00    +0.149 HD
BRANCH  32  37
ATOM     36  C   UNL     1       9.327   5.377  -9.493  0.00  0.00    +0.027 C 
ATOM     37  C   UNL     1      10.336   4.227  -9.465  0.00  0.00    +0.067 C 
ATOM     38  C   UNL     1      11.115   4.201 -10.782  0.00  0.00    +0.027 C 
ENDBRANCH  32  37
ENDBRANCH  31  33
ENDBRANCH  30  31
ENDBRANCH   1  30
TORSDOF 9
