REMARK  Name = ZINC36233630
REMARK  4 active torsions:
REMARK  status: ('A' for Active; 'I' for Inactive)
REMARK    1  A    between atoms: C_5  and  C_6
REMARK    2  A    between atoms: C_6  and  C_7
REMARK    3  A    between atoms: N_9  and  C_10
REMARK    4  A    between atoms: C_13  and  N_15
REMARK                            x       y       z     vdW  Elec       q    Type
REMARK                         _______ _______ _______ _____ _____    ______ ____
ROOT
ATOM      1  C   UNL     1      -1.729  -1.040  -1.407  0.00  0.00    +0.218 C 
ATOM      2  O   UNL     1      -1.065  -0.625  -2.333  0.00  0.00    -0.275 OA
ATOM      3  N   UNL     1      -2.864  -1.726  -1.646  0.00  0.00    -0.314 N 
ATOM      4  H   UNL     1      -3.396  -2.057  -0.905  0.00  0.00    +0.149 HD
ENDROOT
BRANCH   3   5
ATOM      5  C   UNL     1      -3.295  -1.972  -3.024  0.00  0.00    +0.057 C 
ATOM      6  C   UNL     1      -4.777  -1.770  -3.348  0.00  0.00    +0.006 C 
ATOM      7  C   UNL     1      -4.194  -3.184  -3.278  0.00  0.00    -0.053 C 
BRANCH   7   8
ATOM      8  N   UNL     1      -4.016  -3.908  -4.544  0.00  0.00    +0.381 N 
ATOM      9  H   UNL     1      -3.072  -4.260  -4.600  0.00  0.00    -0.090 HD
ATOM     10  H   UNL     1      -4.665  -4.679  -4.584  0.00  0.00    -0.090 HD
ATOM     11  H   UNL     1      -4.189  -3.282  -5.316  0.00  0.00    -0.090 HD
ENDBRANCH   7   8
ENDBRANCH   3   5
BRANCH   1  12
ATOM     12  C   UNL     1      -1.286  -0.786   0.011  0.00  0.00    +0.131 C 
BRANCH  12  17
ATOM     13  C   UNL     1      -0.017   1.378   0.010  0.00  0.00    +0.011 A 
ATOM     14  C   UNL     1       1.160   2.051   0.002  0.00  0.00    +0.045 A 
ATOM     15  S   UNL     1       2.348   0.719  -0.017  0.00  0.00    -0.105 S 
ATOM     16  C   UNL     1       1.196  -0.645  -0.013  0.00  0.00    +0.049 A 
ATOM     17  C   UNL     1       0.002  -0.004   0.002  0.00  0.00    -0.032 A 
ENDBRANCH  12  17
ENDBRANCH   1  12
TORSDOF 4
