REMARK  Name = ZINC51962895
REMARK  6 active torsions:
REMARK  status: ('A' for Active; 'I' for Inactive)
REMARK    1  A    between atoms: C_2  and  C_3
REMARK    2  A    between atoms: C_3  and  N_4
REMARK    3  A    between atoms: N_4  and  C_5
REMARK    4  A    between atoms: C_5  and  C_7
REMARK    5  A    between atoms: C_5  and  C_9
REMARK    6  A    between atoms: C_12  and  O_15
REMARK                            x       y       z     vdW  Elec       q    Type
REMARK                         _______ _______ _______ _____ _____    ______ ____
ROOT
ATOM      1  C   UNL     1       1.379   3.445   0.007  0.00  0.00    +0.189 C 
ENDROOT
BRANCH   1   2
ATOM      2  C   UNL     1       2.668   3.934  -0.603  0.00  0.00    -0.016 A 
ATOM      3  C   UNL     1       3.854   3.278  -0.328  0.00  0.00    +0.010 A 
ATOM      4  C   UNL     1       5.036   3.724  -0.886  0.00  0.00    +0.046 A 
ATOM      5  C   UNL     1       5.033   4.831  -1.722  0.00  0.00    +0.117 A 
ATOM      6  C   UNL     1       3.842   5.487  -1.997  0.00  0.00    +0.046 A 
ATOM      7  C   UNL     1       2.661   5.034  -1.440  0.00  0.00    +0.010 A 
BRANCH   5   8
ATOM      8  O   UNL     1       6.195   5.272  -2.272  0.00  0.00    -0.507 OA
ATOM      9  H   UNL     1       6.402   4.873  -3.128  0.00  0.00    +0.292 HD
ENDBRANCH   5   8
ENDBRANCH   1   2
BRANCH   1  10
ATOM     10  N   UNL     1       1.360   1.976  -0.000  0.00  0.00    -0.287 NA
ATOM     11  H   UNL     1       1.889   1.604   0.774  0.00  0.00    +0.124 HD
BRANCH  10  12
ATOM     12  C   UNL     1      -0.018   1.468   0.010  0.00  0.00    +0.171 C 
BRANCH  12  14
ATOM     13  C   UNL     1       0.018  -1.178  -0.004  0.00  0.00    +0.005 C 
ATOM     14  C   UNL     1       0.002  -0.004   0.002  0.00  0.00    -0.090 C 
ENDBRANCH  12  14
ENDBRANCH  10  12
ENDBRANCH   1  10
BRANCH   1  15
ATOM     15  C   UNL     1       1.278   3.930   1.394  0.00  0.00    +0.086 C 
ATOM     16  N   UNL     1       1.200   4.304   2.463  0.00  0.00    -0.195 NA
ENDBRANCH   1  15
TORSDOF 6
