REMARK  Name = ZINC55128135
REMARK  5 active torsions:
REMARK  status: ('A' for Active; 'I' for Inactive)
REMARK    1  A    between atoms: C_1  and  N_2
REMARK    2  A    between atoms: C_3  and  C_5
REMARK    3  A    between atoms: C_11  and  C_13
REMARK    4  A    between atoms: C_13  and  C_14
REMARK    5  A    between atoms: C_17  and  N_20
REMARK                            x       y       z     vdW  Elec       q    Type
REMARK                         _______ _______ _______ _____ _____    ______ ____
ROOT
ATOM      1  C   UNL     1       0.606  -2.171  -1.026  0.00  0.00    +0.078 C 
ATOM      2  C   UNL     1      -0.830  -2.701  -1.014  0.00  0.00    +0.032 C 
ATOM      3  C   UNL     1      -0.805  -4.232  -0.987  0.00  0.00    +0.108 C 
ATOM      4  N   UNL     1       0.005  -4.712  -2.115  0.00  0.00    -0.301 N 
ATOM      5  C   UNL     1       1.371  -4.196  -2.273  0.00  0.00    +0.108 C 
ATOM      6  C   UNL     1       1.322  -2.665  -2.285  0.00  0.00    +0.032 C 
ATOM      7  C   UNL     1      -0.496  -5.608  -2.988  0.00  0.00    +0.216 C 
ATOM      8  O   UNL     1      -1.626  -6.027  -2.847  0.00  0.00    -0.276 OA
ENDROOT
BRANCH   1  11
ATOM      9  C   UNL     1      -0.018   1.461   0.010  0.00  0.00    +0.128 C 
ATOM     10  N   UNL     1       0.002  -0.004   0.002  0.00  0.00    -0.318 N 
ATOM     11  C   UNL     1       0.585  -0.664  -1.018  0.00  0.00    +0.216 C 
ATOM     12  O   UNL     1       1.093  -0.046  -1.929  0.00  0.00    -0.276 OA
ATOM     13  H   UNL     1      -0.404  -0.499   0.731  0.00  0.00    +0.148 HD
ENDBRANCH   1  11
BRANCH   7  14
ATOM     14  C   UNL     1       0.347  -6.090  -4.141  0.00  0.00    +0.099 C 
BRANCH  14  15
ATOM     15  C   UNL     1      -0.453  -7.094  -4.973  0.00  0.00    -0.002 C 
ATOM     16  C   UNL     1      -1.648  -6.388  -5.614  0.00  0.00    +0.002 C 
ATOM     17  C   UNL     1      -2.448  -7.392  -6.447  0.00  0.00    -0.016 C 
ATOM     18  C   UNL     1      -1.552  -7.975  -7.542  0.00  0.00    -0.075 C 
ATOM     19  C   UNL     1      -0.356  -8.681  -6.900  0.00  0.00    -0.016 C 
ATOM     20  C   UNL     1       0.443  -7.677  -6.068  0.00  0.00    +0.002 C 
BRANCH  18  21
ATOM     21  N   UNL     1      -1.073  -6.891  -8.410  0.00  0.00    +0.380 N 
ATOM     22  H   UNL     1      -0.545  -6.229  -7.861  0.00  0.00    -0.090 HD
ATOM     23  H   UNL     1      -0.482  -7.276  -9.132  0.00  0.00    -0.090 HD
ATOM     24  H   UNL     1      -1.861  -6.425  -8.833  0.00  0.00    -0.090 HD
ENDBRANCH  18  21
ENDBRANCH  14  15
ENDBRANCH   7  14
TORSDOF 4
