REMARK  Name = ZINC48347270
REMARK  5 active torsions:
REMARK  status: ('A' for Active; 'I' for Inactive)
REMARK    1  A    between atoms: C_1  and  N_2
REMARK    2  A    between atoms: C_6  and  C_8
REMARK    3  A    between atoms: C_8  and  N_9
REMARK    4  A    between atoms: C_12  and  C_15
REMARK    5  A    between atoms: C_15  and  O_16
REMARK                            x       y       z     vdW  Elec       q    Type
REMARK                         _______ _______ _______ _____ _____    ______ ____
ROOT
ATOM      1  C   UNL     1      -2.275  -4.238   0.001  0.00  0.00    +0.019 C 
ENDROOT
BRANCH   1   7
ATOM      2  C   UNL     1      -0.018   1.461   0.010  0.00  0.00    +0.129 C 
ATOM      3  N   UNL     1       0.002  -0.004   0.002  0.00  0.00    -0.302 N 
ATOM      4  C   UNL     1      -1.156  -0.694   0.009  0.00  0.00    +0.306 C 
ATOM      5  O   UNL     1      -2.216  -0.101   0.023  0.00  0.00    -0.252 OA
ATOM      6  N   UNL     1      -1.137  -2.041   0.002  0.00  0.00    -0.242 N 
ATOM      7  C   UNL     1      -2.295  -2.731   0.009  0.00  0.00    +0.204 C 
ATOM      8  O   UNL     1      -3.353  -2.139   0.023  0.00  0.00    -0.277 OA
ATOM      9  H   UNL     1       0.849  -0.478  -0.009  0.00  0.00    +0.150 HD
ATOM     10  H   UNL     1      -0.291  -2.515  -0.009  0.00  0.00    +0.159 HD
ENDBRANCH   1   7
BRANCH   1  11
ATOM     11  N   UNL     1      -3.653  -4.746   0.011  0.00  0.00    +0.385 N 
ATOM     12  C   UNL     1      -4.328  -4.352  -1.231  0.00  0.00    -0.078 C 
ATOM     13  C   UNL     1      -5.788  -4.809  -1.190  0.00  0.00    -0.013 C 
ATOM     14  C   UNL     1      -5.836  -6.333  -1.043  0.00  0.00    +0.011 C 
ATOM     15  C   UNL     1      -5.065  -6.738   0.217  0.00  0.00    -0.013 C 
ATOM     16  C   UNL     1      -3.632  -6.210   0.124  0.00  0.00    -0.078 C 
ATOM     17  H   UNL     1      -4.149  -4.356   0.799  0.00  0.00    -0.081 HD
BRANCH  14  18
ATOM     18  C   UNL     1      -7.291  -6.789  -0.921  0.00  0.00    +0.159 C 
BRANCH  18  19
ATOM     19  O   UNL     1      -7.342  -8.217  -0.901  0.00  0.00    -0.395 OA
ATOM     20  H   UNL     1      -8.236  -8.578  -0.826  0.00  0.00    +0.209 HD
ENDBRANCH  18  19
ENDBRANCH  14  18
ENDBRANCH   1  11
TORSDOF 4
