REMARK  Name = ZINC44982981
REMARK  7 active torsions:
REMARK  status: ('A' for Active; 'I' for Inactive)
REMARK    1  A    between atoms: C_1  and  C_2
REMARK    2  A    between atoms: C_5  and  C_8
REMARK    3  A    between atoms: C_10  and  C_13
REMARK    4  A    between atoms: C_13  and  C_15
REMARK    5  A    between atoms: C_13  and  N_19
REMARK    6  A    between atoms: C_15  and  C_17
REMARK    7  A    between atoms: C_15  and  O_18
REMARK                            x       y       z     vdW  Elec       q    Type
REMARK                         _______ _______ _______ _____ _____    ______ ____
ROOT
ATOM      1  C   UNL     1       1.499  -4.041  -0.034  0.00  0.00    +0.175 A 
ATOM      2  N   UNL     1       2.598  -4.804  -0.043  0.00  0.00    -0.197 NA
ATOM      3  C   UNL     1       2.267  -6.065  -0.049  0.00  0.00    +0.215 A 
ATOM      4  O   UNL     1       0.931  -6.148  -0.043  0.00  0.00    -0.340 OA
ATOM      5  N   UNL     1       0.450  -4.812  -0.028  0.00  0.00    -0.061 NA
ENDROOT
BRANCH   1  10
ATOM      6  C   UNL     1      -0.019   1.526   0.010  0.00  0.00    +0.007 C 
ATOM      7  C   UNL     1       0.002  -0.004   0.002  0.00  0.00    -0.014 C 
ATOM      8  C   UNL     1       0.718  -0.497  -1.257  0.00  0.00    +0.004 C 
ATOM      9  C   UNL     1       0.739  -2.027  -1.265  0.00  0.00    +0.011 C 
ATOM     10  C   UNL     1       1.479  -2.534  -0.026  0.00  0.00    +0.060 C 
ATOM     11  C   UNL     1       0.763  -2.041   1.233  0.00  0.00    +0.011 C 
ATOM     12  C   UNL     1       0.742  -0.511   1.242  0.00  0.00    +0.004 C 
ENDBRANCH   1  10
BRANCH   3  13
ATOM     13  C   UNL     1       3.224  -7.229  -0.059  0.00  0.00    +0.044 C 
BRANCH  13  14
ATOM     14  N   UNL     1       2.775  -8.224  -1.042  0.00  0.00    +0.388 N 
ATOM     15  H   UNL     1       2.747  -7.803  -1.958  0.00  0.00    -0.089 HD
ATOM     16  H   UNL     1       3.415  -9.004  -1.049  0.00  0.00    -0.089 HD
ATOM     17  H   UNL     1       1.852  -8.549  -0.793  0.00  0.00    -0.089 HD
ENDBRANCH  13  14
BRANCH  13  18
ATOM     18  C   UNL     1       3.266  -7.868   1.330  0.00  0.00    +0.106 C 
ATOM     19  C   UNL     1       4.238  -9.050   1.319  0.00  0.00    +0.036 C 
BRANCH  18  20
ATOM     20  O   UNL     1       3.704  -6.900   2.286  0.00  0.00    -0.393 OA
ATOM     21  H   UNL     1       4.585  -6.543   2.110  0.00  0.00    +0.210 HD
ENDBRANCH  18  20
ENDBRANCH  13  18
ENDBRANCH   3  13
TORSDOF 5
