REMARK  Name = ZINC37771738
REMARK  7 active torsions:
REMARK  status: ('A' for Active; 'I' for Inactive)
REMARK    1  A    between atoms: C_1  and  C_2
REMARK    2  A    between atoms: C_2  and  C_4
REMARK    3  A    between atoms: C_2  and  N_12
REMARK    4  A    between atoms: N_12  and  C_13
REMARK    5  A    between atoms: C_13  and  C_14
REMARK    6  A    between atoms: C_17  and  O_21
REMARK    7  A    between atoms: C_18  and  O_20
REMARK                            x       y       z     vdW  Elec       q    Type
REMARK                         _______ _______ _______ _____ _____    ______ ____
ROOT
ATOM      1  N   UNL     1       0.690  -0.478  -1.207  0.00  0.00    +0.386 N 
ATOM      2  H   UNL     1       1.608  -0.063  -1.256  0.00  0.00    -0.085 HD
ATOM      3  H   UNL     1       0.776  -1.482  -1.172  0.00  0.00    -0.085 HD
ENDROOT
BRANCH   1   5
ATOM      4  C   UNL     1      -0.019   1.526   0.010  0.00  0.00    -0.009 C 
ATOM      5  C   UNL     1       0.002  -0.004   0.002  0.00  0.00    -0.038 C 
BRANCH   5   6
ATOM      6  C   UNL     1       0.731  -0.503   1.223  0.00  0.00    +0.009 A 
ATOM      7  C   UNL     1       2.111  -0.418   1.289  0.00  0.00    +0.128 A 
ATOM      8  C   UNL     1       2.780  -0.877   2.411  0.00  0.00    +0.039 A 
ATOM      9  C   UNL     1       2.070  -1.420   3.465  0.00  0.00    +0.006 A 
ATOM     10  C   UNL     1       0.692  -1.506   3.400  0.00  0.00    +0.039 A 
ATOM     11  C   UNL     1       0.021  -1.042   2.282  0.00  0.00    +0.128 A 
ATOM     12  F   UNL     1      -1.327  -1.121   2.221  0.00  0.00    -0.205 F 
ATOM     13  F   UNL     1       2.805   0.112   0.258  0.00  0.00    -0.205 F 
ENDBRANCH   5   6
ENDBRANCH   1   5
BRANCH   1  14
ATOM     14  C   UNL     1      -0.086  -0.093  -2.394  0.00  0.00    -0.046 C 
BRANCH  14  15
ATOM     15  C   UNL     1       0.620  -0.579  -3.634  0.00  0.00    -0.061 A 
ATOM     16  C   UNL     1       1.552   0.229  -4.258  0.00  0.00    +0.005 A 
ATOM     17  C   UNL     1       2.201  -0.213  -5.396  0.00  0.00    +0.049 A 
ATOM     18  C   UNL     1       1.920  -1.467  -5.912  0.00  0.00    +0.158 A 
ATOM     19  C   UNL     1       0.982  -2.280  -5.283  0.00  0.00    +0.158 A 
ATOM     20  C   UNL     1       0.338  -1.834  -4.140  0.00  0.00    +0.051 A 
BRANCH  19  21
ATOM     21  O   UNL     1       0.702  -3.513  -5.786  0.00  0.00    -0.503 OA
ATOM     22  H   UNL     1       1.259  -4.218  -5.431  0.00  0.00    +0.292 HD
ENDBRANCH  19  21
BRANCH  18  23
ATOM     23  O   UNL     1       2.558  -1.903  -7.031  0.00  0.00    -0.503 OA
ATOM     24  H   UNL     1       3.381  -2.378  -6.855  0.00  0.00    +0.292 HD
ENDBRANCH  18  23
ENDBRANCH  14  15
ENDBRANCH   1  14
TORSDOF 6
