REMARK  Name = ZINC63272745
REMARK  7 active torsions:
REMARK  status: ('A' for Active; 'I' for Inactive)
REMARK    1  A    between atoms: C_1  and  O_2
REMARK    2  A    between atoms: O_2  and  C_3
REMARK    3  A    between atoms: C_7  and  C_12
REMARK    4  A    between atoms: C_12  and  C_13
REMARK    5  A    between atoms: C_13  and  N_14
REMARK    6  A    between atoms: C_15  and  C_17
REMARK    7  A    between atoms: C_17  and  N_18
REMARK                            x       y       z     vdW  Elec       q    Type
REMARK                         _______ _______ _______ _____ _____    ______ ____
ROOT
ATOM      1  N   UNL     1       2.943  -1.863   7.779  0.00  0.00    -0.314 N 
ATOM      2  C   UNL     1       2.282  -1.801   8.952  0.00  0.00    +0.232 C 
ATOM      3  O   UNL     1       1.101  -2.072   8.997  0.00  0.00    -0.274 OA
ATOM      4  H   UNL     1       3.888  -1.647   7.743  0.00  0.00    +0.149 HD
ENDROOT
BRANCH   1   5
ATOM      5  C   UNL     1       2.235  -2.258   6.559  0.00  0.00    +0.108 C 
BRANCH   5   6
ATOM      6  C   UNL     1       3.208  -2.249   5.379  0.00  0.00    +0.052 C 
BRANCH   6  11
ATOM      7  C   UNL     1       0.624  -0.617   1.039  0.00  0.00    +0.122 A 
ATOM      8  C   UNL     1       1.200   0.178   2.049  0.00  0.00    +0.046 A 
ATOM      9  C   UNL     1       1.834  -0.371   3.107  0.00  0.00    +0.013 A 
ATOM     10  C   UNL     1       1.923  -1.834   3.206  0.00  0.00    -0.001 A 
ATOM     11  C   UNL     1       2.479  -2.655   4.124  0.00  0.00    -0.040 C 
ATOM     12  C   UNL     1       2.224  -4.064   3.638  0.00  0.00    +0.144 C 
ATOM     13  N   UNL     1       1.482  -3.928   2.379  0.00  0.00    -0.380 N 
ATOM     14  C   UNL     1       1.310  -2.649   2.133  0.00  0.00    +0.046 A 
ATOM     15  C   UNL     1       0.664  -1.974   1.067  0.00  0.00    +0.071 A 
ATOM     16  H   UNL     1       1.170  -4.659   1.823  0.00  0.00    +0.160 HD
BRANCH   7  18
ATOM     17  C   UNL     1      -0.017   1.425   0.010  0.00  0.00    +0.277 C 
ATOM     18  O   UNL     1       0.002  -0.004   0.002  0.00  0.00    -0.495 OA
ENDBRANCH   7  18
ENDBRANCH   6  11
ENDBRANCH   5   6
ENDBRANCH   1   5
BRANCH   2  19
ATOM     19  C   UNL     1       3.010  -1.394  10.207  0.00  0.00    +0.224 C 
BRANCH  19  20
ATOM     20  N   UNL     1       2.079  -1.404  11.337  0.00  0.00    -0.208 N 
ATOM     21  C   UNL     1       1.931  -2.538  12.060  0.00  0.00    +0.264 C 
ATOM     22  O   UNL     1       2.624  -3.514  11.849  0.00  0.00    -0.269 OA
ATOM     23  C   UNL     1       0.899  -2.546  13.115  0.00  0.00    +0.060 A 
ATOM     24  C   UNL     1       0.810  -3.543  14.078  0.00  0.00    +0.015 A 
ATOM     25  C   UNL     1      -0.190  -3.476  15.028  0.00  0.00    +0.001 A 
ATOM     26  C   UNL     1      -1.097  -2.427  15.025  0.00  0.00    +0.002 A 
ATOM     27  C   UNL     1      -1.017  -1.428  14.072  0.00  0.00    +0.025 A 
ATOM     28  C   UNL     1      -0.021  -1.479  13.115  0.00  0.00    +0.055 A 
ATOM     29  N   UNL     1       0.133  -0.512  12.129  0.00  0.00    -0.264 N 
ATOM     30  N   UNL     1       1.388  -0.270  11.636  0.00  0.00    -0.158 NA
ATOM     31  H   UNL     1      -0.633  -0.017  11.798  0.00  0.00    +0.168 HD
ATOM     32  H   UNL     1       1.917   0.322  12.259  0.00  0.00    +0.168 HD
ENDBRANCH  19  20
ENDBRANCH   2  19
TORSDOF 6
