REMARK  Name = ZINC48502773
REMARK  7 active torsions:
REMARK  status: ('A' for Active; 'I' for Inactive)
REMARK    1  A    between atoms: C_1  and  N_2
REMARK    2  A    between atoms: C_3  and  C_5
REMARK    3  A    between atoms: C_9  and  N_11
REMARK    4  A    between atoms: N_14  and  C_15
REMARK    5  A    between atoms: C_15  and  C_16
REMARK    6  A    between atoms: C_16  and  C_18
REMARK    7  A    between atoms: C_16  and  O_26
REMARK                            x       y       z     vdW  Elec       q    Type
REMARK                         _______ _______ _______ _____ _____    ______ ____
ROOT
ATOM      1  N   UNL     1       1.838  -4.906  -3.133  0.00  0.00    -0.268 N 
ATOM      2  C   UNL     1       2.319  -4.230  -4.194  0.00  0.00    +0.304 C 
ATOM      3  O   UNL     1       2.307  -3.014  -4.197  0.00  0.00    -0.253 OA
ATOM      4  N   UNL     1       2.814  -4.902  -5.253  0.00  0.00    -0.296 N 
ATOM      5  H   UNL     1       1.907  -5.873  -3.102  0.00  0.00    +0.156 HD
ATOM      6  H   UNL     1       2.824  -5.872  -5.250  0.00  0.00    +0.150 HD
ENDROOT
BRANCH   1  11
ATOM      7  C   UNL     1       1.114  -2.279  -0.649  0.00  0.00    +0.039 A 
ATOM      8  C   UNL     1       0.036  -2.852   0.028  0.00  0.00    +0.014 A 
ATOM      9  C   UNL     1      -0.432  -4.094  -0.347  0.00  0.00    +0.022 A 
ATOM     10  C   UNL     1       0.164  -4.776  -1.394  0.00  0.00    +0.062 A 
ATOM     11  C   UNL     1       1.238  -4.213  -2.074  0.00  0.00    +0.054 A 
ATOM     12  C   UNL     1       1.711  -2.963  -1.708  0.00  0.00    +0.038 A 
ATOM     13 CL   UNL     1      -0.431  -6.339  -1.859  0.00  0.00    -0.082 Cl
BRANCH   7  16
ATOM     14  C   UNL     1       1.538   1.031   1.171  0.00  0.00    +0.128 C 
ATOM     15  N   UNL     1       1.039  -0.288   0.774  0.00  0.00    -0.314 N 
ATOM     16  C   UNL     1       1.617  -0.948  -0.249  0.00  0.00    +0.244 C 
ATOM     17  O   UNL     1       2.553  -0.448  -0.843  0.00  0.00    -0.270 OA
ATOM     18  H   UNL     1       0.292  -0.687   1.248  0.00  0.00    +0.149 HD
ENDBRANCH   7  16
ENDBRANCH   1  11
BRANCH   4  19
ATOM     19  C   UNL     1       3.338  -4.167  -6.407  0.00  0.00    +0.141 C 
BRANCH  19  20
ATOM     20  C   UNL     1       3.835  -5.159  -7.461  0.00  0.00    +0.162 C 
BRANCH  20  21
ATOM     21  C   UNL     1       4.373  -4.403  -8.648  0.00  0.00    -0.015 A 
ATOM     22  C   UNL     1       5.683  -3.959  -8.648  0.00  0.00    +0.009 A 
ATOM     23  C   UNL     1       6.179  -3.266  -9.736  0.00  0.00    +0.041 A 
ATOM     24  C   UNL     1       5.365  -3.015 -10.827  0.00  0.00    +0.158 A 
ATOM     25  C   UNL     1       4.052  -3.461 -10.827  0.00  0.00    +0.159 A 
ATOM     26  C   UNL     1       3.559  -4.159  -9.738  0.00  0.00    +0.047 A 
ATOM     27  F   UNL     1       3.255  -3.217 -11.890  0.00  0.00    -0.202 F 
ATOM     28  F   UNL     1       5.849  -2.337 -11.890  0.00  0.00    -0.202 F 
ENDBRANCH  20  21
BRANCH  20  29
ATOM     29  O   UNL     1       4.871  -5.969  -6.902  0.00  0.00    -0.386 OA
ATOM     30  H   UNL     1       5.640  -5.468  -6.596  0.00  0.00    +0.210 HD
ENDBRANCH  20  29
ENDBRANCH  19  20
ENDBRANCH   4  19
TORSDOF 6
