REMARK  Name = ZINC15707423
REMARK  8 active torsions:
REMARK  status: ('A' for Active; 'I' for Inactive)
REMARK    1  A    between atoms: C_1  and  C_2
REMARK    2  A    between atoms: C_2  and  C_3
REMARK    3  A    between atoms: C_2  and  N_4
REMARK    4  A    between atoms: C_5  and  C_7
REMARK    5  A    between atoms: C_7  and  C_8
REMARK    6  A    between atoms: C_8  and  C_9
REMARK    7  A    between atoms: C_18  and  N_21
REMARK    8  A    between atoms: N_24  and  C_25
REMARK                            x       y       z     vdW  Elec       q    Type
REMARK                         _______ _______ _______ _____ _____    ______ ____
ROOT
ATOM      1  C   UNL     1       1.321  -2.052  -1.011  0.00  0.00    -0.050 C 
ATOM      2  C   UNL     1       0.077  -2.726  -1.611  0.00  0.00    +0.089 C 
ATOM      3  N   UNL     1      -1.150  -2.027  -1.253  0.00  0.00    -0.318 N 
ATOM      4  C   UNL     1      -1.200  -0.819  -0.659  0.00  0.00    +0.200 C 
ATOM      5  O   UNL     1      -2.263  -0.260  -0.496  0.00  0.00    -0.278 OA
ATOM      6  C   UNL     1       0.070  -0.177  -0.203  0.00  0.00    +0.021 C 
ATOM      7  C   UNL     1       2.270   0.269  -0.876  0.00  0.00    -0.055 C 
ATOM      8  C   UNL     1       1.649   1.617  -0.429  0.00  0.00    +0.057 C 
ATOM      9  C   UNL     1       0.118   1.351  -0.363  0.00  0.00    +0.014 C 
ATOM     10  H   UNL     1      -1.992  -2.462  -1.458  0.00  0.00    +0.149 HD
ATOM     11  N   UNL     1       1.083  -0.570  -1.146  0.00  0.00    +0.391 N 
ATOM     12  H   UNL     1       0.760  -0.381  -2.102  0.00  0.00    -0.080 HD
ENDROOT
BRANCH   8  13
ATOM     13  N   UNL     1       1.942   2.664  -1.412  0.00  0.00    -0.298 N 
ATOM     14  C   UNL     1       3.064   3.401  -1.296  0.00  0.00    +0.304 C 
ATOM     15  O   UNL     1       3.833   3.197  -0.377  0.00  0.00    -0.253 OA
ATOM     16  N   UNL     1       3.334   4.364  -2.200  0.00  0.00    -0.267 N 
ATOM     17  H   UNL     1       1.328   2.826  -2.145  0.00  0.00    +0.150 HD
ATOM     18  H   UNL     1       2.684   4.580  -2.887  0.00  0.00    +0.156 HD
BRANCH  16  19
ATOM     19  C   UNL     1       4.554   5.052  -2.148  0.00  0.00    +0.070 A 
ATOM     20  C   UNL     1       5.660   4.462  -1.552  0.00  0.00    +0.029 A 
ATOM     21  C   UNL     1       6.862   5.142  -1.502  0.00  0.00    +0.040 A 
ATOM     22  C   UNL     1       6.964   6.411  -2.045  0.00  0.00    +0.126 A 
ATOM     23  C   UNL     1       5.863   7.003  -2.641  0.00  0.00    +0.078 A 
ATOM     24  C   UNL     1       4.660   6.324  -2.699  0.00  0.00    +0.147 A 
ATOM     25  F   UNL     1       3.587   6.899  -3.284  0.00  0.00    -0.203 F 
ATOM     26  F   UNL     1       8.141   7.073  -1.995  0.00  0.00    -0.205 F 
ENDBRANCH  16  19
ENDBRANCH   8  13
BRANCH   1  27
ATOM     27  C   UNL     1       2.570  -2.491  -1.778  0.00  0.00    -0.005 C 
BRANCH  27  28
ATOM     28  C   UNL     1       2.800  -3.988  -1.563  0.00  0.00    +0.094 C 
BRANCH  28  30
ATOM     29  N   UNL     1       4.507  -5.677  -2.156  0.00  0.00    -0.313 N 
ATOM     30  C   UNL     1       4.096  -4.395  -2.216  0.00  0.00    +0.213 C 
ATOM     31  O   UNL     1       4.769  -3.569  -2.796  0.00  0.00    -0.276 OA
ATOM     32  H   UNL     1       3.969  -6.338  -1.693  0.00  0.00    +0.149 HD
BRANCH  29  34
ATOM     33  C   UNL     1       6.315  -7.323  -2.099  0.00  0.00    +0.027 C 
ATOM     34  C   UNL     1       5.767  -6.073  -2.790  0.00  0.00    +0.067 C 
ATOM     35  C   UNL     1       5.520  -6.375  -4.270  0.00  0.00    +0.027 C 
ENDBRANCH  29  34
ENDBRANCH  28  30
ENDBRANCH  27  28
ENDBRANCH   1  27
TORSDOF 6
