REMARK  Name = ZINC11838989
REMARK  10 active torsions:
REMARK  status: ('A' for Active; 'I' for Inactive)
REMARK    1  A    between atoms: C_1  and  O_2
REMARK    2  A    between atoms: O_2  and  C_3
REMARK    3  A    between atoms: C_6  and  C_11
REMARK    4  A    between atoms: C_7  and  O_9
REMARK    5  A    between atoms: O_9  and  C_10
REMARK    6  A    between atoms: C_11  and  N_67
REMARK    7  A    between atoms: C_23  and  N_29
REMARK    8  A    between atoms: C_25  and  O_27
REMARK    9  A    between atoms: O_27  and  C_28
REMARK   10  A    between atoms: C_30  and  C_32
REMARK                            x       y       z     vdW  Elec       q    Type
REMARK                         _______ _______ _______ _____ _____    ______ ____
ROOT
ATOM      1  C   UNL     1      -1.062   2.995  -1.048  0.00  0.00    -0.077 C 
ATOM      2  C   UNL     1      -1.934   3.426  -2.230  0.00  0.00    -0.005 C 
ATOM      3  C   UNL     1      -1.182   3.167  -3.533  0.00  0.00    +0.021 C 
ATOM      4  C   UNL     1      -0.776   1.698  -3.628  0.00  0.00    -0.005 C 
ATOM      5  C   UNL     1       0.058   1.323  -2.400  0.00  0.00    -0.077 C 
ATOM      6  C   UNL     1      -2.032   3.556  -4.718  0.00  0.00    -0.034 A 
ATOM      7  C   UNL     1      -3.086   2.896  -5.328  0.00  0.00    +0.004 A 
ATOM      8  C   UNL     1      -3.722   3.458  -6.418  0.00  0.00    +0.000 A 
ATOM      9  C   UNL     1      -3.305   4.683  -6.904  0.00  0.00    +0.000 A 
ATOM     10  C   UNL     1      -2.254   5.343  -6.298  0.00  0.00    +0.006 A 
ATOM     11  C   UNL     1      -1.615   4.782  -5.205  0.00  0.00    -0.021 A 
ATOM     12  C   UNL     1      -0.457   5.296  -4.376  0.00  0.00    +0.133 C 
ATOM     13  C   UNL     1       0.067   4.064  -3.606  0.00  0.00    +0.153 C 
ATOM     14  N   UNL     1      -0.749   1.556  -1.183  0.00  0.00    +0.383 N 
ATOM     15  H   UNL     1      -1.627   1.030  -1.261  0.00  0.00    -0.081 HD
ENDROOT
BRANCH  12  16
ATOM     16  N   UNL     1      -0.920   6.322  -3.438  0.00  0.00    -0.302 N 
ATOM     17  C   UNL     1      -0.940   7.617  -3.811  0.00  0.00    +0.251 C 
ATOM     18  O   UNL     1      -0.574   7.933  -4.928  0.00  0.00    -0.270 OA
ATOM     19  H   UNL     1      -1.212   6.069  -2.548  0.00  0.00    +0.150 HD
BRANCH  17  20
ATOM     20  C   UNL     1      -1.403   8.643  -2.873  0.00  0.00    +0.074 A 
ATOM     21  C   UNL     1      -1.502  10.013  -3.056  0.00  0.00    +0.021 A 
ATOM     22  C   UNL     1      -1.973  10.753  -2.000  0.00  0.00    +0.008 A 
ATOM     23  C   UNL     1      -2.314  10.120  -0.847  0.00  0.00    +0.046 A 
ATOM     24  S   UNL     1      -1.994   8.453  -1.200  0.00  0.00    -0.092 S 
ENDBRANCH  17  20
ENDBRANCH  12  16
BRANCH  13  25
ATOM     25  O   UNL     1       1.116   3.417  -4.329  0.00  0.00    -0.377 OA
ATOM     26  C   UNL     1       2.429   3.791  -3.908  0.00  0.00    +0.194 C 
ENDBRANCH  13  25
BRANCH  14  27
ATOM     27  C   UNL     1      -0.013   1.086   0.008  0.00  0.00    -0.039 C 
BRANCH  27  31
ATOM     28  C   UNL     1      -2.014   2.466   3.527  0.00  0.00    +0.124 A 
ATOM     29  C   UNL     1      -0.877   3.118   3.070  0.00  0.00    +0.046 A 
ATOM     30  C   UNL     1      -0.229   2.666   1.936  0.00  0.00    +0.009 A 
ATOM     31  C   UNL     1      -0.718   1.572   1.248  0.00  0.00    -0.022 A 
ATOM     32  C   UNL     1      -1.854   0.917   1.701  0.00  0.00    +0.125 A 
ATOM     33  C   UNL     1      -2.503   1.365   2.842  0.00  0.00    +0.091 A 
BRANCH  28  35
ATOM     34  C   UNL     1      -2.088   4.047   5.301  0.00  0.00    +0.277 C 
ATOM     35  O   UNL     1      -2.647   2.906   4.646  0.00  0.00    -0.495 OA
ENDBRANCH  28  35
BRANCH  32  36
ATOM     36  O   UNL     1      -2.331  -0.163   1.027  0.00  0.00    -0.495 OA
ATOM     37  C   UNL     1      -3.505  -0.788   1.550  0.00  0.00    +0.277 C 
ENDBRANCH  32  36
ENDBRANCH  27  31
ENDBRANCH  14  27
TORSDOF 7
