REMARK  Name = ZINC05687431
REMARK  5 active torsions:
REMARK  status: ('A' for Active; 'I' for Inactive)
REMARK    1  A    between atoms: C_4  and  C_7
REMARK    2  A    between atoms: C_8  and  C_20
REMARK    3  A    between atoms: C_10  and  C_13
REMARK    4  A    between atoms: C_16  and  O_19
REMARK    5  A    between atoms: C_23  and  O_26
REMARK                            x       y       z     vdW  Elec       q    Type
REMARK                         _______ _______ _______ _____ _____    ______ ____
ROOT
ATOM      1  C   UNL     1       1.089   2.309   0.004  0.00  0.00    +0.072 A 
ATOM      2  C   UNL     1      -0.018   1.477   0.010  0.00  0.00    +0.072 A 
ATOM      3  N   UNL     1      -1.113   2.254   0.019  0.00  0.00    -0.339 N 
ATOM      4  C   UNL     1      -0.756   3.519   0.027  0.00  0.00    +0.117 A 
ATOM      5  N   UNL     1       0.607   3.599   0.015  0.00  0.00    -0.339 N 
ATOM      6  H   UNL     1       1.306   4.447   0.013  0.00  0.00    +0.167 HD
ATOM      7  H   UNL     1      -2.113   1.795   0.018  0.00  0.00    +0.167 HD
ENDROOT
BRANCH   1  11
ATOM      8  C   UNL     1       5.164   1.118  -0.038  0.00  0.00    +0.000 A 
ATOM      9  C   UNL     1       4.733   2.130  -0.878  0.00  0.00    +0.001 A 
ATOM     10  C   UNL     1       3.411   2.522  -0.870  0.00  0.00    +0.010 A 
ATOM     11  C   UNL     1       2.506   1.895  -0.011  0.00  0.00    +0.000 A 
ATOM     12  C   UNL     1       2.948   0.878   0.839  0.00  0.00    +0.010 A 
ATOM     13  C   UNL     1       4.273   0.493   0.816  0.00  0.00    +0.001 A 
ENDBRANCH   1  11
BRANCH   4  14
ATOM     14  C   UNL     1      -1.682   4.670   0.041  0.00  0.00    +0.016 A 
ATOM     15  C   UNL     1      -1.179   5.973   0.048  0.00  0.00    +0.015 A 
ATOM     16  C   UNL     1      -2.045   7.044   0.055  0.00  0.00    +0.046 A 
ATOM     17  C   UNL     1      -3.417   6.830   0.067  0.00  0.00    +0.117 A 
ATOM     18  C   UNL     1      -3.922   5.536   0.066  0.00  0.00    +0.046 A 
ATOM     19  C   UNL     1      -3.062   4.459   0.053  0.00  0.00    +0.015 A 
BRANCH  17  20
ATOM     20  O   UNL     1      -4.269   7.889   0.080  0.00  0.00    -0.507 OA
ATOM     21  H   UNL     1      -5.356   7.720   0.089  0.00  0.00    +0.292 HD
ENDBRANCH  17  20
ENDBRANCH   4  14
BRANCH   2  22
ATOM     22  C   UNL     1       0.002  -0.004   0.002  0.00  0.00    +0.001 A 
ATOM     23  C   UNL     1       0.990  -0.686  -0.708  0.00  0.00    +0.013 A 
ATOM     24  C   UNL     1       1.010  -2.065  -0.708  0.00  0.00    +0.046 A 
ATOM     25  C   UNL     1       0.040  -2.774  -0.013  0.00  0.00    +0.117 A 
ATOM     26  C   UNL     1      -0.949  -2.099   0.690  0.00  0.00    +0.046 A 
ATOM     27  C   UNL     1      -0.970  -0.720   0.700  0.00  0.00    +0.013 A 
BRANCH  25  28
ATOM     28  O   UNL     1       0.058  -4.133  -0.020  0.00  0.00    -0.507 OA
ATOM     29  H   UNL     1      -0.709  -4.697   0.530  0.00  0.00    +0.292 HD
ENDBRANCH  25  28
ENDBRANCH   2  22
TORSDOF 5
