REMARK  Name = ZINC62257591
REMARK  10 active torsions:
REMARK  status: ('A' for Active; 'I' for Inactive)
REMARK    1  A    between atoms: C_1  and  C_2
REMARK    2  A    between atoms: C_2  and  N_3
REMARK    3  A    between atoms: C_4  and  C_6
REMARK    4  A    between atoms: C_6  and  O_7
REMARK    5  A    between atoms: O_7  and  C_8
REMARK    6  A    between atoms: C_11  and  C_16
REMARK    7  A    between atoms: C_13  and  O_14
REMARK    8  A    between atoms: O_14  and  C_15
REMARK    9  A    between atoms: C_16  and  N_17
REMARK   10  A    between atoms: N_17  and  C_18
REMARK                            x       y       z     vdW  Elec       q    Type
REMARK                         _______ _______ _______ _____ _____    ______ ____
ROOT
ATOM      1  C   UNL     1       2.226  -4.357   3.647  0.00  0.00    +0.163 A 
ATOM      2  C   UNL     1       2.802  -3.601   4.656  0.00  0.00    +0.049 A 
ATOM      3  C   UNL     1       3.436  -4.228   5.713  0.00  0.00    +0.005 A 
ATOM      4  C   UNL     1       3.497  -5.608   5.766  0.00  0.00    -0.061 A 
ATOM      5  C   UNL     1       2.925  -6.367   4.763  0.00  0.00    +0.051 A 
ATOM      6  C   UNL     1       2.283  -5.746   3.704  0.00  0.00    +0.162 A 
ENDROOT
BRANCH   6   7
ATOM      7  O   UNL     1       1.714  -6.492   2.719  0.00  0.00    -0.491 OA
ATOM      8  C   UNL     1       1.811  -7.912   2.843  0.00  0.00    +0.277 C 
ENDBRANCH   6   7
BRANCH   1   9
ATOM      9  O   UNL     1       1.602  -3.742   2.607  0.00  0.00    -0.479 OA
BRANCH   9  10
ATOM     10  C   UNL     1       1.583  -2.313   2.615  0.00  0.00    +0.324 C 
BRANCH  10  12
ATOM     11  N   UNL     1       0.711  -0.489   1.189  0.00  0.00    -0.313 N 
ATOM     12  C   UNL     1       0.854  -1.814   1.394  0.00  0.00    +0.251 C 
ATOM     13  O   UNL     1       0.396  -2.604   0.595  0.00  0.00    -0.272 OA
ATOM     14  H   UNL     1       1.077   0.142   1.827  0.00  0.00    +0.149 HD
BRANCH  11  16
ATOM     15  C   UNL     1      -0.019   1.526   0.010  0.00  0.00    +0.024 C 
ATOM     16  C   UNL     1       0.002  -0.004   0.002  0.00  0.00    +0.101 C 
ENDBRANCH  11  16
ENDBRANCH  10  12
ENDBRANCH   9  10
ENDBRANCH   1   9
BRANCH   4  17
ATOM     17  C   UNL     1       4.189  -6.285   6.920  0.00  0.00    -0.046 C 
BRANCH  17  18
ATOM     18  N   UNL     1       3.220  -6.532   7.996  0.00  0.00    +0.386 N 
ATOM     19  H   UNL     1       2.832  -5.654   8.306  0.00  0.00    -0.085 HD
ATOM     20  H   UNL     1       2.480  -7.125   7.653  0.00  0.00    -0.085 HD
BRANCH  18  21
ATOM     21  C   UNL     1       3.895  -7.192   9.121  0.00  0.00    -0.040 C 
ATOM     22  C   UNL     1       2.882  -7.510  10.242  0.00  0.00    -0.007 C 
ATOM     23  C   UNL     1       2.986  -6.263  11.145  0.00  0.00    +0.034 C 
ATOM     24  C   UNL     1       4.380  -5.721  10.916  0.00  0.00    -0.044 A 
ATOM     25  C   UNL     1       4.903  -6.256   9.752  0.00  0.00    -0.058 A 
ATOM     26  C   UNL     1       6.177  -5.899   9.341  0.00  0.00    +0.004 A 
ATOM     27  C   UNL     1       6.926  -5.012  10.089  0.00  0.00    +0.020 A 
ATOM     28  C   UNL     1       6.403  -4.478  11.253  0.00  0.00    +0.041 A 
ATOM     29  C   UNL     1       5.132  -4.833  11.665  0.00  0.00    +0.023 A 
ATOM     30 CL   UNL     1       7.343  -3.363  12.196  0.00  0.00    -0.084 Cl
ENDBRANCH  18  21
ENDBRANCH  17  18
ENDBRANCH   4  17
TORSDOF 8
