REMARK  Name = ZINC46285572
REMARK  9 active torsions:
REMARK  status: ('A' for Active; 'I' for Inactive)
REMARK    1  A    between atoms: C_1  and  C_2
REMARK    2  A    between atoms: C_2  and  C_4
REMARK    3  A    between atoms: C_2  and  O_21
REMARK    4  A    between atoms: N_6  and  N_7
REMARK    5  A    between atoms: N_10  and  C_11
REMARK    6  A    between atoms: C_11  and  C_12
REMARK    7  A    between atoms: N_18  and  C_19
REMARK    8  A    between atoms: N_18  and  C_20
REMARK    9  A    between atoms: O_21  and  C_22
REMARK                            x       y       z     vdW  Elec       q    Type
REMARK                         _______ _______ _______ _____ _____    ______ ____
ROOT
ATOM      1  N   UNL     1       2.616  -1.144   2.606  0.00  0.00    -0.218 N 
ATOM      2  C   UNL     1       3.953  -1.089   2.764  0.00  0.00    +0.316 C 
ATOM      3  O   UNL     1       4.460  -1.495   3.792  0.00  0.00    -0.251 OA
ATOM      4  N   UNL     1       4.728  -0.583   1.784  0.00  0.00    -0.294 N 
ATOM      5  H   UNL     1       2.058  -1.508   3.311  0.00  0.00    +0.174 HD
ATOM      6  H   UNL     1       4.323  -0.259   0.965  0.00  0.00    +0.151 HD
ENDROOT
BRANCH   1   9
ATOM      7  C   UNL     1       0.694  -0.732   1.263  0.00  0.00    +0.270 C 
ATOM      8  O   UNL     1      -0.004  -1.187   2.145  0.00  0.00    -0.270 OA
ATOM      9  N   UNL     1       2.031  -0.676   1.422  0.00  0.00    -0.230 N 
ATOM     10  H   UNL     1       2.588  -0.312   0.716  0.00  0.00    +0.173 HD
BRANCH   7  12
ATOM     11  C   UNL     1       0.291   1.280  -0.130  0.00  0.00    +0.062 C 
ATOM     12  C   UNL     1       0.064  -0.228  -0.010  0.00  0.00    +0.257 C 
BRANCH  12  13
ATOM     13  O   UNL     1      -1.339  -0.499   0.012  0.00  0.00    -0.477 OA
BRANCH  13  14
ATOM     14  C   UNL     1      -1.966  -0.607  -1.189  0.00  0.00    +0.157 A 
ATOM     15  C   UNL     1      -1.272  -0.344  -2.361  0.00  0.00    +0.048 A 
ATOM     16  C   UNL     1      -1.912  -0.454  -3.581  0.00  0.00    +0.004 A 
ATOM     17  C   UNL     1      -3.242  -0.826  -3.635  0.00  0.00    +0.003 A 
ATOM     18  C   UNL     1      -3.937  -1.089  -2.470  0.00  0.00    +0.042 A 
ATOM     19  C   UNL     1      -3.301  -0.987  -1.246  0.00  0.00    +0.165 A 
ATOM     20  F   UNL     1      -3.978  -1.249  -0.107  0.00  0.00    -0.202 F 
ENDBRANCH  13  14
ENDBRANCH  12  13
ENDBRANCH   7  12
ENDBRANCH   1   9
BRANCH   4  21
ATOM     21  C   UNL     1       6.181  -0.523   1.957  0.00  0.00    +0.141 C 
BRANCH  21  22
ATOM     22  C   UNL     1       6.809   0.079   0.726  0.00  0.00    -0.026 A 
ATOM     23  C   UNL     1       7.201  -0.724  -0.337  0.00  0.00    +0.023 A 
ATOM     24  C   UNL     1       7.772  -0.142  -1.450  0.00  0.00    +0.084 A 
ATOM     25  N   UNL     1       7.949   1.165  -1.515  0.00  0.00    -0.350 N 
ATOM     26  C   UNL     1       7.588   1.964  -0.523  0.00  0.00    +0.098 A 
ATOM     27  C   UNL     1       7.001   1.445   0.627  0.00  0.00    +0.047 A 
ATOM     28  N   UNL     1       7.793   3.334  -0.633  0.00  0.00    -0.323 N 
ATOM     29  C   UNL     1       8.405   3.888  -1.843  0.00  0.00    +0.130 C 
ATOM     30  C   UNL     1       7.397   4.225   0.461  0.00  0.00    +0.130 C 
ATOM     31  H   UNL     1       8.352   1.548  -2.309  0.00  0.00    +0.166 HD
ENDBRANCH  21  22
ENDBRANCH   4  21
TORSDOF 6
