REMARK  Name = ZINC14158047
REMARK  10 active torsions:
REMARK  status: ('A' for Active; 'I' for Inactive)
REMARK    1  A    between atoms: C_1  and  C_2
REMARK    2  A    between atoms: C_5  and  N_8
REMARK    3  A    between atoms: C_9  and  N_11
REMARK    4  A    between atoms: C_16  and  C_21
REMARK    5  A    between atoms: C_18  and  C_20
REMARK    6  A    between atoms: N_22  and  C_23
REMARK    7  A    between atoms: C_25  and  C_31
REMARK    8  A    between atoms: C_25  and  C_32
REMARK    9  A    between atoms: C_27  and  C_29
REMARK   10  A    between atoms: C_27  and  C_30
REMARK                            x       y       z     vdW  Elec       q    Type
REMARK                         _______ _______ _______ _____ _____    ______ ____
ROOT
ATOM      1  N   UNL     1       0.660  -6.149   1.380  0.00  0.00    -0.129 NA
ATOM      2  C   UNL     1       0.137  -6.712   2.457  0.00  0.00    +0.198 C 
ATOM      3  N   UNL     1       0.131  -6.038   3.647  0.00  0.00    -0.297 N 
ATOM      4  C   UNL     1      -0.051  -4.662   3.665  0.00  0.00    +0.231 A 
ATOM      5  N   UNL     1      -0.287  -4.027   2.527  0.00  0.00    -0.217 NA
ATOM      6  C   UNL     1      -0.465  -2.716   2.509  0.00  0.00    +0.044 A 
ATOM      7  C   UNL     1      -0.401  -2.008   3.699  0.00  0.00    +0.046 A 
ATOM      8  C   UNL     1      -0.152  -2.705   4.871  0.00  0.00    +0.044 A 
ATOM      9  N   UNL     1       0.011  -4.016   4.819  0.00  0.00    -0.217 NA
ATOM     10  C   UNL     1      -0.074  -1.978   6.189  0.00  0.00    +0.066 C 
ATOM     11  C   UNL     1      -0.733  -2.001   1.209  0.00  0.00    +0.066 C 
ATOM     12  N   UNL     1      -0.397  -7.965   2.380  0.00  0.00    -0.355 N 
ATOM     13  H   UNL     1       0.254  -6.522   4.479  0.00  0.00    +0.171 HD
ATOM     14  H   UNL     1      -0.340  -8.467   1.551  0.00  0.00    +0.163 HD
ENDROOT
BRANCH  12  15
ATOM     15  C   UNL     1      -1.058  -8.555   3.551  0.00  0.00    +0.079 C 
ATOM     16  C   UNL     1      -0.005  -9.219   4.440  0.00  0.00    +0.011 C 
ATOM     17  C   UNL     1      -0.679  -9.849   5.659  0.00  0.00    -0.071 C 
ATOM     18  N   UNL     1      -1.748 -10.762   5.283  0.00  0.00    +0.386 N 
ATOM     19  C   UNL     1      -2.700 -10.311   4.281  0.00  0.00    -0.071 C 
ATOM     20  C   UNL     1      -2.040  -9.630   3.087  0.00  0.00    +0.011 C 
ATOM     21  C   UNL     1      -3.438 -11.562   3.745  0.00  0.00    -0.010 C 
ATOM     22  C   UNL     1      -3.764  -9.390   4.885  0.00  0.00    -0.010 C 
ATOM     23  C   UNL     1      -1.161  -8.761   6.617  0.00  0.00    -0.010 C 
ATOM     24  C   UNL     1       0.398 -10.672   6.404  0.00  0.00    -0.010 C 
ATOM     25  H   UNL     1      -1.325 -11.634   4.955  0.00  0.00    -0.084 HD
ATOM     26  H   UNL     1      -2.265 -11.017   6.128  0.00  0.00    -0.084 HD
ENDBRANCH  12  15
BRANCH   1  28
ATOM     27  N   UNL     1       2.001  -4.506   0.420  0.00  0.00    -0.268 N 
ATOM     28  C   UNL     1       1.564  -5.168   1.510  0.00  0.00    +0.330 C 
ATOM     29  O   UNL     1       1.990  -4.873   2.612  0.00  0.00    -0.250 OA
ATOM     30  H   UNL     1       1.622  -4.703  -0.452  0.00  0.00    +0.156 HD
BRANCH  27  35
ATOM     31  C   UNL     1       6.053  -0.569   0.927  0.00  0.00    +0.044 C 
ATOM     32  C   UNL     1       4.976  -1.615   0.792  0.00  0.00    -0.050 A 
ATOM     33  C   UNL     1       3.988  -1.468  -0.163  0.00  0.00    +0.005 A 
ATOM     34  C   UNL     1       3.000  -2.425  -0.290  0.00  0.00    +0.023 A 
ATOM     35  C   UNL     1       3.000  -3.535   0.544  0.00  0.00    +0.035 A 
ATOM     36  C   UNL     1       3.994  -3.680   1.503  0.00  0.00    +0.023 A 
ATOM     37  C   UNL     1       4.983  -2.722   1.621  0.00  0.00    +0.005 A 
ENDBRANCH  27  35
ENDBRANCH   1  28
TORSDOF 3
