REMARK  Name = ZINC09229206
REMARK  8 active torsions:
REMARK  status: ('A' for Active; 'I' for Inactive)
REMARK    1  A    between atoms: C_1  and  C_2
REMARK    2  A    between atoms: C_2  and  N_68
REMARK    3  A    between atoms: C_6  and  C_8
REMARK    4  A    between atoms: C_8  and  N_9
REMARK    5  A    between atoms: C_10  and  C_12
REMARK    6  A    between atoms: C_18  and  C_20
REMARK    7  A    between atoms: C_23  and  N_25
REMARK    8  A    between atoms: C_26  and  C_34
REMARK                            x       y       z     vdW  Elec       q    Type
REMARK                         _______ _______ _______ _____ _____    ______ ____
ROOT
ATOM      1  C   UNL     1      -3.423   3.511   5.067  0.00  0.00    +0.078 C 
ATOM      2  C   UNL     1      -3.022   2.134   5.602  0.00  0.00    +0.032 C 
ATOM      3  C   UNL     1      -2.635   2.258   7.079  0.00  0.00    +0.109 C 
ATOM      4  N   UNL     1      -3.745   2.887   7.807  0.00  0.00    -0.297 N 
ATOM      5  C   UNL     1      -4.270   4.171   7.322  0.00  0.00    +0.109 C 
ATOM      6  C   UNL     1      -4.638   4.026   5.842  0.00  0.00    +0.032 C 
ATOM      7  C   UNL     1      -4.272   2.298   8.898  0.00  0.00    +0.253 C 
ATOM      8  O   UNL     1      -5.277   2.756   9.412  0.00  0.00    -0.269 OA
ENDROOT
BRANCH   7   9
ATOM      9  C   UNL     1      -3.638   1.109   9.465  0.00  0.00    +0.076 A 
ATOM     10  C   UNL     1      -4.105   0.263  10.461  0.00  0.00    +0.023 A 
ATOM     11  C   UNL     1      -3.308  -0.794  10.810  0.00  0.00    +0.035 A 
ATOM     12  C   UNL     1      -2.097  -0.953  10.171  0.00  0.00    +0.086 A 
ATOM     13  S   UNL     1      -2.062   0.379   9.061  0.00  0.00    -0.066 S 
BRANCH  12  14
ATOM     14  N   UNL     1      -1.138  -1.940  10.368  0.00  0.00    -0.307 N 
ATOM     15  C   UNL     1      -1.314  -3.274  10.107  0.00  0.00    +0.022 A 
ATOM     16  C   UNL     1      -0.195  -3.951  10.406  0.00  0.00    +0.031 A 
ATOM     17  C   UNL     1       0.780  -2.974  10.900  0.00  0.00    +0.000 A 
ATOM     18  C   UNL     1       0.137  -1.723  10.851  0.00  0.00    +0.054 A 
ATOM     19  C   UNL     1       0.824  -0.587  11.259  0.00  0.00    +0.027 A 
ATOM     20  C   UNL     1       2.125  -0.696  11.704  0.00  0.00    +0.002 A 
ATOM     21  C   UNL     1       2.756  -1.931  11.748  0.00  0.00    +0.001 A 
ATOM     22  C   UNL     1       2.095  -3.062  11.358  0.00  0.00    +0.010 A 
ATOM     23  C   UNL     1      -2.578  -3.890   9.563  0.00  0.00    +0.064 C 
ENDBRANCH  12  14
ENDBRANCH   7   9
BRANCH   1  25
ATOM     24  N   UNL     1      -2.849   2.964   2.724  0.00  0.00    -0.317 N 
ATOM     25  C   UNL     1      -3.772   3.400   3.605  0.00  0.00    +0.216 C 
ATOM     26  O   UNL     1      -4.882   3.702   3.221  0.00  0.00    -0.276 OA
ATOM     27  H   UNL     1      -1.962   2.721   3.031  0.00  0.00    +0.149 HD
BRANCH  24  28
ATOM     28  C   UNL     1      -3.188   2.855   1.303  0.00  0.00    +0.089 C 
BRANCH  28  32
ATOM     29  C   UNL     1      -1.117   0.117  -0.098  0.00  0.00    -0.078 C 
ATOM     30  C   UNL     1      -1.455   0.877  -1.394  0.00  0.00    -0.020 C 
ATOM     31  C   UNL     1      -2.370   2.042  -0.952  0.00  0.00    -0.016 C 
ATOM     32  C   UNL     1      -2.028   2.200   0.550  0.00  0.00    -0.051 C 
ATOM     33  N   UNL     1      -1.831   0.809   0.979  0.00  0.00    +0.382 N 
ATOM     34  H   UNL     1      -2.743   0.363   1.134  0.00  0.00    -0.081 HD
BRANCH  33  36
ATOM     35  C   UNL     1       0.167   1.688   2.119  0.00  0.00    -0.017 C 
ATOM     36  C   UNL     1      -1.037   0.752   2.245  0.00  0.00    -0.082 C 
ENDBRANCH  33  36
ENDBRANCH  28  32
ENDBRANCH  24  28
ENDBRANCH   1  25
TORSDOF 6
