REMARK  Name = ZINC01041984
REMARK  11 active torsions:
REMARK  status: ('A' for Active; 'I' for Inactive)
REMARK    1  A    between atoms: C_1  and  O_2
REMARK    2  A    between atoms: O_2  and  C_3
REMARK    3  A    between atoms: C_8  and  O_9
REMARK    4  A    between atoms: O_9  and  C_10
REMARK    5  A    between atoms: C_12  and  O_25
REMARK    6  A    between atoms: C_14  and  O_24
REMARK    7  A    between atoms: C_16  and  O_23
REMARK    8  A    between atoms: C_18  and  C_21
REMARK    9  A    between atoms: C_21  and  O_22
REMARK   10  A    between atoms: C_30  and  O_37
REMARK   11  A    between atoms: O_37  and  C_38
REMARK                            x       y       z     vdW  Elec       q    Type
REMARK                         _______ _______ _______ _____ _____    ______ ____
ROOT
ATOM      1  C   UNL     1      -0.787   2.893   1.346  0.00  0.00    +0.162 A 
ATOM      2  C   UNL     1      -0.261   3.752   0.399  0.00  0.00    +0.052 A 
ATOM      3  C   UNL     1      -0.367   5.127   0.559  0.00  0.00    -0.047 A 
ATOM      4  C   UNL     1      -0.988   5.645   1.672  0.00  0.00    -0.043 A 
ATOM      5  C   UNL     1      -1.523   4.785   2.624  0.00  0.00    +0.053 A 
ATOM      6  C   UNL     1      -1.431   3.415   2.464  0.00  0.00    +0.166 A 
ATOM      7  C   UNL     1      -1.107   7.120   1.908  0.00  0.00    +0.017 C 
ATOM      8  C   UNL     1      -0.460   7.968   0.846  0.00  0.00    -0.072 C 
ATOM      9  C   UNL     1       0.195   6.009  -0.523  0.00  0.00    -0.011 C 
ATOM     10  C   UNL     1       1.712   5.957  -0.521  0.00  0.00    +0.033 C 
ATOM     11  C   UNL     1       2.254   4.617  -0.968  0.00  0.00    +0.140 C 
ATOM     12  C   UNL     1       1.550   3.994  -2.124  0.00  0.00    +0.004 C 
ATOM     13  C   UNL     1       0.354   4.369  -2.560  0.00  0.00    +0.000 C 
ATOM     14  C   UNL     1      -0.304   5.487  -1.862  0.00  0.00    -0.059 C 
ATOM     15  C   UNL     1      -1.331   6.220  -2.257  0.00  0.00    -0.043 C 
ATOM     16  C   UNL     1      -1.581   7.303  -1.224  0.00  0.00    -0.049 C 
ATOM     17  N   UNL     1      -0.308   7.365  -0.532  0.00  0.00    +0.391 N 
ATOM     18  H   UNL     1       0.341   7.956  -1.064  0.00  0.00    -0.080 HD
ENDROOT
BRANCH   1  20
ATOM     19  C   UNL     1      -0.013   1.086   0.008  0.00  0.00    +0.277 C 
ATOM     20  O   UNL     1      -0.682   1.547   1.184  0.00  0.00    -0.491 OA
ENDBRANCH   1  20
BRANCH  11  21
ATOM     21  O   UNL     1       2.186   3.715   0.138  0.00  0.00    -0.376 OA
ATOM     22  C   UNL     1       3.202   2.710   0.132  0.00  0.00    +0.194 C 
ENDBRANCH  11  21
BRANCH   6  23
ATOM     23  O   UNL     1      -1.962   2.581   3.398  0.00  0.00    -0.457 OA
BRANCH  23  24
ATOM     24  C   UNL     1      -2.608   3.189   4.519  0.00  0.00    +0.339 C 
ATOM     25  C   UNL     1      -2.917   2.121   5.571  0.00  0.00    +0.214 C 
ATOM     26  C   UNL     1      -3.662   2.769   6.742  0.00  0.00    +0.180 C 
ATOM     27  C   UNL     1      -4.929   3.448   6.213  0.00  0.00    +0.177 C 
ATOM     28  C   UNL     1      -4.542   4.465   5.136  0.00  0.00    +0.179 C 
ATOM     29  O   UNL     1      -3.826   3.802   4.092  0.00  0.00    -0.331 OA
BRANCH  27  30
ATOM     30  O   UNL     1      -5.595   4.117   7.285  0.00  0.00    -0.386 OA
ATOM     31  H   UNL     1      -5.865   3.533   8.007  0.00  0.00    +0.210 HD
ENDBRANCH  27  30
BRANCH  26  32
ATOM     32  O   UNL     1      -4.019   1.767   7.696  0.00  0.00    -0.386 OA
ATOM     33  H   UNL     1      -3.264   1.291   8.067  0.00  0.00    +0.210 HD
ENDBRANCH  26  32
BRANCH  25  34
ATOM     34  O   UNL     1      -1.696   1.547   6.042  0.00  0.00    -0.383 OA
ATOM     35  H   UNL     1      -1.169   1.122   5.351  0.00  0.00    +0.210 HD
ENDBRANCH  25  34
BRANCH  28  36
ATOM     36  C   UNL     1      -5.807   5.104   4.560  0.00  0.00    +0.190 C 
BRANCH  36  37
ATOM     37  O   UNL     1      -5.444   6.135   3.639  0.00  0.00    -0.392 OA
ATOM     38  H   UNL     1      -6.198   6.585   3.234  0.00  0.00    +0.210 HD
ENDBRANCH  36  37
ENDBRANCH  28  36
ENDBRANCH  23  24
ENDBRANCH   6  23
TORSDOF 9
