REMARK  Name = ZINC62730080
REMARK  9 active torsions:
REMARK  status: ('A' for Active; 'I' for Inactive)
REMARK    1  A    between atoms: C_1  and  O_2
REMARK    2  A    between atoms: O_2  and  C_3
REMARK    3  A    between atoms: C_3  and  C_4
REMARK    4  A    between atoms: C_4  and  N_5
REMARK    5  A    between atoms: N_5  and  C_6
REMARK    6  A    between atoms: C_6  and  C_7
REMARK    7  A    between atoms: C_12  and  O_13
REMARK    8  A    between atoms: O_13  and  C_14
REMARK    9  A    between atoms: C_14  and  C_15
REMARK                            x       y       z     vdW  Elec       q    Type
REMARK                         _______ _______ _______ _____ _____    ______ ____
ROOT
ATOM      1  C   UNL     1       0.279  -4.481   2.518  0.00  0.00    -0.022 A 
ATOM      2  C   UNL     1       1.628  -4.778   2.535  0.00  0.00    +0.020 A 
ATOM      3  C   UNL     1       2.231  -5.193   3.709  0.00  0.00    +0.018 A 
ATOM      4  C   UNL     1       1.485  -5.310   4.868  0.00  0.00    +0.019 A 
ATOM      5  C   UNL     1       0.136  -5.013   4.856  0.00  0.00    +0.047 A 
ATOM      6  C   UNL     1      -0.470  -4.592   3.681  0.00  0.00    +0.123 A 
ATOM      7 BR   UNL     1       4.077  -5.600   3.729  0.00  0.00    -0.050 Br
ENDROOT
BRANCH   1   8
ATOM      8  C   UNL     1      -0.378  -4.029   1.239  0.00  0.00    -0.043 C 
BRANCH   8   9
ATOM      9  N   UNL     1      -0.514  -2.567   1.248  0.00  0.00    +0.383 N 
ATOM     10  H   UNL     1       0.400  -2.144   1.325  0.00  0.00    -0.085 HD
ATOM     11  H   UNL     1      -1.081  -2.286   2.035  0.00  0.00    -0.085 HD
BRANCH   9  12
ATOM     12  C   UNL     1      -1.154  -2.126   0.002  0.00  0.00    -0.054 C 
BRANCH  12  13
ATOM     13  C   UNL     1      -1.295  -0.603   0.011  0.00  0.00    +0.140 C 
BRANCH  13  15
ATOM     14  C   UNL     1      -0.017   1.425   0.010  0.00  0.00    +0.193 C 
ATOM     15  O   UNL     1       0.002  -0.004   0.002  0.00  0.00    -0.385 OA
ENDBRANCH  13  15
ENDBRANCH  12  13
ENDBRANCH   9  12
ENDBRANCH   8   9
ENDBRANCH   1   8
BRANCH   6  16
ATOM     16  O   UNL     1      -1.796  -4.295   3.668  0.00  0.00    -0.483 OA
BRANCH  16  17
ATOM     17  C   UNL     1      -2.504  -4.433   4.901  0.00  0.00    +0.325 C 
BRANCH  17  18
ATOM     18  C   UNL     1      -3.950  -4.063   4.694  0.00  0.00    +0.258 C 
ATOM     19  O   UNL     1      -4.336  -3.716   3.599  0.00  0.00    -0.272 OA
ATOM     20  N   UNL     1      -4.814  -4.118   5.727  0.00  0.00    -0.238 N 
ATOM     21  C   UNL     1      -6.108  -3.787   5.542  0.00  0.00    +0.303 C 
ATOM     22  O   UNL     1      -6.495  -3.439   4.444  0.00  0.00    -0.253 OA
ATOM     23  N   UNL     1      -6.972  -3.842   6.575  0.00  0.00    -0.313 N 
ATOM     24  H   UNL     1      -4.505  -4.396   6.604  0.00  0.00    +0.159 HD
ATOM     25  H   UNL     1      -6.663  -4.120   7.451  0.00  0.00    +0.146 HD
ATOM     26  H   UNL     1      -7.903  -3.604   6.442  0.00  0.00    +0.146 HD
ENDBRANCH  17  18
ENDBRANCH  16  17
ENDBRANCH   6  16
TORSDOF 8
