REMARK  Name = ZINC63170984
REMARK  7 active torsions:
REMARK  status: ('A' for Active; 'I' for Inactive)
REMARK    1  A    between atoms: C_1  and  C_2
REMARK    2  A    between atoms: C_2  and  C_4
REMARK    3  A    between atoms: C_2  and  N_17
REMARK    4  A    between atoms: C_4  and  C_5
REMARK    5  A    between atoms: C_5  and  N_6
REMARK    6  A    between atoms: N_6  and  S_7
REMARK    7  A    between atoms: S_7  and  C_10
REMARK                            x       y       z     vdW  Elec       q    Type
REMARK                         _______ _______ _______ _____ _____    ______ ____
ROOT
ATOM      1  N   UNL     1       1.581  -2.519   2.358  0.00  0.00    -0.190 NA
ATOM      2  H   UNL     1       2.070  -1.897   2.918  0.00  0.00    +0.148 HD
ENDROOT
BRANCH   1   3
ATOM      3  S   UNL     1       1.545  -4.129   2.742  0.00  0.00    +0.058 S 
ATOM      4  O   UNL     1       2.336  -4.285   3.913  0.00  0.00    -0.153 OA
ATOM      5  O   UNL     1       0.184  -4.531   2.684  0.00  0.00    -0.153 OA
BRANCH   3   6
ATOM      6  C   UNL     1       2.381  -4.991   1.452  0.00  0.00    +0.105 A 
ATOM      7  C   UNL     1       1.674  -5.443   0.353  0.00  0.00    +0.029 A 
ATOM      8  C   UNL     1       2.329  -6.119  -0.659  0.00  0.00    +0.016 A 
ATOM      9  C   UNL     1       3.691  -6.344  -0.572  0.00  0.00    +0.013 A 
ATOM     10  C   UNL     1       4.397  -5.892   0.528  0.00  0.00    +0.016 A 
ATOM     11  C   UNL     1       3.743  -5.211   1.537  0.00  0.00    +0.029 A 
ATOM     12  I   UNL     1       4.684  -7.370  -2.105  0.00  0.00    -0.044 I 
ENDBRANCH   3   6
ENDBRANCH   1   3
BRANCH   1  13
ATOM     13  C   UNL     1       0.872  -2.034   1.171  0.00  0.00    +0.104 C 
BRANCH  13  14
ATOM     14  C   UNL     1       0.742  -0.511   1.242  0.00  0.00    +0.000 C 
BRANCH  14  16
ATOM     15  C   UNL     1      -0.019   1.526   0.010  0.00  0.00    -0.014 C 
ATOM     16  C   UNL     1       0.002  -0.004   0.002  0.00  0.00    -0.077 C 
BRANCH  16  17
ATOM     17  N   UNL     1      -1.376  -0.512   0.012  0.00  0.00    +0.380 N 
ATOM     18  H   UNL     1      -1.864  -0.178  -0.805  0.00  0.00    -0.090 HD
ATOM     19  H   UNL     1      -1.362  -1.521   0.007  0.00  0.00    -0.090 HD
ATOM     20  H   UNL     1      -1.848  -0.187   0.843  0.00  0.00    -0.090 HD
ENDBRANCH  16  17
ENDBRANCH  14  16
ENDBRANCH  13  14
ENDBRANCH   1  13
TORSDOF 6
