REMARK  Name = ZINC62235152
REMARK  5 active torsions:
REMARK  status: ('A' for Active; 'I' for Inactive)
REMARK    1  A    between atoms: C_1  and  C_2
REMARK    2  A    between atoms: C_2  and  N_3
REMARK    3  A    between atoms: N_3  and  C_4
REMARK    4  A    between atoms: C_4  and  C_6
REMARK    5  A    between atoms: C_4  and  C_19
REMARK                            x       y       z     vdW  Elec       q    Type
REMARK                         _______ _______ _______ _____ _____    ______ ____
ROOT
ATOM      1  C   UNL     1       1.723  -2.378  -2.278  0.00  0.00    -0.045 A 
ATOM      2  C   UNL     1       2.033  -1.498  -3.296  0.00  0.00    +0.031 A 
ATOM      3  C   UNL     1       2.867  -1.901  -4.327  0.00  0.00    +0.067 A 
ATOM      4  C   UNL     1       3.392  -3.195  -4.332  0.00  0.00    +0.068 A 
ATOM      5  C   UNL     1       3.075  -4.072  -3.307  0.00  0.00    +0.043 A 
ATOM      6  C   UNL     1       2.247  -3.660  -2.280  0.00  0.00    +0.022 A 
ATOM      7 BR   UNL     1       1.822  -4.854  -0.876  0.00  0.00    -0.050 Br
ATOM      8  N   UNL     1       4.181  -3.305  -5.474  0.00  0.00    -0.306 N 
ATOM      9  H   UNL     1       4.676  -4.092  -5.749  0.00  0.00    +0.170 HD
ATOM     10  C   UNL     1       4.139  -2.132  -6.134  0.00  0.00    +0.325 A 
ATOM     11  O   UNL     1       4.721  -1.892  -7.175  0.00  0.00    -0.247 OA
ATOM     12  N   UNL     1       3.355  -1.264  -5.466  0.00  0.00    -0.306 N 
ATOM     13  H   UNL     1       3.162  -0.352  -5.734  0.00  0.00    +0.170 HD
ENDROOT
BRANCH   1  14
ATOM     14  C   UNL     1       0.816  -1.941  -1.157  0.00  0.00    -0.034 C 
BRANCH  14  15
ATOM     15  C   UNL     1      -0.641  -2.193  -1.552  0.00  0.00    +0.005 C 
ATOM     16  C   UNL     1      -0.963  -1.426  -2.838  0.00  0.00    +0.007 C 
ATOM     17  C   UNL     1      -2.398  -1.747  -3.265  0.00  0.00    +0.028 C 
ATOM     18  C   UNL     1      -2.543  -3.261  -3.440  0.00  0.00    +0.160 C 
ATOM     19  O   UNL     1      -2.200  -3.916  -2.217  0.00  0.00    -0.380 OA
ATOM     20  C   UNL     1      -0.854  -3.690  -1.791  0.00  0.00    +0.162 C 
ENDBRANCH  14  15
BRANCH  14  21
ATOM     21  N   UNL     1       1.012  -0.508  -0.899  0.00  0.00    +0.384 N 
ATOM     22  H   UNL     1       0.702   0.023  -1.699  0.00  0.00    -0.085 HD
ATOM     23  H   UNL     1       1.991  -0.327  -0.735  0.00  0.00    -0.085 HD
BRANCH  21  25
ATOM     24  C   UNL     1       0.544   1.346   0.631  0.00  0.00    -0.017 C 
ATOM     25  C   UNL     1       0.235  -0.112   0.283  0.00  0.00    -0.085 C 
ENDBRANCH  21  25
ENDBRANCH  14  21
ENDBRANCH   1  14
TORSDOF 4
