REMARK  Name = ZINC53113535
REMARK  8 active torsions:
REMARK  status: ('A' for Active; 'I' for Inactive)
REMARK    1  A    between atoms: C_1  and  C_2
REMARK    2  A    between atoms: C_7  and  C_9
REMARK    3  A    between atoms: C_7  and  N_11
REMARK    4  A    between atoms: C_9  and  O_10
REMARK    5  A    between atoms: N_11  and  S_12
REMARK    6  A    between atoms: S_12  and  C_15
REMARK    7  A    between atoms: C_15  and  C_16
REMARK    8  A    between atoms: C_21  and  N_22
REMARK                            x       y       z     vdW  Elec       q    Type
REMARK                         _______ _______ _______ _____ _____    ______ ____
ROOT
ATOM      1  S   UNL     1       1.593   2.091   2.413  0.00  0.00    +0.034 S 
ATOM      2  O   UNL     1       1.406   3.499   2.393  0.00  0.00    -0.158 OA
ATOM      3  O   UNL     1       0.477   1.212   2.443  0.00  0.00    -0.158 OA
ENDROOT
BRANCH   1   4
ATOM      4  N   UNL     1       2.363   1.747   0.988  0.00  0.00    -0.186 NA
ATOM      5  H   UNL     1       2.675   2.468   0.418  0.00  0.00    +0.148 HD
BRANCH   4  11
ATOM      6  C   UNL     1       0.306   1.910  -0.423  0.00  0.00    +0.007 C 
ATOM      7  C   UNL     1       0.527   0.455  -0.842  0.00  0.00    -0.012 C 
ATOM      8  C   UNL     1       1.401   0.413  -2.097  0.00  0.00    +0.003 C 
ATOM      9  C   UNL     1       2.751   1.068  -1.801  0.00  0.00    +0.002 C 
ATOM     10  C   UNL     1       3.448   0.311  -0.669  0.00  0.00    +0.026 C 
ATOM     11  C   UNL     1       2.574   0.354   0.586  0.00  0.00    +0.063 C 
ATOM     12  C   UNL     1       1.224  -0.302   0.290  0.00  0.00    +0.029 C 
BRANCH  11  13
ATOM     13  C   UNL     1       3.271  -0.403   1.719  0.00  0.00    +0.179 C 
BRANCH  13  14
ATOM     14  O   UNL     1       4.486   0.266   2.062  0.00  0.00    -0.393 OA
ATOM     15  H   UNL     1       4.982  -0.159   2.775  0.00  0.00    +0.209 HD
ENDBRANCH  13  14
ENDBRANCH  11  13
ENDBRANCH   4  11
ENDBRANCH   1   4
BRANCH   1  16
ATOM     16  C   UNL     1       2.781   1.636   3.706  0.00  0.00    +0.222 C 
BRANCH  16  17
ATOM     17  C   UNL     1       2.278   2.118   5.042  0.00  0.00    -0.004 A 
ATOM     18  C   UNL     1       2.613   3.379   5.494  0.00  0.00    +0.007 A 
ATOM     19  C   UNL     1       2.152   3.822   6.720  0.00  0.00    +0.000 A 
ATOM     20  C   UNL     1       1.354   3.004   7.498  0.00  0.00    +0.002 A 
ATOM     21  C   UNL     1       1.014   1.742   7.053  0.00  0.00    +0.023 A 
ATOM     22  C   UNL     1       1.471   1.296   5.819  0.00  0.00    +0.029 A 
BRANCH  22  23
ATOM     23  N   UNL     1       1.125   0.022   5.363  0.00  0.00    -0.358 N 
ATOM     24  H   UNL     1       1.448  -0.290   4.503  0.00  0.00    +0.142 HD
ATOM     25  H   UNL     1       0.562  -0.551   5.907  0.00  0.00    +0.142 HD
ENDBRANCH  22  23
ENDBRANCH  16  17
ENDBRANCH   1  16
TORSDOF 7
