REMARK  Name = ZINC64479906
REMARK  7 active torsions:
REMARK  status: ('A' for Active; 'I' for Inactive)
REMARK    1  A    between atoms: C_1  and  C_2
REMARK    2  A    between atoms: C_2  and  C_4
REMARK    3  A    between atoms: C_2  and  N_18
REMARK    4  A    between atoms: N_6  and  C_7
REMARK    5  A    between atoms: C_7  and  C_8
REMARK    6  A    between atoms: C_8  and  C_9
REMARK    7  A    between atoms: C_27  and  C_29
REMARK                            x       y       z     vdW  Elec       q    Type
REMARK                         _______ _______ _______ _____ _____    ______ ____
ROOT
ATOM      1  N   UNL     1       0.052  -4.883   2.440  0.00  0.00    -0.288 N 
ATOM      2  C   UNL     1      -0.467  -4.102   3.408  0.00  0.00    +0.303 C 
ATOM      3  O   UNL     1      -1.627  -3.744   3.343  0.00  0.00    -0.253 OA
ATOM      4  N   UNL     1       0.299  -3.719   4.448  0.00  0.00    -0.283 N 
ATOM      5  C   UNL     1       1.733  -4.042   4.480  0.00  0.00    +0.128 C 
ATOM      6  C   UNL     1       2.525  -2.742   4.663  0.00  0.00    +0.127 C 
ATOM      7  N   UNL     1       1.943  -1.992   5.785  0.00  0.00    -0.293 N 
ATOM      8  C   UNL     1       0.509  -1.668   5.753  0.00  0.00    +0.127 C 
ATOM      9  C   UNL     1      -0.281  -2.963   5.567  0.00  0.00    +0.128 C 
ATOM     10  C   UNL     1       2.709  -1.608   6.825  0.00  0.00    +0.263 C 
ATOM     11  O   UNL     1       2.200  -1.075   7.793  0.00  0.00    -0.268 OA
ATOM     12  H   UNL     1       0.995  -5.110   2.454  0.00  0.00    +0.151 HD
ENDROOT
BRANCH  10  13
ATOM     13  C   UNL     1       4.162  -1.832   6.789  0.00  0.00    +0.103 A 
ATOM     14  C   UNL     1       4.915  -2.283   7.826  0.00  0.00    +0.040 A 
ATOM     15  C   UNL     1       6.258  -2.360   7.383  0.00  0.00    +0.000 A 
ATOM     16  C   UNL     1       7.454  -2.750   8.000  0.00  0.00    +0.010 A 
ATOM     17  C   UNL     1       8.623  -2.715   7.296  0.00  0.00    +0.001 A 
ATOM     18  C   UNL     1       8.639  -2.297   5.972  0.00  0.00    +0.002 A 
ATOM     19  C   UNL     1       7.477  -1.909   5.343  0.00  0.00    +0.026 A 
ATOM     20  C   UNL     1       6.272  -1.936   6.040  0.00  0.00    +0.047 A 
ATOM     21  N   UNL     1       4.979  -1.623   5.694  0.00  0.00    -0.351 N 
ATOM     22  H   UNL     1       4.687  -1.305   4.825  0.00  0.00    +0.166 HD
ENDBRANCH  10  13
BRANCH   1  24
ATOM     23  C   UNL     1      -0.914  -4.340   0.260  0.00  0.00    +0.038 C 
ATOM     24  C   UNL     1      -0.808  -5.390   1.368  0.00  0.00    +0.157 C 
BRANCH  24  25
ATOM     25  C   UNL     1      -0.216  -6.656   0.804  0.00  0.00    +0.233 C 
ATOM     26  O   UNL     1       0.822  -7.092   1.255  0.00  0.00    -0.274 OA
ATOM     27  N   UNL     1      -0.840  -7.303  -0.200  0.00  0.00    -0.313 N 
ATOM     28  H   UNL     1      -1.670  -6.955  -0.559  0.00  0.00    +0.149 HD
BRANCH  27  29
ATOM     29  C   UNL     1      -0.264  -8.534  -0.747  0.00  0.00    +0.108 C 
BRANCH  29  30
ATOM     30  C   UNL     1      -1.162  -9.063  -1.867  0.00  0.00    +0.052 C 
BRANCH  30  31
ATOM     31  C   UNL     1      -0.570 -10.329  -2.430  0.00  0.00    -0.040 C 
ATOM     32  C   UNL     1      -0.881 -11.598  -2.080  0.00  0.00    -0.001 A 
ATOM     33  C   UNL     1      -1.827 -12.158  -1.107  0.00  0.00    +0.010 A 
ATOM     34  C   UNL     1      -1.917 -13.501  -0.978  0.00  0.00    +0.001 A 
ATOM     35  C   UNL     1      -1.131 -14.370  -1.748  0.00  0.00    +0.002 A 
ATOM     36  C   UNL     1      -0.240 -13.931  -2.662  0.00  0.00    +0.026 A 
ATOM     37  C   UNL     1      -0.063 -12.537  -2.881  0.00  0.00    +0.043 A 
ATOM     38  N   UNL     1       0.723 -11.874  -3.695  0.00  0.00    -0.380 N 
ATOM     39  C   UNL     1       0.487 -10.438  -3.506  0.00  0.00    +0.144 C 
ATOM     40  H   UNL     1       1.351 -12.268  -4.320  0.00  0.00    +0.160 HD
ENDBRANCH  30  31
ENDBRANCH  29  30
ENDBRANCH  27  29
ENDBRANCH  24  25
ENDBRANCH   1  24
TORSDOF 6
