REMARK  Name = ZINC37985176
REMARK  6 active torsions:
REMARK  status: ('A' for Active; 'I' for Inactive)
REMARK    1  A    between atoms: C_3  and  O_17
REMARK    2  A    between atoms: C_4  and  O_16
REMARK    3  A    between atoms: C_6  and  C_7
REMARK    4  A    between atoms: C_7  and  N_8
REMARK    5  A    between atoms: N_8  and  C_9
REMARK    6  A    between atoms: C_9  and  C_10
REMARK                            x       y       z     vdW  Elec       q    Type
REMARK                         _______ _______ _______ _____ _____    ______ ____
ROOT
ATOM      1  C   UNL     1      -1.294  -0.774   0.010  0.00  0.00    -0.046 C 
ENDROOT
BRANCH   1   7
ATOM      2  C   UNL     1      -0.017   1.378   0.010  0.00  0.00    +0.005 A 
ATOM      3  C   UNL     1       1.170   2.089   0.002  0.00  0.00    +0.049 A 
ATOM      4  C   UNL     1       2.380   1.415  -0.013  0.00  0.00    +0.158 A 
ATOM      5  C   UNL     1       2.399   0.024  -0.021  0.00  0.00    +0.158 A 
ATOM      6  C   UNL     1       1.207  -0.682  -0.013  0.00  0.00    +0.051 A 
ATOM      7  C   UNL     1       0.002  -0.004   0.002  0.00  0.00    -0.061 A 
BRANCH   5   8
ATOM      8  O   UNL     1       3.585  -0.642  -0.036  0.00  0.00    -0.503 OA
ATOM      9  H   UNL     1       3.937  -0.839   0.843  0.00  0.00    +0.292 HD
ENDBRANCH   5   8
BRANCH   4  10
ATOM     10  O   UNL     1       3.548   2.113  -0.021  0.00  0.00    -0.503 OA
ATOM     11  H   UNL     1       3.894   2.310   0.860  0.00  0.00    +0.292 HD
ENDBRANCH   4  10
ENDBRANCH   1   7
BRANCH   1  12
ATOM     12  N   UNL     1      -1.728  -1.016  -1.372  0.00  0.00    +0.385 N 
ATOM     13  H   UNL     1      -1.864  -0.134  -1.842  0.00  0.00    -0.085 HD
ATOM     14  H   UNL     1      -1.022  -1.550  -1.857  0.00  0.00    -0.085 HD
BRANCH  12  15
ATOM     15  C   UNL     1      -2.991  -1.766  -1.364  0.00  0.00    -0.039 C 
BRANCH  15  16
ATOM     16  C   UNL     1      -3.436  -2.015  -2.782  0.00  0.00    -0.026 A 
ATOM     17  C   UNL     1      -3.155  -3.064  -3.593  0.00  0.00    +0.010 A 
ATOM     18  C   UNL     1      -3.679  -3.082  -4.872  0.00  0.00    +0.023 A 
ATOM     19  C   UNL     1      -4.459  -2.049  -5.277  0.00  0.00    +0.055 A 
ATOM     20  S   UNL     1      -4.477  -1.009  -3.826  0.00  0.00    -0.088 S 
ATOM     21 BR   UNL     1      -5.312  -1.782  -6.944  0.00  0.00    -0.043 Br
ENDBRANCH  15  16
ENDBRANCH  12  15
ENDBRANCH   1  12
TORSDOF 6
