REMARK  Name = ZINC44831867
REMARK  5 active torsions:
REMARK  status: ('A' for Active; 'I' for Inactive)
REMARK    1  A    between atoms: C_1  and  C_2
REMARK    2  A    between atoms: C_2  and  C_4
REMARK    3  A    between atoms: C_2  and  C_7
REMARK    4  A    between atoms: C_4  and  N_6
REMARK    5  A    between atoms: N_9  and  C_10
REMARK                            x       y       z     vdW  Elec       q    Type
REMARK                         _______ _______ _______ _____ _____    ______ ____
ROOT
ATOM      1  C   UNL     1       0.719  -0.134  -1.317  0.00  0.00    +0.222 C 
ATOM      2  O   UNL     1       0.127  -0.548  -2.291  0.00  0.00    -0.275 OA
ATOM      3  N   UNL     1       2.019   0.209  -1.414  0.00  0.00    -0.313 N 
ATOM      4  H   UNL     1       2.493   0.540  -0.635  0.00  0.00    +0.149 HD
ENDROOT
BRANCH   3   5
ATOM      5  C   UNL     1       2.716   0.082  -2.696  0.00  0.00    +0.059 C 
ATOM      6  C   UNL     1       3.240  -1.346  -2.856  0.00  0.00    -0.056 C 
ATOM      7  N   UNL     1       4.699  -1.333  -2.994  0.00  0.00    +0.381 N 
ATOM      8  C   UNL     1       5.324  -0.768  -1.796  0.00  0.00    -0.078 C 
ATOM      9  C   UNL     1       4.869   0.680  -1.600  0.00  0.00    -0.014 C 
ATOM     10  C   UNL     1       3.902   1.055  -2.735  0.00  0.00    +0.004 C 
ATOM     11  C   UNL     1       4.633   0.874  -4.072  0.00  0.00    -0.014 C 
ATOM     12  C   UNL     1       5.098  -0.583  -4.187  0.00  0.00    -0.078 C 
ATOM     13  H   UNL     1       5.019  -2.285  -3.093  0.00  0.00    -0.082 HD
ENDBRANCH   3   5
BRANCH   1  15
ATOM     14  C   UNL     1      -0.705   1.351   0.067  0.00  0.00    +0.024 C 
ATOM     15  C   UNL     1       0.002  -0.004   0.002  0.00  0.00    +0.123 C 
BRANCH  15  16
ATOM     16  C   UNL     1      -1.016  -1.108   0.132  0.00  0.00    +0.058 C 
ATOM     17  S   UNL     1      -2.566  -0.798  -0.105  0.00  0.00    -0.040 S 
BRANCH  16  18
ATOM     18  N   UNL     1      -0.619  -2.357   0.447  0.00  0.00    -0.355 N 
ATOM     19  H   UNL     1       0.322  -2.545   0.590  0.00  0.00    +0.143 HD
ATOM     20  H   UNL     1      -1.274  -3.067   0.530  0.00  0.00    +0.143 HD
ENDBRANCH  16  18
ENDBRANCH  15  16
ENDBRANCH   1  15
TORSDOF 4
