REMARK  Name = ZINC20124289
REMARK  5 active torsions:
REMARK  status: ('A' for Active; 'I' for Inactive)
REMARK    1  A    between atoms: C_1  and  C_2
REMARK    2  A    between atoms: C_2  and  C_4
REMARK    3  A    between atoms: C_2  and  N_11
REMARK    4  A    between atoms: N_11  and  C_12
REMARK    5  A    between atoms: C_20  and  O_22
REMARK                            x       y       z     vdW  Elec       q    Type
REMARK                         _______ _______ _______ _____ _____    ______ ____
ROOT
ATOM      1  N   UNL     1       1.360   2.011  -0.000  0.00  0.00    +0.390 N 
ATOM      2  H   UNL     1       2.003   1.338   0.585  0.00  0.00    -0.084 HD
ATOM      3  H   UNL     1       1.725   2.059  -1.036  0.00  0.00    -0.084 HD
ENDROOT
BRANCH   1   4
ATOM      4  C   UNL     1       1.429   3.356   0.586  0.00  0.00    +0.002 C 
ATOM      5  C   UNL     1       1.740   3.284   2.100  0.00  0.00    +0.218 C 
ATOM      6  O   UNL     1       3.173   3.390   2.136  0.00  0.00    -0.493 OA
ATOM      7  C   UNL     1       3.599   4.092   1.050  0.00  0.00    +0.126 A 
ATOM      8  C   UNL     1       2.629   4.118   0.056  0.00  0.00    -0.016 A 
ATOM      9  C   UNL     1       2.861   4.759  -1.142  0.00  0.00    +0.009 A 
ATOM     10  C   UNL     1       4.069   5.394  -1.365  0.00  0.00    +0.046 A 
ATOM     11  C   UNL     1       5.044   5.383  -0.378  0.00  0.00    +0.120 A 
ATOM     12  C   UNL     1       4.812   4.736   0.824  0.00  0.00    +0.091 A 
BRANCH  11  13
ATOM     13  O   UNL     1       6.231   6.008  -0.592  0.00  0.00    -0.507 OA
ATOM     14  H   UNL     1       7.005   6.001   0.189  0.00  0.00    +0.292 HD
ENDBRANCH  11  13
ENDBRANCH   1   4
BRANCH   1  16
ATOM     15  C   UNL     1      -0.758   2.010  -1.229  0.00  0.00    -0.009 C 
ATOM     16  C   UNL     1      -0.018   1.503   0.010  0.00  0.00    -0.043 C 
BRANCH  16  17
ATOM     17  C   UNL     1       0.002  -0.004   0.002  0.00  0.00    -0.060 A 
ATOM     18  C   UNL     1      -0.898  -0.712   0.777  0.00  0.00    +0.002 A 
ATOM     19  C   UNL     1      -0.881  -2.094   0.769  0.00  0.00    +0.002 A 
ATOM     20  C   UNL     1       0.037  -2.769  -0.013  0.00  0.00    +0.020 A 
ATOM     21  C   UNL     1       0.939  -2.062  -0.788  0.00  0.00    +0.041 A 
ATOM     22  C   UNL     1       0.917  -0.678  -0.784  0.00  0.00    +0.022 A 
ATOM     23 CL   UNL     1       2.092  -2.909  -1.771  0.00  0.00    -0.084 Cl
ENDBRANCH  16  17
ENDBRANCH   1  16
TORSDOF 4
