REMARK  Name = ZINC34749449
REMARK  10 active torsions:
REMARK  status: ('A' for Active; 'I' for Inactive)
REMARK    1  A    between atoms: C_1  and  C_2
REMARK    2  A    between atoms: C_2  and  C_3
REMARK    3  A    between atoms: C_4  and  C_38
REMARK    4  A    between atoms: N_10  and  C_30
REMARK    5  A    between atoms: N_16  and  C_19
REMARK    6  A    between atoms: C_19  and  C_20
REMARK    7  A    between atoms: N_22  and  C_23
REMARK    8  A    between atoms: C_26  and  C_29
REMARK    9  A    between atoms: C_30  and  C_31
REMARK   10  A    between atoms: C_31  and  C_32
REMARK                            x       y       z     vdW  Elec       q    Type
REMARK                         _______ _______ _______ _____ _____    ______ ____
ROOT
ATOM      1  C   UNL     1      -1.491  -0.548   0.120  0.00  0.00    -0.023 A 
ATOM      2  C   UNL     1      -2.127  -0.815   1.270  0.00  0.00    -0.007 A 
ATOM      3  S   UNL     1      -3.719  -1.413   0.734  0.00  0.00    -0.073 S 
ATOM      4  C   UNL     1      -3.483  -1.288  -1.020  0.00  0.00    +0.117 A 
ATOM      5  C   UNL     1      -2.177  -0.779  -1.140  0.00  0.00    +0.076 A 
ATOM      6  C   UNL     1      -1.711  -0.567  -2.476  0.00  0.00    +0.264 A 
ATOM      7  O   UNL     1      -0.590  -0.133  -2.678  0.00  0.00    -0.267 OA
ATOM      8  N   UNL     1      -2.527  -0.854  -3.507  0.00  0.00    -0.280 N 
ATOM      9  C   UNL     1      -3.785  -1.340  -3.301  0.00  0.00    +0.202 A 
ATOM     10  N   UNL     1      -4.235  -1.554  -2.082  0.00  0.00    -0.208 NA
ATOM     11  N   UNL     1      -4.588  -1.620  -4.378  0.00  0.00    -0.304 N 
ATOM     12  C   UNL     1      -4.656  -2.979  -4.937  0.00  0.00    +0.089 C 
ATOM     13  C   UNL     1      -6.130  -3.378  -5.065  0.00  0.00    -0.059 C 
ATOM     14  N   UNL     1      -6.845  -2.364  -5.849  0.00  0.00    +0.387 N 
ATOM     15  C   UNL     1      -6.843  -1.083  -5.130  0.00  0.00    -0.059 C 
ATOM     16  C   UNL     1      -5.409  -0.572  -5.003  0.00  0.00    +0.089 C 
ATOM     17  C   UNL     1      -1.619  -0.649   2.679  0.00  0.00    +0.052 C 
ATOM     18  H   UNL     1      -6.389  -2.247  -6.742  0.00  0.00    -0.081 HD
ENDROOT
BRANCH   1  20
ATOM     19  C   UNL     1      -0.123   1.519   0.173  0.00  0.00    +0.009 C 
ATOM     20  C   UNL     1      -0.084  -0.010   0.134  0.00  0.00    +0.033 C 
ENDBRANCH   1  20
BRANCH  14  21
ATOM     21  C   UNL     1      -8.231  -2.800  -6.064  0.00  0.00    +0.019 C 
BRANCH  21  22
ATOM     22  C   UNL     1      -8.931  -1.821  -6.971  0.00  0.00    +0.201 C 
ATOM     23  O   UNL     1      -8.334  -0.854  -7.396  0.00  0.00    -0.278 OA
ATOM     24  N   UNL     1     -10.220  -2.019  -7.310  0.00  0.00    -0.287 N 
ATOM     25  H   UNL     1     -10.722  -2.744  -6.905  0.00  0.00    +0.155 HD
BRANCH  24  26
ATOM     26  C   UNL     1     -10.835  -1.180  -8.246  0.00  0.00    +0.033 A 
ATOM     27  C   UNL     1     -10.070  -0.531  -9.206  0.00  0.00    +0.023 A 
ATOM     28  C   UNL     1     -10.680   0.297 -10.129  0.00  0.00    +0.005 A 
ATOM     29  C   UNL     1     -12.050   0.479 -10.097  0.00  0.00    -0.050 A 
ATOM     30  C   UNL     1     -12.814  -0.165  -9.141  0.00  0.00    +0.005 A 
ATOM     31  C   UNL     1     -12.211  -0.999  -8.220  0.00  0.00    +0.023 A 
ATOM     32  C   UNL     1     -12.712   1.383 -11.105  0.00  0.00    +0.044 C 
ENDBRANCH  24  26
ENDBRANCH  21  22
ENDBRANCH  14  21
BRANCH   8  33
ATOM     33  C   UNL     1      -2.056  -0.639  -4.878  0.00  0.00    +0.133 C 
BRANCH  33  34
ATOM     34  C   UNL     1      -1.268  -1.865  -5.344  0.00  0.00    +0.057 C 
BRANCH  34  35
ATOM     35  C   UNL     1      -0.680  -1.596  -6.705  0.00  0.00    -0.046 A 
ATOM     36  C   UNL     1      -1.439  -1.811  -7.840  0.00  0.00    +0.004 A 
ATOM     37  C   UNL     1      -0.899  -1.565  -9.089  0.00  0.00    +0.000 A 
ATOM     38  C   UNL     1       0.399  -1.103  -9.202  0.00  0.00    +0.000 A 
ATOM     39  C   UNL     1       1.157  -0.887  -8.067  0.00  0.00    +0.000 A 
ATOM     40  C   UNL     1       0.616  -1.129  -6.818  0.00  0.00    +0.004 A 
ENDBRANCH  34  35
ENDBRANCH  33  34
ENDBRANCH   8  33
TORSDOF 7
