REMARK  Name = ZINC31947437
REMARK  6 active torsions:
REMARK  status: ('A' for Active; 'I' for Inactive)
REMARK    1  A    between atoms: C_2  and  C_3
REMARK    2  A    between atoms: C_3  and  N_4
REMARK    3  A    between atoms: C_8  and  C_18
REMARK    4  A    between atoms: N_14  and  C_15
REMARK    5  A    between atoms: C_15  and  C_16
REMARK    6  A    between atoms: C_16  and  N_17
REMARK                            x       y       z     vdW  Elec       q    Type
REMARK                         _______ _______ _______ _____ _____    ______ ____
ROOT
ATOM      1  N   UNL     1       3.511   5.410   2.769  0.00  0.00    -0.277 N 
ATOM      2  C   UNL     1       2.594   4.805   1.992  0.00  0.00    +0.264 A 
ATOM      3  O   UNL     1       2.328   3.626   2.154  0.00  0.00    -0.267 OA
ATOM      4  C   UNL     1       1.930   5.563   0.979  0.00  0.00    +0.080 A 
ATOM      5  C   UNL     1       0.916   5.132   0.021  0.00  0.00    +0.010 A 
ATOM      6  C   UNL     1       0.429   6.037  -0.863  0.00  0.00    +0.057 A 
ATOM      7  S   UNL     1       1.318   7.528  -0.460  0.00  0.00    -0.076 S 
ATOM      8  C   UNL     1       2.313   6.911   0.873  0.00  0.00    +0.118 A 
ATOM      9  N   UNL     1       3.228   7.448   1.672  0.00  0.00    -0.208 NA
ATOM     10  C   UNL     1       3.821   6.727   2.602  0.00  0.00    +0.200 A 
ATOM     11  N   UNL     1       4.762   7.310   3.413  0.00  0.00    -0.317 N 
ATOM     12  H   UNL     1       5.262   6.714   4.191  0.00  0.00    +0.149 HD
ENDROOT
BRANCH   5  13
ATOM     13  C   UNL     1       0.426   3.738   0.018  0.00  0.00    +0.021 A 
ATOM     14  C   UNL     1      -0.864   3.276   0.028  0.00  0.00    +0.016 A 
ATOM     15  C   UNL     1      -1.079   1.914   0.017  0.00  0.00    +0.008 A 
ATOM     16  C   UNL     1      -0.013   1.076   0.008  0.00  0.00    +0.046 A 
ATOM     17  S   UNL     1       1.361   2.217   0.001  0.00  0.00    -0.097 S 
ENDBRANCH   5  13
BRANCH   1  18
ATOM     18  C   UNL     1       4.190   4.638   3.813  0.00  0.00    +0.155 C 
BRANCH  18  20
ATOM     19  C   UNL     1       3.018   3.638   5.707  0.00  0.00    +0.005 C 
ATOM     20  C   UNL     1       3.405   4.731   5.096  0.00  0.00    -0.013 C 
ENDBRANCH  18  20
ENDBRANCH   1  18
BRANCH  11  21
ATOM     21  C   UNL     1       5.102   8.724   3.242  0.00  0.00    +0.085 C 
BRANCH  21  22
ATOM     22  C   UNL     1       6.169   9.120   4.264  0.00  0.00    -0.067 C 
BRANCH  22  23
ATOM     23  N   UNL     1       6.510  10.538   4.093  0.00  0.00    +0.379 N 
ATOM     24  H   UNL     1       7.278  10.822   4.828  0.00  0.00    -0.090 HD
ATOM     25  H   UNL     1       5.611  11.152   4.246  0.00  0.00    -0.090 HD
ATOM     26  H   UNL     1       6.897  10.702   3.076  0.00  0.00    -0.090 HD
ENDBRANCH  22  23
ENDBRANCH  21  22
ENDBRANCH  11  21
TORSDOF 6
