REMARK  Name = ZINC35191036
REMARK  19 active torsions:
REMARK  status: ('A' for Active; 'I' for Inactive)
REMARK    1  A    between atoms: C_1  and  C_2
REMARK    2  A    between atoms: C_2  and  C_3
REMARK    3  A    between atoms: C_2  and  C_4
REMARK    4  A    between atoms: C_2  and  C_5
REMARK    5  A    between atoms: C_5  and  C_6
REMARK    6  A    between atoms: C_6  and  C_7
REMARK    7  A    between atoms: C_6  and  C_8
REMARK    8  A    between atoms: C_6  and  N_9
REMARK    9  A    between atoms: N_9  and  C_10
REMARK   10  A    between atoms: C_11  and  C_19
REMARK   11  A    between atoms: C_22  and  O_27
REMARK   12  A    between atoms: C_23  and  O_25
REMARK   13  A    between atoms: O_25  and  C_26
REMARK   14  A    between atoms: O_27  and  C_28
REMARK   15  A    between atoms: C_28  and  C_30
REMARK   16  A    between atoms: C_32  and  O_38
REMARK   17  A    between atoms: C_34  and  O_36
REMARK   18  A    between atoms: O_36  and  C_37
REMARK   19  A    between atoms: O_38  and  C_39
REMARK                            x       y       z     vdW  Elec       q    Type
REMARK                         _______ _______ _______ _____ _____    ______ ____
ROOT
ATOM      1  C   UNL     1       5.544  -0.108  -5.805  0.00  0.00    +0.005 A 
ATOM      2  C   UNL     1       4.843  -1.304  -5.960  0.00  0.00    +0.014 A 
ATOM      3  C   UNL     1       4.580  -1.791  -7.224  0.00  0.00    +0.051 A 
ATOM      4  C   UNL     1       5.010  -1.093  -8.343  0.00  0.00    +0.173 A 
ATOM      5  C   UNL     1       5.710   0.102  -8.194  0.00  0.00    +0.163 A 
ATOM      6  C   UNL     1       5.972   0.597  -6.929  0.00  0.00    +0.059 A 
ENDROOT
BRANCH   1   8
ATOM      7  C   UNL     1       4.934   0.475  -3.400  0.00  0.00    +0.129 A 
ATOM      8  C   UNL     1       5.828   0.415  -4.448  0.00  0.00    +0.087 A 
ATOM      9  N   UNL     1       7.003   0.913  -4.023  0.00  0.00    -0.338 N 
ATOM     10  C   UNL     1       6.888   1.283  -2.758  0.00  0.00    +0.117 A 
ATOM     11  N   UNL     1       5.602   1.027  -2.341  0.00  0.00    -0.289 N 
ATOM     12  C   UNL     1       5.216   1.325  -1.062  0.00  0.00    +0.094 A 
ATOM     13  C   UNL     1       6.087   1.877  -0.194  0.00  0.00    +0.018 A 
ATOM     14  C   UNL     1       7.408   2.154  -0.592  0.00  0.00    +0.005 A 
ATOM     15  C   UNL     1       7.809   1.857  -1.856  0.00  0.00    +0.045 A 
ATOM     16  H   UNL     1       7.808   0.989  -4.559  0.00  0.00    +0.167 HD
BRANCH   7  17
ATOM     17  N   UNL     1       3.602   0.059  -3.417  0.00  0.00    -0.323 N 
ATOM     18  H   UNL     1       3.225  -0.326  -4.223  0.00  0.00    +0.148 HD
BRANCH  17  19
ATOM     19  C   UNL     1       2.774   0.203  -2.217  0.00  0.00    +0.028 C 
ATOM     20  C   UNL     1       2.723   1.676  -1.807  0.00  0.00    +0.031 C 
ATOM     21  C   UNL     1       3.377  -0.623  -1.079  0.00  0.00    +0.031 C 
BRANCH  19  22
ATOM     22  C   UNL     1       1.357  -0.293  -2.513  0.00  0.00    +0.031 C 
BRANCH  22  24
ATOM     23  C   UNL     1       1.445  -0.856  -4.946  0.00  0.00    +0.010 C 
ATOM     24  C   UNL     1       0.942   0.157  -3.915  0.00  0.00    -0.036 C 
ATOM     25  C   UNL     1       1.548   1.530  -4.211  0.00  0.00    +0.010 C 
ATOM     26  C   UNL     1      -0.584   0.246  -3.991  0.00  0.00    +0.010 C 
ENDBRANCH  22  24
ENDBRANCH  19  22
ENDBRANCH  17  19
ENDBRANCH   7  17
ENDBRANCH   1   8
BRANCH   5  27
ATOM     27  O   UNL     1       6.131   0.784  -9.292  0.00  0.00    -0.491 OA
ATOM     28  C   UNL     1       6.844   2.002  -9.065  0.00  0.00    +0.277 C 
ENDBRANCH   5  27
BRANCH   4  29
ATOM     29  O   UNL     1       4.747  -1.576  -9.587  0.00  0.00    -0.419 OA
BRANCH  29  30
ATOM     30  C   UNL     1       5.681  -2.347 -10.175  0.00  0.00    +0.345 C 
ATOM     31  O   UNL     1       6.679  -2.669  -9.561  0.00  0.00    -0.245 OA
BRANCH  30  32
ATOM     32  C   UNL     1       5.492  -2.802 -11.568  0.00  0.00    +0.066 A 
ATOM     33  C   UNL     1       4.350  -2.429 -12.278  0.00  0.00    +0.060 A 
ATOM     34  C   UNL     1       4.178  -2.858 -13.583  0.00  0.00    +0.124 A 
ATOM     35  C   UNL     1       5.138  -3.657 -14.186  0.00  0.00    +0.091 A 
ATOM     36  C   UNL     1       6.276  -4.030 -13.484  0.00  0.00    +0.124 A 
ATOM     37  C   UNL     1       6.459  -3.602 -12.180  0.00  0.00    +0.060 A 
BRANCH  36  38
ATOM     38  O   UNL     1       7.214  -4.814 -14.079  0.00  0.00    -0.495 OA
ATOM     39  C   UNL     1       6.963  -5.214 -15.428  0.00  0.00    +0.277 C 
ENDBRANCH  36  38
BRANCH  34  40
ATOM     40  O   UNL     1       3.066  -2.495 -14.275  0.00  0.00    -0.495 OA
ATOM     41  C   UNL     1       2.952  -2.973 -15.617  0.00  0.00    +0.277 C 
ENDBRANCH  34  40
ENDBRANCH  30  32
ENDBRANCH  29  30
ENDBRANCH   4  29
TORSDOF 11
