REMARK  Name = ZINC40393263
REMARK  12 active torsions:
REMARK  status: ('A' for Active; 'I' for Inactive)
REMARK    1  A    between atoms: C_1  and  C_2
REMARK    2  A    between atoms: C_2  and  C_3
REMARK    3  A    between atoms: C_3  and  C_5
REMARK    4  A    between atoms: C_3  and  N_6
REMARK    5  A    between atoms: C_9  and  C_13
REMARK    6  A    between atoms: C_14  and  C_26
REMARK    7  A    between atoms: C_16  and  S_19
REMARK    8  A    between atoms: S_19  and  C_20
REMARK    9  A    between atoms: C_20  and  C_21
REMARK   10  A    between atoms: C_21  and  C_23
REMARK   11  A    between atoms: C_21  and  O_25
REMARK   12  A    between atoms: C_23  and  O_24
REMARK                            x       y       z     vdW  Elec       q    Type
REMARK                         _______ _______ _______ _____ _____    ______ ____
ROOT
ATOM      1  C   UNL     1      -6.470  -0.436  -0.901  0.00  0.00    +0.098 A 
ATOM      2  C   UNL     1      -7.728  -1.005  -0.891  0.00  0.00    +0.075 A 
ATOM      3  N   UNL     1      -8.146  -1.048  -2.206  0.00  0.00    -0.332 N 
ATOM      4  C   UNL     1      -7.148  -0.513  -2.964  0.00  0.00    +0.167 A 
ATOM      5  N   UNL     1      -6.161  -0.148  -2.181  0.00  0.00    -0.221 NA
ATOM      6  H   UNL     1      -8.992  -1.394  -2.531  0.00  0.00    +0.168 HD
ENDROOT
BRANCH   1  10
ATOM      7  N   UNL     1      -2.082  -0.162   1.273  0.00  0.00    -0.328 N 
ATOM      8  C   UNL     1      -3.466  -0.050   1.336  0.00  0.00    +0.097 A 
ATOM      9  C   UNL     1      -4.227  -0.298   0.202  0.00  0.00    +0.051 A 
ATOM     10  C   UNL     1      -5.617  -0.181   0.282  0.00  0.00    +0.007 A 
ATOM     11  C   UNL     1      -6.182   0.183   1.512  0.00  0.00    +0.027 A 
ATOM     12  C   UNL     1      -5.355   0.411   2.589  0.00  0.00    +0.085 A 
ATOM     13  N   UNL     1      -4.045   0.287   2.479  0.00  0.00    -0.350 N 
ATOM     14  H   UNL     1      -1.545   0.006   2.063  0.00  0.00    +0.148 HD
ATOM     15  H   UNL     1      -3.490   0.451   3.258  0.00  0.00    +0.166 HD
BRANCH   7  16
ATOM     16  C   UNL     1      -1.433  -0.534   0.013  0.00  0.00    +0.068 C 
ATOM     17  C   UNL     1      -1.416  -2.058  -0.121  0.00  0.00    +0.028 C 
BRANCH  16  19
ATOM     18  C   UNL     1      -0.019   1.526   0.010  0.00  0.00    +0.005 C 
ATOM     19  C   UNL     1       0.002  -0.004   0.002  0.00  0.00    +0.018 C 
ENDBRANCH  16  19
ENDBRANCH   7  16
ENDBRANCH   1  10
BRANCH   2  20
ATOM     20  C   UNL     1      -8.477  -1.475   0.291  0.00  0.00    +0.001 A 
ATOM     21  C   UNL     1      -7.834  -2.231   1.274  0.00  0.00    +0.013 A 
ATOM     22  C   UNL     1      -8.539  -2.667   2.376  0.00  0.00    +0.039 A 
ATOM     23  C   UNL     1      -9.883  -2.356   2.510  0.00  0.00    +0.123 A 
ATOM     24  C   UNL     1     -10.527  -1.606   1.538  0.00  0.00    +0.039 A 
ATOM     25  C   UNL     1      -9.831  -1.159   0.434  0.00  0.00    +0.013 A 
ATOM     26  F   UNL     1     -10.569  -2.786   3.591  0.00  0.00    -0.205 F 
ENDBRANCH   2  20
BRANCH   4  27
ATOM     27  S   UNL     1      -7.181  -0.334  -4.716  0.00  0.00    -0.085 S 
BRANCH  27  28
ATOM     28  C   UNL     1      -5.583   0.431  -5.109  0.00  0.00    +0.111 C 
BRANCH  28  29
ATOM     29  C   UNL     1      -5.479   0.645  -6.621  0.00  0.00    +0.150 C 
BRANCH  29  30
ATOM     30  O   UNL     1      -6.464   1.593  -7.037  0.00  0.00    -0.389 OA
ATOM     31  H   UNL     1      -6.377   2.460  -6.619  0.00  0.00    +0.210 HD
ENDBRANCH  29  30
BRANCH  29  32
ATOM     32  C   UNL     1      -4.085   1.174  -6.965  0.00  0.00    +0.188 C 
BRANCH  32  33
ATOM     33  O   UNL     1      -3.947   1.264  -8.385  0.00  0.00    -0.392 OA
ATOM     34  H   UNL     1      -3.086   1.593  -8.677  0.00  0.00    +0.210 HD
ENDBRANCH  32  33
ENDBRANCH  29  32
ENDBRANCH  28  29
ENDBRANCH  27  28
ENDBRANCH   4  27
TORSDOF 10
