REMARK  Name = ZINC35486677
REMARK  13 active torsions:
REMARK  status: ('A' for Active; 'I' for Inactive)
REMARK    1  A    between atoms: C_1  and  C_2
REMARK    2  A    between atoms: C_2  and  C_3
REMARK    3  A    between atoms: C_3  and  C_4
REMARK    4  A    between atoms: C_4  and  C_5
REMARK    5  A    between atoms: C_5  and  C_6
REMARK    6  A    between atoms: C_6  and  O_7
REMARK    7  A    between atoms: O_7  and  C_8
REMARK    8  A    between atoms: C_11  and  C_14
REMARK    9  A    between atoms: N_29  and  C_30
REMARK   10  A    between atoms: C_30  and  C_31
REMARK   11  A    between atoms: C_31  and  N_32
REMARK   12  A    between atoms: N_32  and  C_33
REMARK   13  A    between atoms: N_32  and  C_34
REMARK                            x       y       z     vdW  Elec       q    Type
REMARK                         _______ _______ _______ _____ _____    ______ ____
ROOT
ATOM      1  C   UNL     1      -4.830 -10.211  -0.006  0.00  0.00    +0.144 C 
ATOM      2  C   UNL     1      -5.184 -10.694   1.362  0.00  0.00    +0.072 A 
ATOM      3  C   UNL     1      -4.453 -10.622   2.631  0.00  0.00    +0.199 A 
ATOM      4  O   UNL     1      -3.442  -9.960   2.783  0.00  0.00    -0.287 OA
ATOM      5  C   UNL     1      -5.063 -11.433   3.715  0.00  0.00    +0.065 A 
ATOM      6  C   UNL     1      -4.384 -11.629   4.918  0.00  0.00    +0.030 A 
ATOM      7  C   UNL     1      -4.963 -12.389   5.910  0.00  0.00    +0.019 A 
ATOM      8  C   UNL     1      -6.216 -12.956   5.712  0.00  0.00    +0.019 A 
ATOM      9  C   UNL     1      -6.895 -12.768   4.530  0.00  0.00    +0.048 A 
ATOM     10  C   UNL     1      -6.332 -12.000   3.510  0.00  0.00    +0.140 A 
ATOM     11  O   UNL     1      -7.026 -11.823   2.363  0.00  0.00    -0.450 OA
ATOM     12  C   UNL     1      -6.413 -11.286   1.290  0.00  0.00    +0.199 A 
ATOM     13  C   UNL     1      -6.880 -11.212  -0.106  0.00  0.00    +0.283 C 
ATOM     14  O   UNL     1      -7.939 -11.651  -0.510  0.00  0.00    -0.267 OA
ATOM     15  N   UNL     1      -5.961 -10.585  -0.871  0.00  0.00    -0.285 N 
ATOM     16 BR   UNL     1      -4.052 -12.661   7.545  0.00  0.00    -0.050 Br
ENDROOT
BRANCH   1  20
ATOM     17  C   UNL     1      -4.328  -5.967   0.011  0.00  0.00    +0.121 A 
ATOM     18  C   UNL     1      -3.217  -6.798   0.002  0.00  0.00    +0.046 A 
ATOM     19  C   UNL     1      -3.382  -8.170  -0.003  0.00  0.00    +0.009 A 
ATOM     20  C   UNL     1      -4.653  -8.714   0.000  0.00  0.00    -0.022 A 
ATOM     21  C   UNL     1      -5.761  -7.888   0.009  0.00  0.00    +0.009 A 
ATOM     22  C   UNL     1      -5.602  -6.516   0.021  0.00  0.00    +0.046 A 
BRANCH  17  23
ATOM     23  O   UNL     1      -4.168  -4.617   0.017  0.00  0.00    -0.492 OA
BRANCH  23  24
ATOM     24  C   UNL     1      -2.827  -4.123   0.007  0.00  0.00    +0.229 C 
BRANCH  24  25
ATOM     25  C   UNL     1      -2.848  -2.593   0.015  0.00  0.00    +0.041 C 
BRANCH  25  26
ATOM     26  C   UNL     1      -1.413  -2.063   0.004  0.00  0.00    +0.003 C 
BRANCH  26  27
ATOM     27  C   UNL     1      -1.433  -0.534   0.013  0.00  0.00    -0.000 C 
BRANCH  27  29
ATOM     28  C   UNL     1      -0.019   1.526   0.010  0.00  0.00    +0.004 C 
ATOM     29  C   UNL     1       0.002  -0.004   0.002  0.00  0.00    -0.003 C 
ENDBRANCH  27  29
ENDBRANCH  26  27
ENDBRANCH  25  26
ENDBRANCH  24  25
ENDBRANCH  23  24
ENDBRANCH  17  23
ENDBRANCH   1  20
BRANCH  15  30
ATOM     30  C   UNL     1      -6.069 -10.322  -2.308  0.00  0.00    +0.090 C 
BRANCH  30  31
ATOM     31  C   UNL     1      -5.475 -11.496  -3.088  0.00  0.00    -0.060 C 
BRANCH  31  32
ATOM     32  N   UNL     1      -5.584 -11.232  -4.529  0.00  0.00    +0.377 N 
ATOM     33  C   UNL     1      -4.752 -10.073  -4.879  0.00  0.00    -0.097 C 
ATOM     34  C   UNL     1      -5.124 -12.409  -5.278  0.00  0.00    -0.097 C 
ATOM     35  H   UNL     1      -6.546 -11.039  -4.764  0.00  0.00    -0.083 HD
ENDBRANCH  31  32
ENDBRANCH  30  31
ENDBRANCH  15  30
TORSDOF 10
