REMARK  Name = ZINC40342928
REMARK  6 active torsions:
REMARK  status: ('A' for Active; 'I' for Inactive)
REMARK    1  A    between atoms: C_6  and  C_7
REMARK    2  A    between atoms: N_15  and  C_26
REMARK    3  A    between atoms: C_16  and  C_18
REMARK    4  A    between atoms: C_26  and  C_27
REMARK    5  A    between atoms: C_27  and  C_28
REMARK    6  A    between atoms: C_28  and  N_29
REMARK                            x       y       z     vdW  Elec       q    Type
REMARK                         _______ _______ _______ _____ _____    ______ ____
ROOT
ATOM      1  C   UNL     1      -1.021  -1.236   0.956  0.00  0.00    +0.072 A 
ATOM      2  C   UNL     1      -1.576  -1.873  -0.107  0.00  0.00    +0.035 A 
ATOM      3  C   UNL     1      -2.968  -1.893   0.135  0.00  0.00    +0.153 A 
ATOM      4  N   UNL     1      -3.166  -1.288   1.290  0.00  0.00    -0.168 NA
ATOM      5  H   UNL     1      -1.948  -0.437   2.638  0.00  0.00    +0.189 HD
ATOM      6  N   UNL     1      -2.048  -0.901   1.792  0.00  0.00    -0.276 N 
ATOM      7  C   UNL     1      -3.615  -2.578  -0.998  0.00  0.00    +0.268 C 
ATOM      8  O   UNL     1      -4.811  -2.766  -1.105  0.00  0.00    -0.268 OA
ATOM      9  N   UNL     1      -2.695  -2.967  -1.898  0.00  0.00    -0.285 N 
ATOM     10  C   UNL     1      -1.365  -2.565  -1.426  0.00  0.00    +0.143 C 
ENDROOT
BRANCH  10  11
ATOM     11  C   UNL     1      -0.729  -1.618  -2.411  0.00  0.00    -0.004 A 
ATOM     12  C   UNL     1      -1.496  -0.652  -3.034  0.00  0.00    +0.008 A 
ATOM     13  C   UNL     1      -0.913   0.217  -3.938  0.00  0.00    +0.020 A 
ATOM     14  C   UNL     1       0.438   0.120  -4.219  0.00  0.00    +0.042 A 
ATOM     15  C   UNL     1       1.206  -0.847  -3.595  0.00  0.00    +0.040 A 
ATOM     16  C   UNL     1       0.623  -1.713  -2.687  0.00  0.00    +0.048 A 
ATOM     17 CL   UNL     1       1.587  -2.922  -1.898  0.00  0.00    -0.083 Cl
ATOM     18 CL   UNL     1       1.169   1.210  -5.354  0.00  0.00    -0.083 Cl
ENDBRANCH  10  11
BRANCH   1  24
ATOM     19  C   UNL     1       0.833   0.289   1.625  0.00  0.00    +0.011 A 
ATOM     20  C   UNL     1       2.175   0.538   1.823  0.00  0.00    +0.020 A 
ATOM     21  C   UNL     1       3.110  -0.453   1.573  0.00  0.00    +0.041 A 
ATOM     22  C   UNL     1       2.704  -1.697   1.122  0.00  0.00    +0.020 A 
ATOM     23  C   UNL     1       1.364  -1.957   0.920  0.00  0.00    +0.011 A 
ATOM     24  C   UNL     1       0.418  -0.963   1.171  0.00  0.00    +0.000 A 
ATOM     25 CL   UNL     1       4.798  -0.133   1.824  0.00  0.00    -0.084 Cl
ENDBRANCH   1  24
BRANCH   9  26
ATOM     26  C   UNL     1      -2.975  -3.677  -3.149  0.00  0.00    +0.111 C 
BRANCH  26  27
ATOM     27  C   UNL     1      -3.366  -2.669  -4.231  0.00  0.00    +0.040 C 
BRANCH  27  28
ATOM     28  C   UNL     1      -3.805  -3.417  -5.491  0.00  0.00    +0.124 C 
BRANCH  28  29
ATOM     29  N   UNL     1      -4.179  -2.452  -6.528  0.00  0.00    -0.338 N 
ATOM     30  C   UNL     1      -5.424  -1.921  -6.731  0.00  0.00    +0.104 A 
ATOM     31  C   UNL     1      -5.323  -1.083  -7.780  0.00  0.00    +0.101 A 
ATOM     32  N   UNL     1      -4.051  -1.101  -8.206  0.00  0.00    -0.352 N 
ATOM     33  C   UNL     1      -3.359  -1.915  -7.457  0.00  0.00    +0.173 A 
ATOM     34  H   UNL     1      -3.700  -0.588  -8.950  0.00  0.00    +0.166 HD
ENDBRANCH  28  29
ENDBRANCH  27  28
ENDBRANCH  26  27
ENDBRANCH   9  26
TORSDOF 6
