REMARK  Name = ZINC20864734
REMARK  7 active torsions:
REMARK  status: ('A' for Active; 'I' for Inactive)
REMARK    1  A    between atoms: C_1  and  C_2
REMARK    2  A    between atoms: C_2  and  C_3
REMARK    3  A    between atoms: C_6  and  C_10
REMARK    4  A    between atoms: C_7  and  C_9
REMARK    5  A    between atoms: C_10  and  N_11
REMARK    6  A    between atoms: C_24  and  C_26
REMARK    7  A    between atoms: C_31  and  C_32
REMARK                            x       y       z     vdW  Elec       q    Type
REMARK                         _______ _______ _______ _____ _____    ______ ____
ROOT
ATOM      1  N   UNL     1       3.081   4.031   0.177  0.00  0.00    -0.284 NA
ATOM      2  C   UNL     1       4.181   4.975  -0.072  0.00  0.00    +0.090 C 
ATOM      3  C   UNL     1       4.568   4.934  -1.557  0.00  0.00    +0.053 C 
ATOM      4  C   UNL     1       3.304   5.052  -2.371  0.00  0.00    -0.016 A 
ATOM      5  C   UNL     1       3.144   5.371  -3.772  0.00  0.00    +0.003 A 
ATOM      6  C   UNL     1       4.056   5.660  -4.792  0.00  0.00    +0.010 A 
ATOM      7  C   UNL     1       3.535   5.924  -6.035  0.00  0.00    +0.001 A 
ATOM      8  C   UNL     1       2.172   5.906  -6.281  0.00  0.00    +0.002 A 
ATOM      9  C   UNL     1       1.247   5.622  -5.291  0.00  0.00    +0.026 A 
ATOM     10  C   UNL     1       1.746   5.351  -4.019  0.00  0.00    +0.047 A 
ATOM     11  N   UNL     1       1.129   5.040  -2.841  0.00  0.00    -0.356 N 
ATOM     12  H   UNL     1       0.032   4.969  -2.796  0.00  0.00    +0.166 HD
ATOM     13  C   UNL     1       2.067   4.862  -1.860  0.00  0.00    +0.042 A 
ATOM     14  C   UNL     1       1.820   4.509  -0.413  0.00  0.00    +0.135 C 
ENDROOT
BRANCH  14  15
ATOM     15  C   UNL     1       0.778   3.423  -0.327  0.00  0.00    -0.022 A 
ATOM     16  C   UNL     1       1.163   2.095  -0.312  0.00  0.00    +0.006 A 
ATOM     17  C   UNL     1       0.208   1.100  -0.234  0.00  0.00    +0.000 A 
ATOM     18  C   UNL     1      -1.133   1.431  -0.175  0.00  0.00    +0.000 A 
ATOM     19  C   UNL     1      -1.518   2.759  -0.185  0.00  0.00    +0.004 A 
ATOM     20  C   UNL     1      -0.562   3.755  -0.264  0.00  0.00    -0.045 A 
ATOM     21  C   UNL     1      -0.982   5.202  -0.279  0.00  0.00    +0.044 C 
ENDBRANCH  14  15
BRANCH   1  22
ATOM     22  C   UNL     1       2.924   3.767   1.614  0.00  0.00    +0.140 C 
BRANCH  22  26
ATOM     23  C   UNL     1       6.115   2.864   3.150  0.00  0.00    +0.084 A 
ATOM     24  N   UNL     1       5.167   3.784   2.866  0.00  0.00    -0.346 N 
ATOM     25  H   UNL     1       5.288   4.822   3.210  0.00  0.00    +0.167 HD
ATOM     26  C   UNL     1       4.188   3.148   2.152  0.00  0.00    +0.051 A 
ATOM     27  C   UNL     1       4.568   1.862   2.028  0.00  0.00    +0.035 A 
ATOM     28  N   UNL     1       5.752   1.718   2.642  0.00  0.00    -0.347 N 
ATOM     29  C   UNL     1       3.800   0.776   1.319  0.00  0.00    +0.065 C 
ATOM     30  H   UNL     1       6.396   0.835   2.761  0.00  0.00    +0.167 HD
BRANCH  23  32
ATOM     31  C   UNL     1       7.468   2.145   5.099  0.00  0.00    +0.012 C 
ATOM     32  C   UNL     1       7.383   3.120   3.923  0.00  0.00    +0.069 C 
ENDBRANCH  23  32
ENDBRANCH  22  26
ENDBRANCH   1  22
TORSDOF 4
