REMARK  Name = ZINC09731520
REMARK  9 active torsions:
REMARK  status: ('A' for Active; 'I' for Inactive)
REMARK    1  A    between atoms: C_1  and  C_2
REMARK    2  A    between atoms: C_6  and  N_9
REMARK    3  A    between atoms: C_7  and  C_8
REMARK    4  A    between atoms: C_10  and  C_12
REMARK    5  A    between atoms: C_12  and  N_13
REMARK    6  A    between atoms: C_19  and  C_21
REMARK    7  A    between atoms: C_24  and  O_27
REMARK    8  A    between atoms: O_27  and  C_28
REMARK    9  A    between atoms: C_28  and  C_29
REMARK                            x       y       z     vdW  Elec       q    Type
REMARK                         _______ _______ _______ _____ _____    ______ ____
ROOT
ATOM      1  N   UNL     1       0.140  -6.202   3.643  0.00  0.00    +0.387 N 
ATOM      2  C   UNL     1       1.289  -6.742   2.905  0.00  0.00    -0.059 C 
ATOM      3  C   UNL     1       0.990  -8.182   2.477  0.00  0.00    +0.089 C 
ATOM      4  N   UNL     1       0.618  -8.956   3.672  0.00  0.00    -0.301 N 
ATOM      5  C   UNL     1      -0.416  -8.404   4.561  0.00  0.00    +0.089 C 
ATOM      6  C   UNL     1      -0.051  -6.953   4.890  0.00  0.00    -0.059 C 
ATOM      7  C   UNL     1       1.208 -10.136   3.945  0.00  0.00    +0.246 C 
ATOM      8  O   UNL     1       2.130 -10.528   3.256  0.00  0.00    -0.270 OA
ATOM      9  H   UNL     1      -0.689  -6.282   3.074  0.00  0.00    -0.081 HD
ENDROOT
BRANCH   7  10
ATOM     10  C   UNL     1       0.735 -10.953   5.079  0.00  0.00    +0.037 A 
ATOM     11  C   UNL     1      -0.614 -10.935   5.441  0.00  0.00    +0.016 A 
ATOM     12  C   UNL     1      -1.051 -11.699   6.500  0.00  0.00    +0.046 A 
ATOM     13  C   UNL     1      -0.152 -12.487   7.209  0.00  0.00    +0.121 A 
ATOM     14  C   UNL     1       1.191 -12.508   6.852  0.00  0.00    +0.046 A 
ATOM     15  C   UNL     1       1.635 -11.751   5.791  0.00  0.00    +0.016 A 
BRANCH  13  16
ATOM     16  O   UNL     1      -0.587 -13.238   8.253  0.00  0.00    -0.486 OA
BRANCH  16  17
ATOM     17  C   UNL     1       0.390 -14.024   8.938  0.00  0.00    +0.286 C 
BRANCH  17  18
ATOM     18  C   UNL     1      -0.272 -14.784  10.058  0.00  0.00    +0.097 A 
ATOM     19  C   UNL     1      -1.586 -14.741  10.370  0.00  0.00    +0.119 A 
ATOM     20  N   UNL     1      -1.773 -15.571  11.442  0.00  0.00    -0.306 N 
ATOM     21  C   UNL     1      -2.880 -15.909  12.166  0.00  0.00    +0.092 A 
ATOM     22  C   UNL     1      -2.789 -16.772  13.200  0.00  0.00    +0.018 A 
ATOM     23  C   UNL     1      -1.549 -17.334  13.546  0.00  0.00    +0.005 A 
ATOM     24  C   UNL     1      -0.437 -17.005  12.833  0.00  0.00    +0.047 A 
ATOM     25  C   UNL     1      -0.550 -16.103  11.756  0.00  0.00    +0.138 A 
ATOM     26  N   UNL     1       0.340 -15.617  10.902  0.00  0.00    -0.229 NA
ENDBRANCH  17  18
ENDBRANCH  16  17
ENDBRANCH  13  16
ENDBRANCH   7  10
BRANCH   1  27
ATOM     27  C   UNL     1       0.382  -4.788   3.957  0.00  0.00    +0.019 C 
BRANCH  27  29
ATOM     28  N   UNL     1       0.673  -2.665   2.721  0.00  0.00    -0.287 N 
ATOM     29  C   UNL     1       0.456  -3.994   2.678  0.00  0.00    +0.201 C 
ATOM     30  O   UNL     1       0.320  -4.552   1.610  0.00  0.00    -0.278 OA
ATOM     31  H   UNL     1       0.860  -2.231   3.568  0.00  0.00    +0.155 HD
BRANCH  28  37
ATOM     32  C   UNL     1       2.016   1.343   0.210  0.00  0.00    +0.044 C 
ATOM     33  C   UNL     1       1.270   0.036   0.299  0.00  0.00    -0.046 A 
ATOM     34  C   UNL     1       0.540  -0.417  -0.784  0.00  0.00    +0.004 A 
ATOM     35  C   UNL     1      -0.146  -1.615  -0.707  0.00  0.00    +0.002 A 
ATOM     36  C   UNL     1      -0.104  -2.363   0.454  0.00  0.00    +0.023 A 
ATOM     37  C   UNL     1       0.628  -1.910   1.544  0.00  0.00    +0.036 A 
ATOM     38  C   UNL     1       1.320  -0.709   1.461  0.00  0.00    -0.026 A 
ATOM     39  C   UNL     1       2.121  -0.216   2.639  0.00  0.00    +0.046 C 
ENDBRANCH  28  37
ENDBRANCH  27  29
ENDBRANCH   1  27
TORSDOF 7
