REMARK  Name = ZINC42041487
REMARK  1 active torsions:
REMARK  status: ('A' for Active; 'I' for Inactive)
REMARK    1  A    between atoms: C_14  and  O_16
REMARK                            x       y       z     vdW  Elec       q    Type
REMARK                         _______ _______ _______ _____ _____    ______ ____
ROOT
ATOM      1  C   UNL     1      -0.017   1.385   0.010  0.00  0.00    +0.004 A 
ATOM      2  C   UNL     1       1.165   2.101   0.002  0.00  0.00    +0.009 A 
ATOM      3  C   UNL     1       2.367   1.432  -0.013  0.00  0.00    +0.011 A 
ATOM      4  C   UNL     1       2.403   0.045  -0.025  0.00  0.00    +0.043 A 
ATOM      5  C   UNL     1       1.202  -0.674  -0.019  0.00  0.00    -0.023 A 
ATOM      6  C   UNL     1       0.002  -0.004   0.002  0.00  0.00    -0.042 A 
ATOM      7  C   UNL     1      -1.324  -0.719   0.025  0.00  0.00    +0.035 C 
ATOM      8  C   UNL     1      -1.159  -2.171  -0.419  0.00  0.00    +0.005 C 
ATOM      9  C   UNL     1      -0.029  -2.802   0.402  0.00  0.00    +0.005 C 
ATOM     10  C   UNL     1       1.293  -2.178  -0.040  0.00  0.00    +0.037 C 
ATOM     11  N   UNL     1       3.724  -0.404  -0.041  0.00  0.00    -0.283 N 
ATOM     12  C   UNL     1       4.605   0.611  -0.041  0.00  0.00    +0.250 C 
ATOM     13  O   UNL     1       5.814   0.515  -0.053  0.00  0.00    -0.272 OA
ATOM     14  C   UNL     1       3.805   1.896  -0.022  0.00  0.00    +0.232 C 
ATOM     15  H   UNL     1       3.977  -1.340  -0.052  0.00  0.00    +0.155 HD
ENDROOT
BRANCH  14  16
ATOM     16  O   UNL     1       4.096   2.650   1.156  0.00  0.00    -0.378 OA
ATOM     17  H   UNL     1       5.006   2.973   1.202  0.00  0.00    +0.211 HD
ENDBRANCH  14  16
TORSDOF 1
