REMARK  Name = ZINC65180035
REMARK  8 active torsions:
REMARK  status: ('A' for Active; 'I' for Inactive)
REMARK    1  A    between atoms: C_1  and  C_2
REMARK    2  A    between atoms: C_2  and  C_3
REMARK    3  A    between atoms: C_2  and  C_4
REMARK    4  A    between atoms: C_4  and  N_5
REMARK    5  A    between atoms: N_8  and  N_9
REMARK    6  A    between atoms: C_10  and  C_12
REMARK    7  A    between atoms: C_17  and  N_18
REMARK    8  A    between atoms: C_19  and  C_21
REMARK                            x       y       z     vdW  Elec       q    Type
REMARK                         _______ _______ _______ _____ _____    ______ ____
ROOT
ATOM      1  C   UNL     1      -3.208   1.733  -5.720  0.00  0.00    +0.059 A 
ATOM      2  C   UNL     1      -1.915   2.197  -5.464  0.00  0.00    +0.015 A 
ATOM      3  C   UNL     1      -1.247   2.930  -6.420  0.00  0.00    +0.001 A 
ATOM      4  C   UNL     1      -1.850   3.210  -7.636  0.00  0.00    +0.002 A 
ATOM      5  C   UNL     1      -3.126   2.757  -7.904  0.00  0.00    +0.024 A 
ATOM      6  C   UNL     1      -3.813   2.012  -6.954  0.00  0.00    +0.046 A 
ENDROOT
BRANCH   1   8
ATOM      7  N   UNL     1      -3.308   0.596  -3.557  0.00  0.00    -0.229 N 
ATOM      8  C   UNL     1      -3.929   0.948  -4.700  0.00  0.00    +0.262 C 
ATOM      9  O   UNL     1      -5.084   0.618  -4.891  0.00  0.00    -0.269 OA
ATOM     10  H   UNL     1      -2.387   0.859  -3.405  0.00  0.00    +0.173 HD
BRANCH   7  14
ATOM     11  N   UNL     1      -2.092  -0.137  -1.234  0.00  0.00    -0.298 N 
ATOM     12  C   UNL     1      -3.372  -0.502  -1.446  0.00  0.00    +0.316 C 
ATOM     13  O   UNL     1      -3.967  -1.149  -0.605  0.00  0.00    -0.251 OA
ATOM     14  N   UNL     1      -3.993  -0.150  -2.589  0.00  0.00    -0.218 N 
ATOM     15  H   UNL     1      -1.618   0.380  -1.904  0.00  0.00    +0.150 HD
ATOM     16  H   UNL     1      -4.914  -0.413  -2.741  0.00  0.00    +0.174 HD
BRANCH  11  17
ATOM     17  C   UNL     1      -1.417  -0.519   0.009  0.00  0.00    +0.108 C 
BRANCH  17  19
ATOM     18  C   UNL     1      -0.012   1.546   0.006  0.00  0.00    +0.009 C 
ATOM     19  C   UNL     1       0.015   0.017  -0.003  0.00  0.00    -0.000 C 
ATOM     20  C   UNL     1       0.759  -0.487   1.236  0.00  0.00    +0.009 C 
ENDBRANCH  17  19
ENDBRANCH  11  17
ENDBRANCH   7  14
ENDBRANCH   1   8
BRANCH   6  21
ATOM     21  N   UNL     1      -5.098   1.550  -7.223  0.00  0.00    -0.280 N 
ATOM     22  C   UNL     1      -5.430   1.173  -8.474  0.00  0.00    +0.255 C 
ATOM     23  O   UNL     1      -4.582   1.145  -9.347  0.00  0.00    -0.269 OA
ATOM     24  H   UNL     1      -5.755   1.499  -6.511  0.00  0.00    +0.155 HD
BRANCH  22  25
ATOM     25  C   UNL     1      -6.812   0.797  -8.783  0.00  0.00    +0.074 A 
ATOM     26  C   UNL     1      -7.356   0.379  -9.989  0.00  0.00    +0.021 A 
ATOM     27  C   UNL     1      -8.700   0.092  -9.970  0.00  0.00    +0.008 A 
ATOM     28  C   UNL     1      -9.387   0.232  -8.810  0.00  0.00    +0.046 A 
ATOM     29  S   UNL     1      -8.232   0.749  -7.705  0.00  0.00    -0.092 S 
ENDBRANCH  22  25
ENDBRANCH   6  21
TORSDOF 6
