REMARK  Name = ZINC27554559
REMARK  8 active torsions:
REMARK  status: ('A' for Active; 'I' for Inactive)
REMARK    1  A    between atoms: C_1  and  C_2
REMARK    2  A    between atoms: C_2  and  C_4
REMARK    3  A    between atoms: C_2  and  N_9
REMARK    4  A    between atoms: N_9  and  C_10
REMARK    5  A    between atoms: N_9  and  C_11
REMARK    6  A    between atoms: C_11  and  C_12
REMARK    7  A    between atoms: N_14  and  C_15
REMARK    8  A    between atoms: C_16  and  C_20
REMARK                            x       y       z     vdW  Elec       q    Type
REMARK                         _______ _______ _______ _____ _____    ______ ____
ROOT
ATOM      1  C   UNL     1       3.539   6.551  -2.262  0.00  0.00    +0.201 C 
ATOM      2  O   UNL     1       3.737   5.538  -2.901  0.00  0.00    -0.278 OA
ATOM      3  N   UNL     1       4.172   7.693  -2.596  0.00  0.00    -0.281 N 
ATOM      4  H   UNL     1       3.992   8.611  -2.017  0.00  0.00    +0.155 HD
ENDROOT
BRANCH   3   5
ATOM      5  C   UNL     1       5.050   7.711  -3.670  0.00  0.00    +0.084 A 
ATOM      6  C   UNL     1       5.784   8.781  -4.166  0.00  0.00    +0.065 A 
ATOM      7  C   UNL     1       6.631   8.514  -5.305  0.00  0.00    +0.022 A 
ATOM      8  C   UNL     1       6.629   7.260  -5.792  0.00  0.00    +0.048 A 
ATOM      9  S   UNL     1       5.490   6.407  -4.721  0.00  0.00    -0.081 S 
BRANCH   6  10
ATOM     10  C   UNL     1       5.706  10.114  -3.562  0.00  0.00    +0.244 C 
ATOM     11  O   UNL     1       4.984  10.305  -2.600  0.00  0.00    -0.270 OA
ATOM     12  N   UNL     1       6.433  11.129  -4.070  0.00  0.00    -0.325 N 
ATOM     13  H   UNL     1       6.374  12.129  -3.616  0.00  0.00    +0.145 HD
ATOM     14  H   UNL     1       7.085  10.956  -4.939  0.00  0.00    +0.145 HD
ENDBRANCH   6  10
ENDBRANCH   3   5
BRANCH   1  15
ATOM     15  C   UNL     1       2.586   6.531  -1.096  0.00  0.00    +0.019 C 
BRANCH  15  16
ATOM     16  N   UNL     1       2.031   5.180  -0.939  0.00  0.00    +0.388 N 
ATOM     17  C   UNL     1       3.076   4.223  -0.552  0.00  0.00    -0.095 C 
ATOM     18  H   UNL     1       1.628   4.865  -1.913  0.00  0.00    -0.081 HD
BRANCH  16  20
ATOM     19  C   UNL     1       0.409   3.744   0.203  0.00  0.00    -0.008 C 
ATOM     20  C   UNL     1       0.926   5.173   0.029  0.00  0.00    -0.034 C 
BRANCH  20  21
ATOM     21  C   UNL     1      -0.189   6.053  -0.474  0.00  0.00    -0.024 A 
ATOM     22  C   UNL     1      -0.957   6.934   0.212  0.00  0.00    +0.009 A 
ATOM     23  C   UNL     1      -1.929   7.646  -0.466  0.00  0.00    +0.008 A 
ATOM     24  C   UNL     1      -2.092   7.434  -1.795  0.00  0.00    +0.045 A 
ATOM     25  S   UNL     1      -0.840   6.206  -2.130  0.00  0.00    -0.103 S 
ENDBRANCH  20  21
ENDBRANCH  16  20
ENDBRANCH  15  16
ENDBRANCH   1  15
TORSDOF 6
