REMARK  Name = ZINC59042240
REMARK  4 active torsions:
REMARK  status: ('A' for Active; 'I' for Inactive)
REMARK    1  A    between atoms: C_1  and  C_2
REMARK    2  A    between atoms: C_7  and  C_10
REMARK    3  A    between atoms: C_14  and  N_17
REMARK    4  A    between atoms: N_20  and  C_21
REMARK                            x       y       z     vdW  Elec       q    Type
REMARK                         _______ _______ _______ _____ _____    ______ ____
ROOT
ATOM      1  N   UNL     1      -4.137  -5.437  -3.129  0.00  0.00    -0.268 N 
ATOM      2  C   UNL     1      -4.361  -5.129  -4.422  0.00  0.00    +0.304 C 
ATOM      3  O   UNL     1      -3.893  -4.111  -4.894  0.00  0.00    -0.252 OA
ATOM      4  N   UNL     1      -5.104  -5.949  -5.191  0.00  0.00    -0.292 N 
ATOM      5  H   UNL     1      -4.441  -6.287  -2.774  0.00  0.00    +0.156 HD
ATOM      6  H   UNL     1      -5.478  -6.761  -4.815  0.00  0.00    +0.151 HD
ENDROOT
BRANCH   1  18
ATOM      7  C   UNL     1      -0.051   1.542   0.016  0.00  0.00    +0.039 C 
ATOM      8  C   UNL     1      -0.033   0.012   0.019  0.00  0.00    +0.133 C 
ATOM      9  C   UNL     1      -1.471  -0.517   0.017  0.00  0.00    +0.137 C 
ATOM     10  N   UNL     1      -1.430  -1.975   0.208  0.00  0.00    -0.312 N 
ATOM     11  C   UNL     1      -0.635  -2.503   1.329  0.00  0.00    +0.137 C 
ATOM     12  C   UNL     1       0.763  -1.877   1.268  0.00  0.00    +0.133 C 
ATOM     13  O   UNL     1       0.640  -0.455   1.191  0.00  0.00    -0.371 OA
ATOM     14  C   UNL     1       1.548  -2.256   2.525  0.00  0.00    +0.039 C 
ATOM     15  C   UNL     1      -2.122  -2.831  -0.645  0.00  0.00    +0.099 A 
ATOM     16  C   UNL     1      -2.952  -2.299  -1.626  0.00  0.00    +0.043 A 
ATOM     17  C   UNL     1      -3.635  -3.157  -2.468  0.00  0.00    +0.028 A 
ATOM     18  C   UNL     1      -3.464  -4.530  -2.299  0.00  0.00    +0.051 A 
ATOM     19  C   UNL     1      -2.620  -4.988  -1.299  0.00  0.00    +0.107 A 
ATOM     20  N   UNL     1      -1.979  -4.140  -0.516  0.00  0.00    -0.348 N 
ATOM     21  H   UNL     1      -1.391  -4.486   0.174  0.00  0.00    +0.167 HD
ENDBRANCH   1  18
BRANCH   4  22
ATOM     22  C   UNL     1      -5.348  -5.613  -6.596  0.00  0.00    +0.111 C 
ATOM     23  C   UNL     1      -6.645  -6.281  -7.062  0.00  0.00    +0.068 C 
ATOM     24  C   UNL     1      -6.724  -6.166  -8.589  0.00  0.00    +0.231 C 
ATOM     25  O   UNL     1      -5.652  -6.921  -9.155  0.00  0.00    -0.492 OA
ATOM     26  C   UNL     1      -4.403  -6.719  -8.657  0.00  0.00    +0.125 A 
ATOM     27  C   UNL     1      -4.196  -6.103  -7.436  0.00  0.00    +0.015 A 
ATOM     28  C   UNL     1      -2.906  -5.924  -6.967  0.00  0.00    +0.009 A 
ATOM     29  C   UNL     1      -1.826  -6.356  -7.712  0.00  0.00    +0.001 A 
ATOM     30  C   UNL     1      -2.031  -6.971  -8.933  0.00  0.00    +0.004 A 
ATOM     31  C   UNL     1      -3.313  -7.152  -9.406  0.00  0.00    +0.046 A 
ENDBRANCH   4  22
TORSDOF 2
