REMARK  Name = ZINC46347314
REMARK  8 active torsions:
REMARK  status: ('A' for Active; 'I' for Inactive)
REMARK    1  A    between atoms: C_1  and  N_2
REMARK    2  A    between atoms: N_2  and  C_3
REMARK    3  A    between atoms: N_2  and  C_4
REMARK    4  A    between atoms: C_4  and  C_6
REMARK    5  A    between atoms: C_4  and  C_22
REMARK    6  A    between atoms: C_6  and  N_7
REMARK    7  A    between atoms: N_10  and  N_11
REMARK    8  A    between atoms: C_12  and  C_14
REMARK                            x       y       z     vdW  Elec       q    Type
REMARK                         _______ _______ _______ _____ _____    ______ ____
ROOT
ATOM      1  N   UNL     1      -0.863  -2.018  -0.475  0.00  0.00    -0.299 N 
ATOM      2  C   UNL     1      -1.239  -3.291  -0.245  0.00  0.00    +0.316 C 
ATOM      3  O   UNL     1      -0.403  -4.173  -0.199  0.00  0.00    -0.251 OA
ATOM      4  N   UNL     1      -2.542  -3.587  -0.068  0.00  0.00    -0.218 N 
ATOM      5  H   UNL     1      -1.529  -1.314  -0.512  0.00  0.00    +0.150 HD
ATOM      6  H   UNL     1      -2.812  -4.504   0.097  0.00  0.00    +0.174 HD
ENDROOT
BRANCH   4   7
ATOM      7  N   UNL     1      -3.505  -2.571  -0.122  0.00  0.00    -0.233 N 
ATOM      8  C   UNL     1      -4.807  -2.868   0.056  0.00  0.00    +0.234 C 
ATOM      9  O   UNL     1      -5.146  -4.014   0.262  0.00  0.00    -0.274 OA
ATOM     10  H   UNL     1      -3.234  -1.655  -0.287  0.00  0.00    +0.173 HD
BRANCH   8  11
ATOM     11  C   UNL     1      -5.843  -1.774  -0.002  0.00  0.00    +0.099 C 
ATOM     12  C   UNL     1      -5.808  -1.110  -1.388  0.00  0.00    +0.037 C 
ATOM     13  C   UNL     1      -7.073  -0.217  -1.530  0.00  0.00    +0.166 C 
ATOM     14  S   UNL     1      -8.342  -1.305  -0.754  0.00  0.00    -0.030 S 
ATOM     15  O   UNL     1      -9.151  -0.524   0.114  0.00  0.00    -0.174 OA
ATOM     16  O   UNL     1      -8.957  -2.092  -1.765  0.00  0.00    -0.174 OA
ATOM     17  C   UNL     1      -7.244  -2.380   0.255  0.00  0.00    +0.178 C 
ENDBRANCH   8  11
ENDBRANCH   4   7
BRANCH   1  18
ATOM     18  C   UNL     1       0.554  -1.696  -0.668  0.00  0.00    +0.095 C 
BRANCH  18  19
ATOM     19  C   UNL     1       0.695  -0.217  -1.037  0.00  0.00    -0.020 C 
BRANCH  19  20
ATOM     20  C   UNL     1       0.048   0.030  -2.375  0.00  0.00    -0.052 A 
ATOM     21  C   UNL     1      -1.217   0.581  -2.452  0.00  0.00    +0.009 A 
ATOM     22  C   UNL     1      -1.770   0.791  -3.671  0.00  0.00    +0.045 A 
ATOM     23  S   UNL     1      -0.487   0.202  -4.765  0.00  0.00    -0.105 S 
ATOM     24  C   UNL     1       0.701  -0.278  -3.522  0.00  0.00    +0.047 A 
ENDBRANCH  19  20
BRANCH  19  26
ATOM     25  C   UNL     1       2.255   1.543  -1.507  0.00  0.00    -0.096 C 
ATOM     26  N   UNL     1       2.119   0.136  -1.108  0.00  0.00    +0.382 N 
ATOM     27  C   UNL     1       2.739  -0.063   0.209  0.00  0.00    -0.096 C 
ATOM     28  H   UNL     1       2.578  -0.453  -1.788  0.00  0.00    -0.082 HD
ENDBRANCH  19  26
ENDBRANCH  18  19
ENDBRANCH   1  18
TORSDOF 6
