REMARK  Name = ZINC37620227
REMARK  8 active torsions:
REMARK  status: ('A' for Active; 'I' for Inactive)
REMARK    1  A    between atoms: C_1  and  C_2
REMARK    2  A    between atoms: C_2  and  C_3
REMARK    3  A    between atoms: C_3  and  C_4
REMARK    4  A    between atoms: C_4  and  C_5
REMARK    5  A    between atoms: C_5  and  C_7
REMARK    6  A    between atoms: C_5  and  N_18
REMARK    7  A    between atoms: N_9  and  C_10
REMARK    8  A    between atoms: C_15  and  C_16
REMARK                            x       y       z     vdW  Elec       q    Type
REMARK                         _______ _______ _______ _____ _____    ______ ____
ROOT
ATOM      1  C   UNL     1      -2.831  -4.095   0.132  0.00  0.00    +0.203 C 
ATOM      2  O   UNL     1      -2.978  -4.781  -0.858  0.00  0.00    -0.277 OA
ATOM      3  N   UNL     1      -2.640  -4.676   1.332  0.00  0.00    -0.287 N 
ATOM      4  H   UNL     1      -2.444  -4.131   2.110  0.00  0.00    +0.155 HD
ENDROOT
BRANCH   3   5
ATOM      5  C   UNL     1      -2.726  -6.068   1.458  0.00  0.00    +0.036 A 
ATOM      6  C   UNL     1      -3.480  -6.803   0.552  0.00  0.00    +0.024 A 
ATOM      7  C   UNL     1      -3.562  -8.176   0.678  0.00  0.00    +0.016 A 
ATOM      8  C   UNL     1      -2.895  -8.819   1.706  0.00  0.00    +0.014 A 
ATOM      9  C   UNL     1      -2.144  -8.089   2.609  0.00  0.00    +0.019 A 
ATOM     10  C   UNL     1      -2.054  -6.716   2.485  0.00  0.00    -0.028 A 
ATOM     11  C   UNL     1      -1.230  -5.923   3.466  0.00  0.00    +0.046 C 
ATOM     12  I   UNL     1      -3.023 -10.901   1.893  0.00  0.00    -0.044 I 
ENDBRANCH   3   5
BRANCH   1  13
ATOM     13  C   UNL     1      -2.863  -2.593   0.018  0.00  0.00    +0.013 C 
BRANCH  13  14
ATOM     14  N   UNL     1      -3.538  -2.210  -1.229  0.00  0.00    +0.386 N 
ATOM     15  H   UNL     1      -3.038  -2.596  -2.015  0.00  0.00    -0.089 HD
ATOM     16  H   UNL     1      -4.482  -2.567  -1.223  0.00  0.00    -0.089 HD
ATOM     17  H   UNL     1      -3.559  -1.204  -1.305  0.00  0.00    -0.089 HD
ENDBRANCH  13  14
BRANCH  13  18
ATOM     18  C   UNL     1      -1.432  -2.052   0.010  0.00  0.00    -0.007 C 
BRANCH  18  19
ATOM     19  C   UNL     1      -1.464  -0.522   0.020  0.00  0.00    -0.001 C 
BRANCH  19  21
ATOM     20  C   UNL     1      -0.066   1.548   0.022  0.00  0.00    +0.004 C 
ATOM     21  C   UNL     1      -0.033   0.018   0.012  0.00  0.00    -0.003 C 
ENDBRANCH  19  21
ENDBRANCH  18  19
ENDBRANCH  13  18
ENDBRANCH   1  13
TORSDOF 6
