REMARK  Name = ZINC08919794
REMARK  13 active torsions:
REMARK  status: ('A' for Active; 'I' for Inactive)
REMARK    1  A    between atoms: C_1  and  C_2
REMARK    2  A    between atoms: C_2  and  C_3
REMARK    3  A    between atoms: C_3  and  C_4
REMARK    4  A    between atoms: C_3  and  C_5
REMARK    5  A    between atoms: C_3  and  C_6
REMARK    6  A    between atoms: C_15  and  O_37
REMARK    7  A    between atoms: C_17  and  C_20
REMARK    8  A    between atoms: C_23  and  O_29
REMARK    9  A    between atoms: C_24  and  O_26
REMARK   10  A    between atoms: O_26  and  C_27
REMARK   11  A    between atoms: C_27  and  C_28
REMARK   12  A    between atoms: O_29  and  C_30
REMARK   13  A    between atoms: C_30  and  C_32
REMARK                            x       y       z     vdW  Elec       q    Type
REMARK                         _______ _______ _______ _____ _____    ______ ____
ROOT
ATOM      1  C   UNL     1      -9.566  -1.438   7.024  0.00  0.00    -0.000 C 
ATOM      2  C   UNL     1      -9.485   0.026   6.583  0.00  0.00    +0.009 C 
ATOM      3  C   UNL     1     -10.025   0.172   5.159  0.00  0.00    +0.037 C 
ATOM      4  C   UNL     1      -9.310  -0.829   4.258  0.00  0.00    -0.023 A 
ATOM      5  C   UNL     1      -8.658  -1.892   4.783  0.00  0.00    -0.004 A 
ATOM      6  S   UNL     1      -7.995  -2.757   3.384  0.00  0.00    -0.078 S 
ATOM      7  C   UNL     1      -8.574  -1.735   2.140  0.00  0.00    +0.080 A 
ATOM      8  C   UNL     1      -9.274  -0.724   2.809  0.00  0.00    +0.068 A 
ATOM      9  C   UNL     1      -9.898   0.337   1.978  0.00  0.00    +0.220 C 
ATOM     10  N   UNL     1      -9.591   0.376   0.711  0.00  0.00    -0.223 NA
ATOM     11  C   UNL     1      -8.604  -0.484   0.068  0.00  0.00    +0.224 C 
ATOM     12  N   UNL     1      -8.463  -1.772   0.771  0.00  0.00    -0.313 N 
ATOM     13  C   UNL     1      -8.530  -2.249   6.231  0.00  0.00    +0.046 C 
ATOM     14  H   UNL     1      -8.300  -2.600   0.293  0.00  0.00    +0.149 HD
ENDROOT
BRANCH  11  15
ATOM     15  C   UNL     1      -7.272   0.220   0.058  0.00  0.00    -0.002 A 
ATOM     16  C   UNL     1      -6.103  -0.516   0.102  0.00  0.00    +0.011 A 
ATOM     17  C   UNL     1      -4.878   0.124   0.087  0.00  0.00    +0.050 A 
ATOM     18  C   UNL     1      -4.820   1.508   0.040  0.00  0.00    +0.173 A 
ATOM     19  C   UNL     1      -5.997   2.249  -0.005  0.00  0.00    +0.163 A 
ATOM     20  C   UNL     1      -7.221   1.601   0.005  0.00  0.00    +0.056 A 
BRANCH  19  21
ATOM     21  O   UNL     1      -5.946   3.607  -0.057  0.00  0.00    -0.489 OA
BRANCH  21  22
ATOM     22  C   UNL     1      -7.193   4.302  -0.100  0.00  0.00    +0.226 C 
ATOM     23  C   UNL     1      -6.936   5.809  -0.155  0.00  0.00    +0.048 C 
ENDBRANCH  21  22
ENDBRANCH  19  21
BRANCH  18  24
ATOM     24  O   UNL     1      -3.616   2.140   0.030  0.00  0.00    -0.418 OA
BRANCH  24  25
ATOM     25  C   UNL     1      -3.128   2.545   1.221  0.00  0.00    +0.351 C 
ATOM     26  O   UNL     1      -3.800   2.423   2.227  0.00  0.00    -0.244 OA
BRANCH  25  27
ATOM     27  C   UNL     1      -1.789   3.131   1.302  0.00  0.00    +0.097 A 
ATOM     28  C   UNL     1      -1.108   3.606   2.413  0.00  0.00    +0.022 A 
ATOM     29  C   UNL     1       0.153   4.106   2.207  0.00  0.00    +0.008 A 
ATOM     30  C   UNL     1       0.664   4.117   0.948  0.00  0.00    +0.046 A 
ATOM     31  S   UNL     1      -0.609   3.424  -0.003  0.00  0.00    -0.090 S 
ENDBRANCH  25  27
ENDBRANCH  24  25
ENDBRANCH  18  24
ENDBRANCH  11  15
BRANCH   1  32
ATOM     32  C   UNL     1      -9.262  -1.541   8.520  0.00  0.00    -0.032 C 
ATOM     33  C   UNL     1      -7.863  -0.987   8.795  0.00  0.00    +0.011 C 
ATOM     34  C   UNL     1     -10.295  -0.732   9.306  0.00  0.00    +0.011 C 
BRANCH  32  36
ATOM     35  C   UNL     1      -9.021  -3.109  10.449  0.00  0.00    +0.004 C 
ATOM     36  C   UNL     1      -9.325  -3.007   8.953  0.00  0.00    +0.003 C 
ENDBRANCH  32  36
ENDBRANCH   1  32
BRANCH   9  37
ATOM     37  O   UNL     1     -10.756   1.235   2.517  0.00  0.00    -0.492 OA
ATOM     38  H   UNL     1     -11.100   1.879   1.883  0.00  0.00    +0.294 HD
ENDBRANCH   9  37
TORSDOF 9
