REMARK  Name = ZINC37622293
REMARK  8 active torsions:
REMARK  status: ('A' for Active; 'I' for Inactive)
REMARK    1  A    between atoms: C_1  and  C_2
REMARK    2  A    between atoms: C_2  and  C_3
REMARK    3  A    between atoms: C_3  and  C_4
REMARK    4  A    between atoms: C_4  and  C_5
REMARK    5  A    between atoms: C_4  and  C_6
REMARK    6  A    between atoms: C_4  and  N_17
REMARK    7  A    between atoms: N_8  and  C_9
REMARK    8  A    between atoms: C_14  and  C_15
REMARK                            x       y       z     vdW  Elec       q    Type
REMARK                         _______ _______ _______ _____ _____    ______ ____
ROOT
ATOM      1  C   UNL     1      -2.826  -2.584   0.018  0.00  0.00    +0.206 C 
ATOM      2  O   UNL     1      -3.728  -1.901  -0.420  0.00  0.00    -0.277 OA
ATOM      3  N   UNL     1      -3.088  -3.813   0.504  0.00  0.00    -0.286 N 
ATOM      4  H   UNL     1      -2.359  -4.391   0.780  0.00  0.00    +0.155 HD
ENDROOT
BRANCH   3   5
ATOM      5  C   UNL     1      -4.411  -4.257   0.611  0.00  0.00    +0.036 A 
ATOM      6  C   UNL     1      -5.446  -3.338   0.725  0.00  0.00    +0.024 A 
ATOM      7  C   UNL     1      -6.750  -3.779   0.830  0.00  0.00    +0.016 A 
ATOM      8  C   UNL     1      -7.027  -5.134   0.822  0.00  0.00    +0.014 A 
ATOM      9  C   UNL     1      -5.998  -6.052   0.709  0.00  0.00    +0.019 A 
ATOM     10  C   UNL     1      -4.692  -5.617   0.598  0.00  0.00    -0.028 A 
ATOM     11  C   UNL     1      -3.572  -6.617   0.468  0.00  0.00    +0.046 C 
ATOM     12  I   UNL     1      -9.007  -5.798   0.982  0.00  0.00    -0.044 I 
ENDBRANCH   3   5
BRANCH   1  13
ATOM     13  C   UNL     1      -1.414  -2.058   0.019  0.00  0.00    +0.005 C 
ATOM     14  C   UNL     1      -0.687  -2.548  -1.235  0.00  0.00    -0.001 C 
BRANCH  13  15
ATOM     15  N   UNL     1      -0.711  -2.543   1.214  0.00  0.00    +0.387 N 
ATOM     16  H   UNL     1      -1.191  -2.220   2.041  0.00  0.00    -0.089 HD
ATOM     17  H   UNL     1      -0.695  -3.552   1.207  0.00  0.00    -0.089 HD
ATOM     18  H   UNL     1       0.234  -2.191   1.214  0.00  0.00    -0.089 HD
ENDBRANCH  13  15
BRANCH  13  19
ATOM     19  C   UNL     1      -1.440  -0.528   0.028  0.00  0.00    -0.004 C 
BRANCH  19  21
ATOM     20  C   UNL     1      -0.032   1.536   0.038  0.00  0.00    +0.004 C 
ATOM     21  C   UNL     1      -0.006   0.006   0.029  0.00  0.00    -0.004 C 
ENDBRANCH  19  21
ENDBRANCH  13  19
ENDBRANCH   1  13
TORSDOF 5
