REMARK  Name = ZINC00820745
REMARK  6 active torsions:
REMARK  status: ('A' for Active; 'I' for Inactive)
REMARK    1  A    between atoms: C_1  and  C_2
REMARK    2  A    between atoms: C_5  and  S_8
REMARK    3  A    between atoms: S_8  and  N_11
REMARK    4  A    between atoms: N_17  and  S_19
REMARK    5  A    between atoms: S_19  and  C_22
REMARK    6  A    between atoms: C_25  and  C_28
REMARK                            x       y       z     vdW  Elec       q    Type
REMARK                         _______ _______ _______ _____ _____    ______ ____
ROOT
ATOM      1  N   UNL     1      -1.128   1.267  -1.619  0.00  0.00    -0.192 NA
ATOM      2  C   UNL     1      -0.341   0.551  -0.603  0.00  0.00    +0.124 C 
ATOM      3  C   UNL     1      -0.761   1.051   0.783  0.00  0.00    +0.040 C 
ATOM      4  C   UNL     1      -2.290   0.959   0.905  0.00  0.00    -0.054 C 
ATOM      5  C   UNL     1      -2.590   1.295  -1.478  0.00  0.00    +0.036 C 
ATOM      6  C   UNL     1      -2.585   3.198   0.022  0.00  0.00    +0.036 C 
ATOM      7  N   UNL     1      -1.121   3.337   0.013  0.00  0.00    -0.192 NA
ATOM      8  C   UNL     1      -0.336   2.514   0.945  0.00  0.00    +0.124 C 
ATOM      9 BR   UNL     1       0.098  -0.048   2.168  0.00  0.00    -0.084 Br
ATOM     10  N   UNL     1      -2.962   1.776  -0.129  0.00  0.00    +0.400 N 
ATOM     11  H   UNL     1      -3.978   1.688  -0.013  0.00  0.00    -0.078 HD
ENDROOT
BRANCH   1  12
ATOM     12  S   UNL     1      -0.384   2.023  -2.890  0.00  0.00    +0.059 S 
ATOM     13  O   UNL     1      -1.343   2.904  -3.457  0.00  0.00    -0.153 OA
ATOM     14  O   UNL     1       0.877   2.474  -2.413  0.00  0.00    -0.153 OA
BRANCH  12  19
ATOM     15  C   UNL     1       0.758  -2.192  -7.054  0.00  0.00    +0.044 C 
ATOM     16  C   UNL     1       0.473  -1.139  -6.014  0.00  0.00    -0.050 A 
ATOM     17  C   UNL     1      -0.725  -0.450  -6.039  0.00  0.00    +0.005 A 
ATOM     18  C   UNL     1      -0.987   0.516  -5.085  0.00  0.00    +0.029 A 
ATOM     19  C   UNL     1      -0.050   0.792  -4.106  0.00  0.00    +0.105 A 
ATOM     20  C   UNL     1       1.150   0.107  -4.085  0.00  0.00    +0.029 A 
ATOM     21  C   UNL     1       1.410  -0.862  -5.036  0.00  0.00    +0.005 A 
ENDBRANCH  12  19
ENDBRANCH   1  12
BRANCH   7  22
ATOM     22  S   UNL     1      -0.376   4.394  -1.021  0.00  0.00    +0.059 S 
ATOM     23  O   UNL     1       0.990   4.006  -1.082  0.00  0.00    -0.153 OA
ATOM     24  O   UNL     1      -1.197   4.477  -2.178  0.00  0.00    -0.153 OA
BRANCH  22  25
ATOM     25  C   UNL     1      -0.415   5.982  -0.260  0.00  0.00    +0.105 A 
ATOM     26  C   UNL     1      -1.479   6.834  -0.492  0.00  0.00    +0.029 A 
ATOM     27  C   UNL     1      -1.512   8.079   0.108  0.00  0.00    +0.005 A 
ATOM     28  C   UNL     1      -0.476   8.475   0.934  0.00  0.00    -0.050 A 
ATOM     29  C   UNL     1       0.590   7.626   1.162  0.00  0.00    +0.005 A 
ATOM     30  C   UNL     1       0.621   6.379   0.565  0.00  0.00    +0.029 A 
ATOM     31  C   UNL     1      -0.510   9.834   1.586  0.00  0.00    +0.044 C 
ENDBRANCH  22  25
ENDBRANCH   7  22
TORSDOF 4
