REMARK  Name = ZINC43758957
REMARK  8 active torsions:
REMARK  status: ('A' for Active; 'I' for Inactive)
REMARK    1  A    between atoms: C_1  and  C_2
REMARK    2  A    between atoms: C_5  and  O_32
REMARK    3  A    between atoms: C_16  and  O_31
REMARK    4  A    between atoms: C_19  and  C_30
REMARK    5  A    between atoms: C_24  and  C_25
REMARK    6  A    between atoms: C_24  and  O_29
REMARK    7  A    between atoms: C_25  and  C_27
REMARK    8  A    between atoms: C_27  and  O_28
REMARK                            x       y       z     vdW  Elec       q    Type
REMARK                         _______ _______ _______ _____ _____    ______ ____
ROOT
ATOM      1  C   UNL     1      -0.156   1.386  -0.072  0.00  0.00    +0.012 C 
ATOM      2  C   UNL     1      -0.180  -0.141  -0.164  0.00  0.00    -0.024 C 
ATOM      3  C   UNL     1      -1.631  -0.624  -0.230  0.00  0.00    +0.010 C 
ATOM      4  C   UNL     1      -2.376  -0.174   1.028  0.00  0.00    +0.032 C 
ATOM      5  C   UNL     1      -1.697  -0.767   2.264  0.00  0.00    +0.115 C 
ATOM      6  C   UNL     1      -0.247  -0.284   2.330  0.00  0.00    +0.035 C 
ATOM      7  C   UNL     1       0.499  -0.736   1.071  0.00  0.00    -0.002 C 
ATOM      8  C   UNL     1       1.949  -0.250   1.135  0.00  0.00    +0.004 C 
ATOM      9  C   UNL     1       2.692  -0.710  -0.120  0.00  0.00    +0.004 C 
ATOM     10  C   UNL     1       2.016  -0.123  -1.361  0.00  0.00    -0.001 C 
ATOM     11  C   UNL     1       0.562  -0.588  -1.426  0.00  0.00    +0.027 C 
ATOM     12  C   UNL     1      -0.105   0.055  -2.648  0.00  0.00    +0.119 C 
ATOM     13  C   UNL     1       0.598  -0.452  -3.906  0.00  0.00    +0.041 C 
ATOM     14  C   UNL     1       2.069  -0.105  -3.889  0.00  0.00    +0.009 C 
ATOM     15  C   UNL     1       2.785  -0.572  -2.607  0.00  0.00    +0.002 C 
ATOM     16  C   UNL     1       4.094   0.272  -2.647  0.00  0.00    +0.008 C 
ATOM     17  C   UNL     1       3.627   1.653  -3.155  0.00  0.00    +0.043 C 
ATOM     18  C   UNL     1       2.322   1.407  -3.949  0.00  0.00    +0.131 C 
ATOM     19  C   UNL     1       2.752  -0.770  -5.085  0.00  0.00    +0.015 C 
ENDROOT
BRANCH  18  20
ATOM     20  C   UNL     1       1.179   2.151  -3.307  0.00  0.00    +0.190 C 
ATOM     21  O   UNL     1       1.244   2.469  -2.143  0.00  0.00    -0.292 OA
BRANCH  20  22
ATOM     22  C   UNL     1      -0.044   2.497  -4.115  0.00  0.00    +0.233 C 
BRANCH  22  23
ATOM     23  O   UNL     1      -0.979   3.196  -3.290  0.00  0.00    -0.387 OA
ATOM     24  H   UNL     1      -1.793   3.450  -3.746  0.00  0.00    +0.210 HD
ENDBRANCH  22  23
ENDBRANCH  20  22
ENDBRANCH  18  20
BRANCH  18  25
ATOM     25  O   UNL     1       2.482   1.826  -5.306  0.00  0.00    -0.380 OA
ATOM     26  H   UNL     1       2.644   2.774  -5.409  0.00  0.00    +0.211 HD
ENDBRANCH  18  25
BRANCH  12  27
ATOM     27  O   UNL     1      -1.487  -0.306  -2.687  0.00  0.00    -0.391 OA
ATOM     28  H   UNL     1      -1.970   0.067  -3.436  0.00  0.00    +0.210 HD
ENDBRANCH  12  27
BRANCH   5  29
ATOM     29  O   UNL     1      -2.393  -0.346   3.438  0.00  0.00    -0.392 OA
ATOM     30  H   UNL     1      -3.321  -0.619   3.464  0.00  0.00    +0.210 HD
ENDBRANCH   5  29
TORSDOF 6
