REMARK  Name = ZINC33617862
REMARK  13 active torsions:
REMARK  status: ('A' for Active; 'I' for Inactive)
REMARK    1  A    between atoms: C_1  and  C_2
REMARK    2  A    between atoms: C_2  and  C_3
REMARK    3  A    between atoms: C_3  and  C_5
REMARK    4  A    between atoms: C_3  and  C_6
REMARK    5  A    between atoms: C_6  and  C_8
REMARK    6  A    between atoms: C_6  and  N_25
REMARK    7  A    between atoms: C_14  and  C_16
REMARK    8  A    between atoms: C_26  and  C_28
REMARK    9  A    between atoms: C_28  and  C_29
REMARK   10  A    between atoms: C_29  and  C_30
REMARK   11  A    between atoms: C_30  and  C_31
REMARK   12  A    between atoms: C_31  and  C_32
REMARK   13  A    between atoms: C_32  and  N_33
REMARK                            x       y       z     vdW  Elec       q    Type
REMARK                         _______ _______ _______ _____ _____    ______ ____
ROOT
ATOM      1  C   UNL     1      -0.414   1.280  -0.382  0.00  0.00    +0.162 C 
ENDROOT
BRANCH   1   2
ATOM      2  C   UNL     1      -0.224   1.950   0.955  0.00  0.00    +0.239 C 
ATOM      3  O   UNL     1       0.891   2.242   1.333  0.00  0.00    -0.273 OA
ATOM      4  N   UNL     1      -1.292   2.224   1.729  0.00  0.00    -0.262 N 
ATOM      5  C   UNL     1      -1.130   2.941   2.909  0.00  0.00    +0.188 A 
ATOM      6  N   UNL     1      -0.031   3.445   3.455  0.00  0.00    -0.125 NA
ATOM      7  N   UNL     1      -0.059   4.078   4.546  0.00  0.00    -0.140 NA
ATOM      8  C   UNL     1      -1.190   4.278   5.212  0.00  0.00    +0.134 A 
ATOM      9  S   UNL     1      -2.345   3.454   4.120  0.00  0.00    -0.030 S 
ATOM     10  H   UNL     1      -2.293   1.880   1.428  0.00  0.00    +0.157 HD
BRANCH   8  11
ATOM     11  C   UNL     1      -1.428   4.985   6.488  0.00  0.00    +0.013 A 
ATOM     12  C   UNL     1      -2.720   5.073   7.008  0.00  0.00    +0.014 A 
ATOM     13  C   UNL     1      -2.941   5.733   8.199  0.00  0.00    +0.050 A 
ATOM     14  C   UNL     1      -1.882   6.311   8.883  0.00  0.00    +0.166 A 
ATOM     15  C   UNL     1      -0.589   6.227   8.369  0.00  0.00    +0.167 A 
ATOM     16  C   UNL     1      -0.361   5.562   7.178  0.00  0.00    +0.060 A 
ATOM     17  O   UNL     1       0.263   6.869   9.222  0.00  0.00    -0.453 OA
ATOM     18  C   UNL     1      -0.457   6.991  10.463  0.00  0.00    +0.466 C 
ATOM     19  O   UNL     1      -1.839   7.006  10.057  0.00  0.00    -0.453 OA
ENDBRANCH   8  11
ENDBRANCH   1   2
BRANCH   1  20
ATOM     20  N   UNL     1       0.890   1.077  -1.016  0.00  0.00    -0.304 N 
ATOM     21  C   UNL     1       1.117  -0.031  -1.750  0.00  0.00    +0.214 C 
ATOM     22  O   UNL     1       0.279  -0.906  -1.803  0.00  0.00    -0.276 OA
ATOM     23  H   UNL     1       1.685   1.828  -0.894  0.00  0.00    +0.149 HD
BRANCH  21  24
ATOM     24  C   UNL     1       2.413  -0.183  -2.503  0.00  0.00    +0.096 C 
BRANCH  24  25
ATOM     25  C   UNL     1       2.417  -1.520  -3.248  0.00  0.00    +0.009 C 
BRANCH  25  26
ATOM     26  C   UNL     1       3.732  -1.674  -4.014  0.00  0.00    -0.001 C 
BRANCH  26  27
ATOM     27  C   UNL     1       3.736  -3.010  -4.759  0.00  0.00    -0.020 C 
BRANCH  27  28
ATOM     28  C   UNL     1       5.051  -3.164  -5.524  0.00  0.00    -0.086 C 
BRANCH  28  29
ATOM     29  N   UNL     1       5.054  -4.447  -6.239  0.00  0.00    +0.378 N 
ATOM     30  H   UNL     1       6.000  -4.558  -6.789  0.00  0.00    -0.090 HD
ATOM     31  H   UNL     1       4.213  -4.475  -6.947  0.00  0.00    -0.090 HD
ATOM     32  H   UNL     1       4.952  -5.270  -5.516  0.00  0.00    -0.090 HD
ENDBRANCH  28  29
ENDBRANCH  27  28
ENDBRANCH  26  27
ENDBRANCH  25  26
ENDBRANCH  24  25
ENDBRANCH  21  24
ENDBRANCH   1  20
BRANCH   1  33
ATOM     33  C   UNL     1      -1.284   2.166  -1.277  0.00  0.00    +0.015 C 
ATOM     34  C   UNL     1      -1.619   1.414  -2.567  0.00  0.00    +0.010 C 
BRANCH  33  36
ATOM     35  C   UNL     1      -0.357   4.293  -0.352  0.00  0.00    +0.004 C 
ATOM     36  C   UNL     1      -0.524   3.449  -1.617  0.00  0.00    +0.002 C 
ENDBRANCH  33  36
ENDBRANCH   1  33
TORSDOF 11
