REMARK  Name = ZINC39531605
REMARK  9 active torsions:
REMARK  status: ('A' for Active; 'I' for Inactive)
REMARK    1  A    between atoms: C_1  and  C_2
REMARK    2  A    between atoms: C_5  and  C_8
REMARK    3  A    between atoms: C_8  and  C_10
REMARK    4  A    between atoms: C_8  and  N_19
REMARK    5  A    between atoms: C_10  and  N_11
REMARK    6  A    between atoms: N_11  and  C_12
REMARK    7  A    between atoms: C_17  and  O_18
REMARK    8  A    between atoms: C_23  and  O_26
REMARK    9  A    between atoms: O_26  and  C_27
REMARK                            x       y       z     vdW  Elec       q    Type
REMARK                         _______ _______ _______ _____ _____    ______ ____
ROOT
ATOM      1  C   UNL     1       0.029  -4.232  -0.031  0.00  0.00    -0.020 C 
ENDROOT
BRANCH   1   2
ATOM      2  N   UNL     1      -0.812  -4.605   1.114  0.00  0.00    +0.389 N 
ATOM      3  C   UNL     1      -0.741  -6.057   1.320  0.00  0.00    -0.062 C 
ATOM      4  C   UNL     1      -1.603  -6.444   2.524  0.00  0.00    +0.065 C 
ATOM      5  N   UNL     1      -2.993  -6.034   2.280  0.00  0.00    -0.295 NA
ATOM      6  C   UNL     1      -3.077  -4.586   2.047  0.00  0.00    +0.169 C 
ATOM      7  C   UNL     1      -2.203  -4.214   0.847  0.00  0.00    -0.030 C 
ATOM      8  H   UNL     1      -3.392  -6.548   1.509  0.00  0.00    +0.124 HD
ATOM      9  H   UNL     1      -0.483  -4.131   1.942  0.00  0.00    -0.081 HD
BRANCH   6  10
ATOM     10  O   UNL     1      -4.433  -4.223   1.780  0.00  0.00    -0.367 OA
ATOM     11  C   UNL     1      -5.270  -4.211   2.938  0.00  0.00    +0.196 C 
ENDBRANCH   6  10
ENDBRANCH   1   2
BRANCH   1  16
ATOM     12  C   UNL     1      -0.381   1.459  -0.946  0.00  0.00    +0.044 C 
ATOM     13  C   UNL     1      -0.274  -0.025  -0.708  0.00  0.00    -0.050 A 
ATOM     14  C   UNL     1      -0.237  -0.896  -1.780  0.00  0.00    +0.003 A 
ATOM     15  C   UNL     1      -0.139  -2.258  -1.561  0.00  0.00    +0.002 A 
ATOM     16  C   UNL     1      -0.077  -2.748  -0.270  0.00  0.00    -0.059 A 
ATOM     17  C   UNL     1      -0.112  -1.876   0.803  0.00  0.00    +0.002 A 
ATOM     18  C   UNL     1      -0.206  -0.514   0.584  0.00  0.00    +0.003 A 
ENDBRANCH   1  16
BRANCH   1  19
ATOM     19  C   UNL     1       1.485  -4.598   0.265  0.00  0.00    +0.091 C 
BRANCH  19  20
ATOM     20  N   UNL     1       2.312  -4.301  -0.907  0.00  0.00    -0.342 N 
ATOM     21  H   UNL     1       1.916  -3.876  -1.684  0.00  0.00    +0.146 HD
BRANCH  20  22
ATOM     22  C   UNL     1       3.672  -4.631  -0.906  0.00  0.00    +0.069 A 
ATOM     23  C   UNL     1       4.238  -5.244   0.202  0.00  0.00    +0.026 A 
ATOM     24  C   UNL     1       5.581  -5.569   0.200  0.00  0.00    +0.002 A 
ATOM     25  C   UNL     1       6.364  -5.285  -0.904  0.00  0.00    +0.004 A 
ATOM     26  C   UNL     1       5.806  -4.674  -2.012  0.00  0.00    +0.047 A 
ATOM     27  C   UNL     1       4.460  -4.350  -2.020  0.00  0.00    +0.138 A 
BRANCH  27  28
ATOM     28  O   UNL     1       3.909  -3.753  -3.111  0.00  0.00    -0.505 OA
ATOM     29  H   UNL     1       3.942  -2.787  -3.090  0.00  0.00    +0.292 HD
ENDBRANCH  27  28
ENDBRANCH  20  22
ENDBRANCH  19  20
ENDBRANCH   1  19
TORSDOF 7
