REMARK  Name = ZINC58098661
REMARK  8 active torsions:
REMARK  status: ('A' for Active; 'I' for Inactive)
REMARK    1  A    between atoms: C_1  and  C_2
REMARK    2  A    between atoms: C_3  and  C_19
REMARK    3  A    between atoms: C_7  and  C_8
REMARK    4  A    between atoms: C_8  and  C_10
REMARK    5  A    between atoms: C_8  and  N_14
REMARK    6  A    between atoms: C_10  and  C_11
REMARK    7  A    between atoms: C_10  and  C_12
REMARK    8  A    between atoms: C_10  and  C_13
REMARK                            x       y       z     vdW  Elec       q    Type
REMARK                         _______ _______ _______ _____ _____    ______ ____
ROOT
ATOM      1  C   UNL     1      -1.379   0.326  -0.000  0.00  0.00    +0.044 C 
ATOM      2  C   UNL     1      -0.710  -1.013   0.171  0.00  0.00    -0.044 A 
ATOM      3  C   UNL     1      -0.848  -1.979  -0.805  0.00  0.00    -0.026 A 
ATOM      4  C   UNL     1      -0.232  -3.220  -0.654  0.00  0.00    +0.040 A 
ATOM      5  C   UNL     1       0.519  -3.462   0.490  0.00  0.00    -0.017 A 
ATOM      6  C   UNL     1       0.656  -2.497   1.461  0.00  0.00    +0.008 A 
ATOM      7  C   UNL     1       0.045  -1.265   1.302  0.00  0.00    -0.058 A 
ATOM      8  C   UNL     1       1.049  -4.872   0.359  0.00  0.00    +0.133 C 
ATOM      9  C   UNL     1       0.501  -5.349  -0.969  0.00  0.00    +0.222 C 
ATOM     10  O   UNL     1       0.681  -6.438  -1.473  0.00  0.00    -0.275 OA
ATOM     11  N   UNL     1      -0.222  -4.341  -1.484  0.00  0.00    -0.285 N 
ATOM     12  C   UNL     1      -1.669  -1.692  -2.036  0.00  0.00    +0.046 C 
ATOM     13  H   UNL     1      -0.685  -4.387  -2.335  0.00  0.00    +0.155 HD
ENDROOT
BRANCH   7  14
ATOM     14  C   UNL     1       0.198  -0.203   2.360  0.00  0.00    -0.038 C 
BRANCH  14  15
ATOM     15  C   UNL     1      -0.848  -0.422   3.456  0.00  0.00    -0.047 C 
ATOM     16  C   UNL     1      -0.645  -1.801   4.087  0.00  0.00    +0.009 C 
ATOM     17  C   UNL     1      -0.695   0.658   4.529  0.00  0.00    +0.009 C 
ATOM     18  C   UNL     1      -2.249  -0.341   2.847  0.00  0.00    +0.009 C 
ENDBRANCH  14  15
BRANCH  14  19
ATOM     19  N   UNL     1       1.543  -0.283   2.944  0.00  0.00    +0.383 N 
ATOM     20  H   UNL     1       1.645   0.427   3.653  0.00  0.00    -0.089 HD
ATOM     21  H   UNL     1       1.676  -1.194   3.359  0.00  0.00    -0.089 HD
ATOM     22  H   UNL     1       2.232  -0.139   2.221  0.00  0.00    -0.089 HD
ENDBRANCH  14  19
ENDBRANCH   7  14
TORSDOF 3
