REMARK  Name = ZINC62215060
REMARK  1 active torsions:
REMARK  status: ('A' for Active; 'I' for Inactive)
REMARK    1  A    between atoms: C_6  and  C_8
REMARK                            x       y       z     vdW  Elec       q    Type
REMARK                         _______ _______ _______ _____ _____    ______ ____
ROOT
ATOM      1  C   UNL     1      -0.093  -0.519  -1.411  0.00  0.00    +0.239 C 
ATOM      2  O   UNL     1       0.908  -0.883  -1.992  0.00  0.00    -0.273 OA
ATOM      3  N   UNL     1      -1.289  -0.575  -2.029  0.00  0.00    -0.263 N 
ATOM      4  C   UNL     1      -1.377  -1.050  -3.333  0.00  0.00    +0.165 A 
ATOM      5  N   UNL     1      -0.413  -1.488  -4.107  0.00  0.00    -0.231 NA
ATOM      6  C   UNL     1      -0.646  -1.919  -5.352  0.00  0.00    +0.035 A 
ATOM      7  C   UNL     1      -1.944  -1.864  -5.740  0.00  0.00    -0.005 A 
ATOM      8  S   UNL     1      -2.746  -1.211  -4.299  0.00  0.00    -0.059 S 
ATOM      9  C   UNL     1      -2.095  -2.361  -7.143  0.00  0.00    -0.037 C 
ATOM     10  N   UNL     1      -0.728  -2.331  -7.715  0.00  0.00    +0.386 N 
ATOM     11  C   UNL     1       0.141  -2.486  -6.529  0.00  0.00    -0.025 C 
ATOM     12  H   UNL     1      -2.089  -0.284  -1.564  0.00  0.00    +0.157 HD
ATOM     13  H   UNL     1      -0.594  -3.099  -8.357  0.00  0.00    -0.085 HD
ATOM     14  H   UNL     1      -0.552  -1.449  -8.173  0.00  0.00    -0.085 HD
ENDROOT
BRANCH   1  20
ATOM     15  C   UNL     1      -0.019   1.541   0.011  0.00  0.00    +0.041 C 
ATOM     16  C   UNL     1       1.490   1.876  -0.002  0.00  0.00    +0.098 C 
ATOM     17  C   UNL     1       2.147   0.654   0.600  0.00  0.00    +0.214 C 
ATOM     18  O   UNL     1       3.282   0.614   1.026  0.00  0.00    -0.276 OA
ATOM     19  N   UNL     1       1.290  -0.381   0.595  0.00  0.00    -0.304 N 
ATOM     20  C   UNL     1       0.002  -0.004   0.002  0.00  0.00    +0.160 C 
ATOM     21  H   UNL     1       1.497  -1.265   0.939  0.00  0.00    +0.149 HD
ENDBRANCH   1  20
TORSDOF 1
