REMARK  Name = ZINC39656981
REMARK  8 active torsions:
REMARK  status: ('A' for Active; 'I' for Inactive)
REMARK    1  A    between atoms: C_1  and  C_2
REMARK    2  A    between atoms: C_2  and  O_3
REMARK    3  A    between atoms: O_3  and  C_4
REMARK    4  A    between atoms: C_9  and  C_10
REMARK    5  A    between atoms: C_14  and  C_23
REMARK    6  A    between atoms: N_25  and  C_26
REMARK    7  A    between atoms: C_26  and  C_28
REMARK    8  A    between atoms: C_26  and  C_29
REMARK                            x       y       z     vdW  Elec       q    Type
REMARK                         _______ _______ _______ _____ _____    ______ ____
ROOT
ATOM      1  C   UNL     1       1.977  -1.178  -3.672  0.00  0.00    +0.250 C 
ATOM      2  O   UNL     1       1.837   0.030  -3.680  0.00  0.00    -0.270 OA
ATOM      3  N   UNL     1       2.690  -1.780  -4.644  0.00  0.00    -0.296 N 
ATOM      4  C   UNL     1       2.880  -3.234  -4.863  0.00  0.00    +0.121 C 
ATOM      5  C   UNL     1       2.821  -3.408  -6.397  0.00  0.00    +0.100 C 
ATOM      6  C   UNL     1       3.205  -2.031  -6.964  0.00  0.00    -0.004 C 
ATOM      7  C   UNL     1       3.456  -1.139  -5.739  0.00  0.00    +0.115 C 
ATOM      8  C   UNL     1       2.060  -1.463  -7.796  0.00  0.00    -0.010 C 
ATOM      9  C   UNL     1       2.487  -0.120  -8.396  0.00  0.00    -0.082 C 
ATOM     10  N   UNL     1       3.678  -0.312  -9.232  0.00  0.00    +0.379 N 
ATOM     11  C   UNL     1       4.801  -0.770  -8.406  0.00  0.00    -0.082 C 
ATOM     12  C   UNL     1       4.472  -2.141  -7.807  0.00  0.00    -0.010 C 
ATOM     13  H   UNL     1       3.481  -1.002  -9.942  0.00  0.00    -0.086 HD
ATOM     14  H   UNL     1       3.921   0.561  -9.674  0.00  0.00    -0.086 HD
ENDROOT
BRANCH   1  20
ATOM     15  C   UNL     1       0.139  -1.599  -2.039  0.00  0.00    +0.133 A 
ATOM     16  C   UNL     1      -0.429  -2.367  -1.034  0.00  0.00    +0.046 A 
ATOM     17  C   UNL     1       0.214  -3.502  -0.583  0.00  0.00    +0.004 A 
ATOM     18  C   UNL     1       1.429  -3.883  -1.129  0.00  0.00    +0.001 A 
ATOM     19  C   UNL     1       2.008  -3.132  -2.129  0.00  0.00    +0.017 A 
ATOM     20  C   UNL     1       1.365  -1.984  -2.598  0.00  0.00    +0.078 A 
BRANCH  15  21
ATOM     21  O   UNL     1      -0.491  -0.482  -2.483  0.00  0.00    -0.491 OA
BRANCH  21  23
ATOM     22  C   UNL     1      -2.293   1.128  -2.492  0.00  0.00    +0.048 C 
ATOM     23  C   UNL     1      -1.737  -0.152  -1.865  0.00  0.00    +0.226 C 
ENDBRANCH  21  23
ENDBRANCH  15  21
ENDBRANCH   1  20
BRANCH   5  24
ATOM     24  C   UNL     1       1.427  -3.785  -6.830  0.00  0.00    +0.219 C 
ATOM     25  O   UNL     1       0.470  -3.404  -6.190  0.00  0.00    -0.275 OA
ATOM     26  N   UNL     1       1.245  -4.546  -7.927  0.00  0.00    -0.308 N 
ATOM     27  H   UNL     1       2.011  -4.851  -8.438  0.00  0.00    +0.149 HD
BRANCH  26  28
ATOM     28  C   UNL     1      -0.110  -4.913  -8.347  0.00  0.00    +0.100 C 
ATOM     29  C   UNL     1      -0.559  -6.162  -7.586  0.00  0.00    +0.033 C 
BRANCH  28  30
ATOM     30  C   UNL     1      -0.117  -5.198  -9.827  0.00  0.00    -0.027 A 
ATOM     31  C   UNL     1       0.932  -5.891 -10.403  0.00  0.00    +0.006 A 
ATOM     32  C   UNL     1       0.925  -6.152 -11.760  0.00  0.00    +0.015 A 
ATOM     33  C   UNL     1      -0.131  -5.720 -12.542  0.00  0.00    +0.018 A 
ATOM     34  C   UNL     1      -1.179  -5.027 -11.966  0.00  0.00    +0.015 A 
ATOM     35  C   UNL     1      -1.175  -4.770 -10.607  0.00  0.00    +0.006 A 
ATOM     36 BR   UNL     1      -0.140  -6.077 -14.399  0.00  0.00    -0.050 Br
ENDBRANCH  28  30
ENDBRANCH  26  28
ENDBRANCH   5  24
TORSDOF 6
