REMARK  Name = ZINC22048088
REMARK  9 active torsions:
REMARK  status: ('A' for Active; 'I' for Inactive)
REMARK    1  A    between atoms: C_3  and  N_25
REMARK    2  A    between atoms: C_6  and  C_7
REMARK    3  A    between atoms: C_7  and  S_8
REMARK    4  A    between atoms: S_8  and  C_9
REMARK    5  A    between atoms: C_11  and  O_24
REMARK    6  A    between atoms: C_13  and  O_23
REMARK    7  A    between atoms: C_15  and  O_22
REMARK    8  A    between atoms: C_17  and  C_20
REMARK    9  A    between atoms: C_20  and  O_21
REMARK                            x       y       z     vdW  Elec       q    Type
REMARK                         _______ _______ _______ _____ _____    ______ ____
ROOT
ATOM      1  C   UNL     1      -2.798   1.407   2.467  0.00  0.00    +0.207 C 
ATOM      2  C   UNL     1      -2.074   0.999   3.753  0.00  0.00    +0.184 C 
ATOM      3  C   UNL     1      -0.675   1.622   3.762  0.00  0.00    +0.177 C 
ATOM      4  C   UNL     1       0.078   1.177   2.504  0.00  0.00    +0.176 C 
ATOM      5  C   UNL     1      -0.729   1.579   1.267  0.00  0.00    +0.176 C 
ATOM      6  O   UNL     1      -2.030   0.992   1.337  0.00  0.00    -0.355 OA
ENDROOT
BRANCH   4   7
ATOM      7  O   UNL     1       1.359   1.810   2.465  0.00  0.00    -0.386 OA
ATOM      8  H   UNL     1       2.046   1.611   1.630  0.00  0.00    +0.210 HD
ENDBRANCH   4   7
BRANCH   3   9
ATOM      9  O   UNL     1      -0.786   3.046   3.774  0.00  0.00    -0.386 OA
ATOM     10  H   UNL     1       0.121   3.669   3.782  0.00  0.00    +0.210 HD
ENDBRANCH   3   9
BRANCH   2  11
ATOM     11  O   UNL     1      -1.964  -0.425   3.807  0.00  0.00    -0.386 OA
ATOM     12  H   UNL     1      -1.470  -0.907   4.663  0.00  0.00    +0.210 HD
ENDBRANCH   2  11
BRANCH   1  13
ATOM     13  S   UNL     1      -4.429   0.616   2.414  0.00  0.00    -0.122 S 
BRANCH  13  14
ATOM     14  C   UNL     1      -5.206   1.312   0.929  0.00  0.00    +0.106 C 
BRANCH  14  20
ATOM     15  C   UNL     1      -6.764  -0.427   0.029  0.00  0.00    +0.006 A 
ATOM     16  C   UNL     1      -8.027  -0.966  -0.119  0.00  0.00    +0.023 A 
ATOM     17  C   UNL     1      -9.121  -0.338   0.464  0.00  0.00    +0.025 A 
ATOM     18  C   UNL     1      -8.940   0.827   1.198  0.00  0.00    +0.023 A 
ATOM     19  C   UNL     1      -7.673   1.357   1.346  0.00  0.00    +0.006 A 
ATOM     20  C   UNL     1      -6.587   0.730   0.765  0.00  0.00    -0.037 A 
BRANCH  17  21
ATOM     21  N   UNL     1     -10.401  -0.877   0.311  0.00  0.00    -0.358 N 
ATOM     22  H   UNL     1     -11.266  -0.379   0.773  0.00  0.00    +0.142 HD
ATOM     23  H   UNL     1     -10.543  -1.800  -0.271  0.00  0.00    +0.142 HD
ENDBRANCH  17  21
ENDBRANCH  14  20
ENDBRANCH  13  14
ENDBRANCH   1  13
BRANCH   5  24
ATOM     24  C   UNL     1      -0.013   1.086   0.008  0.00  0.00    +0.190 C 
BRANCH  24  25
ATOM     25  O   UNL     1      -0.704   1.559  -1.150  0.00  0.00    -0.392 OA
ATOM     26  H   UNL     1      -0.334   1.304  -2.154  0.00  0.00    +0.210 HD
ENDBRANCH  24  25
ENDBRANCH   5  24
TORSDOF 9
