REMARK  Name = ZINC10128086
REMARK  4 active torsions:
REMARK  status: ('A' for Active; 'I' for Inactive)
REMARK    1  A    between atoms: C_1  and  C_2
REMARK    2  A    between atoms: C_5  and  C_7
REMARK    3  A    between atoms: C_25  and  C_27
REMARK    4  A    between atoms: C_25  and  C_28
REMARK                            x       y       z     vdW  Elec       q    Type
REMARK                         _______ _______ _______ _____ _____    ______ ____
ROOT
ATOM      1  C   UNL     1       1.402   3.539   0.007  0.00  0.00    +0.099 C 
ATOM      2  C   UNL     1       2.174   3.907   1.240  0.00  0.00    +0.067 A 
ATOM      3  C   UNL     1       3.509   4.170   1.178  0.00  0.00    +0.113 A 
ATOM      4  N   UNL     1       4.190   4.498   2.325  0.00  0.00    -0.295 N 
ATOM      5  H   UNL     1       5.171   4.691   2.283  0.00  0.00    +0.172 HD
ATOM      6  C   UNL     1       3.545   4.562   3.504  0.00  0.00    +0.328 A 
ATOM      7  O   UNL     1       4.162   4.852   4.510  0.00  0.00    -0.247 OA
ATOM      8  N   UNL     1       2.226   4.309   3.586  0.00  0.00    -0.275 N 
ATOM      9  H   UNL     1       1.764   4.363   4.471  0.00  0.00    +0.173 HD
ATOM     10  C   UNL     1       1.521   3.983   2.484  0.00  0.00    +0.260 A 
ATOM     11  O   UNL     1       0.326   3.757   2.565  0.00  0.00    -0.267 OA
ATOM     12  N   UNL     1       4.167   4.111  -0.025  0.00  0.00    -0.303 N 
ATOM     13  C   UNL     1       3.476   4.186  -1.204  0.00  0.00    +0.017 C 
ATOM     14  C   UNL     1       2.154   3.921  -1.242  0.00  0.00    +0.025 C 
ATOM     15  C   UNL     1       1.438   3.992  -2.450  0.00  0.00    +0.162 C 
ATOM     16  O   UNL     1       0.244   3.764  -2.449  0.00  0.00    -0.292 OA
ATOM     17  C   UNL     1       2.121   4.345  -3.743  0.00  0.00    +0.086 C 
ATOM     18  C   UNL     1       3.587   3.905  -3.667  0.00  0.00    -0.023 C 
ATOM     19  C   UNL     1       4.228   4.573  -2.453  0.00  0.00    +0.058 C 
ATOM     20  C   UNL     1       3.660   2.385  -3.519  0.00  0.00    +0.011 C 
ATOM     21  C   UNL     1       4.318   4.334  -4.941  0.00  0.00    +0.011 C 
ATOM     22  H   UNL     1       5.133   4.016  -0.040  0.00  0.00    +0.153 HD
ENDROOT
BRANCH   1  27
ATOM     23  C   UNL     1       1.479  -2.126  -0.023  0.00  0.00    +0.051 C 
ATOM     24  C   UNL     1       1.196  -0.645  -0.013  0.00  0.00    -0.013 A 
ATOM     25  C   UNL     1       0.002  -0.004   0.002  0.00  0.00    +0.011 A 
ATOM     26  C   UNL     1      -0.017   1.378   0.010  0.00  0.00    +0.012 A 
ATOM     27  C   UNL     1       1.160   2.051   0.002  0.00  0.00    +0.002 A 
ATOM     28  S   UNL     1       2.348   0.719  -0.017  0.00  0.00    -0.097 S 
ENDBRANCH   1  27
TORSDOF 1
