REMARK  Name = ZINC65298109
REMARK  5 active torsions:
REMARK  status: ('A' for Active; 'I' for Inactive)
REMARK    1  A    between atoms: C_1  and  O_2
REMARK    2  A    between atoms: O_2  and  C_3
REMARK    3  A    between atoms: C_6  and  C_9
REMARK    4  A    between atoms: C_18  and  C_21
REMARK    5  A    between atoms: C_26  and  O_27
REMARK                            x       y       z     vdW  Elec       q    Type
REMARK                         _______ _______ _______ _____ _____    ______ ____
ROOT
ATOM      1  C   UNL     1       2.575  -2.537   4.287  0.00  0.00    +0.047 C 
ATOM      2  N   UNL     1       3.092  -1.808   5.204  0.00  0.00    -0.266 NA
ATOM      3  C   UNL     1       3.781  -2.335   6.377  0.00  0.00    +0.109 C 
ATOM      4  C   UNL     1       2.853  -2.253   7.594  0.00  0.00    +0.027 C 
ATOM      5  C   UNL     1       2.518  -0.787   7.874  0.00  0.00    -0.079 C 
ATOM      6  N   UNL     1       3.752  -0.043   8.151  0.00  0.00    +0.379 N 
ATOM      7  C   UNL     1       4.620  -0.059   6.968  0.00  0.00    -0.079 C 
ATOM      8  C   UNL     1       5.035  -1.498   6.653  0.00  0.00    +0.027 C 
ATOM      9  N   UNL     1       4.171  -3.734   6.159  0.00  0.00    -0.286 NA
ATOM     10  C   UNL     1       3.011  -4.520   5.707  0.00  0.00    +0.095 C 
ATOM     11  C   UNL     1       2.620  -4.039   4.308  0.00  0.00    +0.079 C 
ATOM     12  H   UNL     1       3.523   0.911   8.386  0.00  0.00    -0.086 HD
ATOM     13  H   UNL     1       4.932  -3.799   5.499  0.00  0.00    +0.125 HD
ATOM     14  H   UNL     1       4.235  -0.472   8.927  0.00  0.00    -0.086 HD
ENDROOT
BRANCH  10  15
ATOM     15  C   UNL     1       3.374  -5.982   5.662  0.00  0.00    +0.012 A 
ATOM     16  C   UNL     1       4.701  -6.364   5.614  0.00  0.00    +0.024 A 
ATOM     17  C   UNL     1       5.035  -7.705   5.572  0.00  0.00    +0.018 A 
ATOM     18  C   UNL     1       4.041  -8.668   5.579  0.00  0.00    +0.019 A 
ATOM     19  C   UNL     1       2.713  -8.291   5.628  0.00  0.00    +0.047 A 
ATOM     20  C   UNL     1       2.376  -6.946   5.674  0.00  0.00    +0.122 A 
ATOM     21 BR   UNL     1       6.852  -8.225   5.506  0.00  0.00    -0.050 Br
BRANCH  20  22
ATOM     22  O   UNL     1       1.070  -6.572   5.727  0.00  0.00    -0.506 OA
ATOM     23  H   UNL     1       0.663  -6.445   4.859  0.00  0.00    +0.292 HD
ENDBRANCH  20  22
ENDBRANCH  10  15
BRANCH   1  27
ATOM     24  C   UNL     1       0.625  -0.618   1.040  0.00  0.00    +0.120 A 
ATOM     25  C   UNL     1       1.202   0.143   2.050  0.00  0.00    +0.046 A 
ATOM     26  C   UNL     1       1.835  -0.475   3.105  0.00  0.00    +0.013 A 
ATOM     27  C   UNL     1       1.897  -1.870   3.159  0.00  0.00    -0.004 A 
ATOM     28  C   UNL     1       1.316  -2.632   2.142  0.00  0.00    +0.013 A 
ATOM     29  C   UNL     1       0.680  -2.005   1.093  0.00  0.00    +0.046 A 
BRANCH  24  31
ATOM     30  C   UNL     1      -0.017   1.425   0.010  0.00  0.00    +0.277 C 
ATOM     31  O   UNL     1       0.002  -0.004   0.002  0.00  0.00    -0.495 OA
ENDBRANCH  24  31
ENDBRANCH   1  27
TORSDOF 4
