REMARK  Name = ZINC10166067
REMARK  9 active torsions:
REMARK  status: ('A' for Active; 'I' for Inactive)
REMARK    1  A    between atoms: C_1  and  C_2
REMARK    2  A    between atoms: C_2  and  O_3
REMARK    3  A    between atoms: O_3  and  C_4
REMARK    4  A    between atoms: C_4  and  C_6
REMARK    5  A    between atoms: C_7  and  N_36
REMARK    6  A    between atoms: C_11  and  C_35
REMARK    7  A    between atoms: N_12  and  C_25
REMARK    8  A    between atoms: C_16  and  C_18
REMARK    9  A    between atoms: C_25  and  C_26
REMARK                            x       y       z     vdW  Elec       q    Type
REMARK                         _______ _______ _______ _____ _____    ______ ____
ROOT
ATOM      1  C   UNL     1       3.868   1.190  -0.465  0.00  0.00    +0.105 C 
ATOM      2  C   UNL     1       3.582   2.469  -0.821  0.00  0.00    +0.195 C 
ATOM      3  O   UNL     1       2.380   3.019  -0.585  0.00  0.00    -0.441 OA
ATOM      4  C   UNL     1       1.312   2.228  -0.343  0.00  0.00    +0.141 A 
ATOM      5  C   UNL     1       0.008   2.744  -0.488  0.00  0.00    +0.068 A 
ATOM      6  C   UNL     1      -1.058   1.951  -0.246  0.00  0.00    +0.023 A 
ATOM      7  N   UNL     1      -0.892   0.656   0.132  0.00  0.00    -0.308 N 
ATOM      8  C   UNL     1       0.337   0.130   0.287  0.00  0.00    +0.259 A 
ATOM      9  O   UNL     1       0.463  -1.035   0.632  0.00  0.00    -0.267 OA
ATOM     10  C   UNL     1       1.472   0.915   0.047  0.00  0.00    +0.071 A 
ATOM     11  C   UNL     1       2.845   0.324   0.216  0.00  0.00    +0.101 C 
ATOM     12  C   UNL     1      -2.449   2.507  -0.403  0.00  0.00    +0.064 C 
ENDROOT
BRANCH  11  13
ATOM     13  C   UNL     1       3.169   0.227   1.684  0.00  0.00    -0.017 A 
ATOM     14  C   UNL     1       3.197   1.369   2.463  0.00  0.00    +0.006 A 
ATOM     15  C   UNL     1       3.496   1.279   3.810  0.00  0.00    +0.000 A 
ATOM     16  C   UNL     1       3.766   0.048   4.379  0.00  0.00    +0.001 A 
ATOM     17  C   UNL     1       3.737  -1.094   3.601  0.00  0.00    +0.020 A 
ATOM     18  C   UNL     1       3.434  -1.006   2.254  0.00  0.00    +0.045 A 
ATOM     19 CL   UNL     1       3.391  -2.441   1.278  0.00  0.00    -0.083 Cl
ENDBRANCH  11  13
BRANCH   2  20
ATOM     20  N   UNL     1       4.547   3.219  -1.438  0.00  0.00    -0.329 N 
ATOM     21  H   UNL     1       5.094   2.826  -2.136  0.00  0.00    +0.145 HD
ATOM     22  H   UNL     1       4.684   4.142  -1.176  0.00  0.00    +0.145 HD
ENDBRANCH   2  20
BRANCH   1  23
ATOM     23  C   UNL     1       5.141   0.668  -0.736  0.00  0.00    +0.341 C 
ATOM     24  O   UNL     1       6.013   1.391  -1.185  0.00  0.00    -0.245 OA
BRANCH  23  25
ATOM     25  O   UNL     1       5.401  -0.636  -0.498  0.00  0.00    -0.462 OA
BRANCH  25  27
ATOM     26  C   UNL     1       6.823  -2.590  -0.466  0.00  0.00    +0.048 C 
ATOM     27  C   UNL     1       6.719  -1.100  -0.798  0.00  0.00    +0.229 C 
ENDBRANCH  25  27
ENDBRANCH  23  25
ENDBRANCH   1  23
BRANCH   7  28
ATOM     28  C   UNL     1      -2.071  -0.179   0.379  0.00  0.00    +0.160 C 
BRANCH  28  29
ATOM     29  C   UNL     1      -2.412  -0.948  -0.872  0.00  0.00    -0.024 A 
ATOM     30  C   UNL     1      -1.781  -2.149  -1.137  0.00  0.00    +0.009 A 
ATOM     31  C   UNL     1      -2.091  -2.859  -2.282  0.00  0.00    +0.050 A 
ATOM     32  C   UNL     1      -3.037  -2.367  -3.167  0.00  0.00    +0.166 A 
ATOM     33  C   UNL     1      -3.673  -1.157  -2.900  0.00  0.00    +0.167 A 
ATOM     34  C   UNL     1      -3.361  -0.454  -1.748  0.00  0.00    +0.055 A 
ATOM     35  O   UNL     1      -4.551  -0.893  -3.911  0.00  0.00    -0.453 OA
ATOM     36  C   UNL     1      -4.151  -1.746  -5.000  0.00  0.00    +0.466 C 
ATOM     37  O   UNL     1      -3.516  -2.861  -4.346  0.00  0.00    -0.453 OA
ENDBRANCH  28  29
ENDBRANCH   7  28
TORSDOF 7
