REMARK  Name = ZINC14988304
REMARK  4 active torsions:
REMARK  status: ('A' for Active; 'I' for Inactive)
REMARK    1  A    between atoms: C_1  and  N_2
REMARK    2  A    between atoms: C_4  and  C_7
REMARK    3  A    between atoms: C_10  and  O_14
REMARK    4  A    between atoms: C_11  and  N_13
REMARK                            x       y       z     vdW  Elec       q    Type
REMARK                         _______ _______ _______ _____ _____    ______ ____
ROOT
ATOM      1  C   UNL     1       0.038  -3.202  -1.538  0.00  0.00    +0.025 A 
ATOM      2  C   UNL     1       0.035  -3.054  -2.924  0.00  0.00    +0.015 A 
ATOM      3  C   UNL     1       0.046  -4.169  -3.738  0.00  0.00    +0.048 A 
ATOM      4  C   UNL     1       0.059  -5.438  -3.180  0.00  0.00    +0.137 A 
ATOM      5  C   UNL     1       0.062  -5.592  -1.795  0.00  0.00    +0.067 A 
ATOM      6  C   UNL     1       0.058  -4.476  -0.975  0.00  0.00    +0.038 A 
ENDROOT
BRANCH   1  10
ATOM      7  C   UNL     1      -0.018   1.461   0.010  0.00  0.00    +0.199 C 
ATOM      8  N   UNL     1       0.002  -0.004   0.002  0.00  0.00    -0.166 N 
ATOM      9  N   UNL     1       0.007  -0.744  -1.053  0.00  0.00    -0.131 NA
ATOM     10  C   UNL     1       0.026  -2.003  -0.663  0.00  0.00    +0.205 A 
ATOM     11  N   UNL     1       0.032  -1.990   0.677  0.00  0.00    -0.108 NA
ATOM     12  N   UNL     1       0.023  -0.754   1.048  0.00  0.00    -0.046 NA
ENDBRANCH   1  10
BRANCH   5  13
ATOM     13  N   UNL     1       0.075  -6.874  -1.233  0.00  0.00    -0.355 N 
ATOM     14  H   UNL     1       0.082  -7.656  -1.807  0.00  0.00    +0.142 HD
ATOM     15  H   UNL     1       0.077  -6.981  -0.269  0.00  0.00    +0.142 HD
ENDBRANCH   5  13
BRANCH   4  16
ATOM     16  O   UNL     1       0.070  -6.534  -3.986  0.00  0.00    -0.505 OA
ATOM     17  H   UNL     1       0.956  -6.841  -4.220  0.00  0.00    +0.292 HD
ENDBRANCH   4  16
TORSDOF 3
