REMARK  Name = ZINC59305595
REMARK  9 active torsions:
REMARK  status: ('A' for Active; 'I' for Inactive)
REMARK    1  A    between atoms: C_1  and  C_2
REMARK    2  A    between atoms: C_2  and  O_3
REMARK    3  A    between atoms: O_3  and  C_4
REMARK    4  A    between atoms: C_7  and  C_10
REMARK    5  A    between atoms: C_17  and  C_37
REMARK    6  A    between atoms: C_18  and  C_28
REMARK    7  A    between atoms: C_19  and  C_21
REMARK    8  A    between atoms: C_24  and  C_27
REMARK    9  A    between atoms: N_30  and  C_31
REMARK                            x       y       z     vdW  Elec       q    Type
REMARK                         _______ _______ _______ _____ _____    ______ ____
ROOT
ATOM      1  C   UNL     1       1.493  -5.529   1.381  0.00  0.00    +0.028 C 
ATOM      2  C   UNL     1       2.067  -6.027   2.506  0.00  0.00    +0.081 A 
ATOM      3  C   UNL     1       2.907  -5.350   3.504  0.00  0.00    +0.268 A 
ATOM      4  O   UNL     1       3.183  -4.170   3.394  0.00  0.00    -0.266 OA
ATOM      5  N   UNL     1       3.358  -6.071   4.539  0.00  0.00    -0.275 N 
ATOM      6  C   UNL     1       3.015  -7.401   4.616  0.00  0.00    +0.178 A 
ATOM      7  N   UNL     1       3.398  -8.202   5.578  0.00  0.00    -0.228 NA
ATOM      8  C   UNL     1       4.162  -7.843   6.603  0.00  0.00    +0.051 C 
ATOM      9  C   UNL     1       4.613  -6.559   6.718  0.00  0.00    +0.063 C 
ATOM     10  C   UNL     1       4.217  -5.568   5.648  0.00  0.00    +0.160 C 
ATOM     11  C   UNL     1       4.534  -8.861   7.650  0.00  0.00    +0.066 C 
ATOM     12  S   UNL     1       2.001  -7.680   3.177  0.00  0.00    -0.046 S 
ENDROOT
BRANCH  10  13
ATOM     13  C   UNL     1       5.480  -5.014   5.040  0.00  0.00    -0.020 A 
ATOM     14  C   UNL     1       6.155  -5.733   4.072  0.00  0.00    +0.006 A 
ATOM     15  C   UNL     1       7.313  -5.225   3.514  0.00  0.00    +0.004 A 
ATOM     16  C   UNL     1       7.797  -3.997   3.925  0.00  0.00    -0.050 A 
ATOM     17  C   UNL     1       7.122  -3.277   4.893  0.00  0.00    +0.004 A 
ATOM     18  C   UNL     1       5.961  -3.783   5.447  0.00  0.00    +0.006 A 
ATOM     19  C   UNL     1       9.060  -3.443   3.319  0.00  0.00    +0.044 C 
ENDBRANCH  10  13
BRANCH   1  23
ATOM     20  C   UNL     1       2.451  -1.613   0.067  0.00  0.00    +0.121 A 
ATOM     21  C   UNL     1       1.150  -2.086  -0.057  0.00  0.00    +0.046 A 
ATOM     22  C   UNL     1       0.833  -3.356   0.368  0.00  0.00    +0.011 A 
ATOM     23  C   UNL     1       1.825  -4.173   0.926  0.00  0.00    -0.024 A 
ATOM     24  C   UNL     1       3.134  -3.691   1.048  0.00  0.00    +0.011 A 
ATOM     25  C   UNL     1       3.441  -2.421   0.615  0.00  0.00    +0.046 A 
BRANCH  20  26
ATOM     26  O   UNL     1       2.758  -0.359  -0.353  0.00  0.00    -0.492 OA
BRANCH  26  28
ATOM     27  C   UNL     1       2.228   1.791  -1.321  0.00  0.00    +0.048 C 
ATOM     28  C   UNL     1       1.694   0.418  -0.906  0.00  0.00    +0.225 C 
ENDBRANCH  26  28
ENDBRANCH  20  26
ENDBRANCH   1  23
BRANCH   9  29
ATOM     29  C   UNL     1       5.423  -6.170   7.800  0.00  0.00    +0.248 C 
ATOM     30  O   UNL     1       4.952  -5.500   8.703  0.00  0.00    -0.270 OA
ATOM     31  N   UNL     1       6.719  -6.539   7.839  0.00  0.00    -0.282 N 
ATOM     32  H   UNL     1       7.116  -6.995   7.081  0.00  0.00    +0.155 HD
BRANCH  31  33
ATOM     33  C   UNL     1       7.490  -6.264   8.973  0.00  0.00    +0.034 A 
ATOM     34  C   UNL     1       6.908  -6.291  10.234  0.00  0.00    +0.023 A 
ATOM     35  C   UNL     1       7.672  -6.020  11.351  0.00  0.00    +0.002 A 
ATOM     36  C   UNL     1       9.016  -5.722  11.216  0.00  0.00    +0.000 A 
ATOM     37  C   UNL     1       9.599  -5.695   9.962  0.00  0.00    +0.002 A 
ATOM     38  C   UNL     1       8.841  -5.971   8.841  0.00  0.00    +0.023 A 
ENDBRANCH  31  33
ENDBRANCH   9  29
TORSDOF 6
