REMARK  Name = ZINC18209825
REMARK  8 active torsions:
REMARK  status: ('A' for Active; 'I' for Inactive)
REMARK    1  A    between atoms: C_3  and  C_6
REMARK    2  A    between atoms: C_9  and  C_29
REMARK    3  A    between atoms: C_12  and  S_14
REMARK    4  A    between atoms: S_14  and  C_15
REMARK    5  A    between atoms: C_15  and  C_16
REMARK    6  A    between atoms: C_16  and  C_17
REMARK    7  A    between atoms: C_17  and  C_18
REMARK    8  A    between atoms: N_20  and  C_21
REMARK                            x       y       z     vdW  Elec       q    Type
REMARK                         _______ _______ _______ _____ _____    ______ ____
ROOT
ATOM      1  C   UNL     1       3.607   0.645  -0.043  0.00  0.00    +0.140 C 
ATOM      2  C   UNL     1       4.141   0.359   1.369  0.00  0.00    +0.063 C 
ATOM      3  C   UNL     1       5.669   0.304   1.307  0.00  0.00    +0.187 C 
ATOM      4  N   UNL     1       6.107  -0.571   0.226  0.00  0.00    -0.357 N 
ATOM      5  C   UNL     1       5.365  -0.892  -0.784  0.00  0.00    +0.129 C 
ATOM      6  N   UNL     1       4.071  -0.443  -0.918  0.00  0.00    -0.316 N 
ATOM      7  H   UNL     1       3.476  -0.837  -1.575  0.00  0.00    +0.149 HD
ATOM      8  H   UNL     1       7.007  -0.932   0.265  0.00  0.00    +0.162 HD
ENDROOT
BRANCH   1  11
ATOM      9  C   UNL     1      -0.007   1.361   0.002  0.00  0.00    +0.041 A 
ATOM     10  C   UNL     1       1.340   1.789  -0.016  0.00  0.00    +0.046 A 
ATOM     11  C   UNL     1       2.101   0.680  -0.024  0.00  0.00    +0.125 A 
ATOM     12  O   UNL     1       1.290  -0.391  -0.012  0.00  0.00    -0.466 OA
ATOM     13  C   UNL     1       0.011   0.016   0.003  0.00  0.00    +0.195 A 
ENDBRANCH   1  11
BRANCH   3  14
ATOM     14  C   UNL     1       6.209  -0.229   2.636  0.00  0.00    +0.410 C 
ATOM     15  F   UNL     1       5.702  -1.513   2.864  0.00  0.00    -0.168 F 
ATOM     16  F   UNL     1       7.606  -0.282   2.585  0.00  0.00    -0.168 F 
ATOM     17  F   UNL     1       5.812   0.620   3.675  0.00  0.00    -0.168 F 
ENDBRANCH   3  14
BRANCH   5  18
ATOM     18  S   UNL     1       6.035  -1.940  -2.033  0.00  0.00    -0.093 S 
BRANCH  18  19
ATOM     19  C   UNL     1       7.723  -2.277  -1.462  0.00  0.00    +0.077 C 
BRANCH  19  20
ATOM     20  C   UNL     1       8.428  -3.189  -2.469  0.00  0.00    +0.020 C 
BRANCH  20  21
ATOM     21  C   UNL     1       9.853  -3.474  -1.988  0.00  0.00    +0.097 C 
BRANCH  21  22
ATOM     22  C   UNL     1      10.547  -4.372  -2.979  0.00  0.00    +0.217 C 
ATOM     23  O   UNL     1       9.960  -4.747  -3.972  0.00  0.00    -0.275 OA
ATOM     24  N   UNL     1      11.820  -4.759  -2.762  0.00  0.00    -0.285 N 
ATOM     25  H   UNL     1      12.311  -4.406  -2.004  0.00  0.00    +0.155 HD
BRANCH  24  26
ATOM     26  C   UNL     1      12.433  -5.669  -3.631  0.00  0.00    +0.035 A 
ATOM     27  C   UNL     1      13.331  -6.606  -3.136  0.00  0.00    +0.025 A 
ATOM     28  C   UNL     1      13.935  -7.504  -3.994  0.00  0.00    +0.023 A 
ATOM     29  C   UNL     1      13.645  -7.471  -5.347  0.00  0.00    +0.059 A 
ATOM     30  C   UNL     1      12.750  -6.539  -5.844  0.00  0.00    +0.061 A 
ATOM     31  C   UNL     1      12.139  -5.642  -4.987  0.00  0.00    +0.044 A 
ATOM     32 CL   UNL     1      12.389  -6.500  -7.541  0.00  0.00    -0.082 Cl
ATOM     33 CL   UNL     1      14.405  -8.601  -6.424  0.00  0.00    -0.082 Cl
ENDBRANCH  24  26
ENDBRANCH  21  22
ENDBRANCH  20  21
ENDBRANCH  19  20
ENDBRANCH  18  19
ENDBRANCH   5  18
TORSDOF 8
