REMARK  Name = ZINC19768805
REMARK  10 active torsions:
REMARK  status: ('A' for Active; 'I' for Inactive)
REMARK    1  A    between atoms: C_1  and  C_2
REMARK    2  A    between atoms: N_6  and  C_18
REMARK    3  A    between atoms: C_9  and  C_14
REMARK    4  A    between atoms: C_14  and  C_16
REMARK    5  A    between atoms: C_14  and  N_17
REMARK    6  A    between atoms: C_18  and  C_19
REMARK    7  A    between atoms: N_21  and  C_22
REMARK    8  A    between atoms: C_22  and  C_23
REMARK    9  A    between atoms: C_23  and  O_24
REMARK   10  A    between atoms: O_24  and  C_25
REMARK                            x       y       z     vdW  Elec       q    Type
REMARK                         _______ _______ _______ _____ _____    ______ ____
ROOT
ATOM      1  C   UNL     1      -8.057  -1.278  -2.045  0.00  0.00    +0.062 C 
ATOM      2  C   UNL     1      -6.836  -0.357  -2.078  0.00  0.00    +0.256 C 
ATOM      3  C   UNL     1      -6.069  -0.585  -3.356  0.00  0.00    +0.261 C 
ATOM      4  O   UNL     1      -6.647  -0.960  -4.354  0.00  0.00    -0.271 OA
ATOM      5  N   UNL     1      -4.736  -0.370  -3.384  0.00  0.00    -0.256 N 
ATOM      6  C   UNL     1      -4.087   0.029  -2.207  0.00  0.00    +0.079 A 
ATOM      7  C   UNL     1      -2.811   0.567  -2.250  0.00  0.00    +0.029 A 
ATOM      8  C   UNL     1      -2.186   0.947  -1.076  0.00  0.00    -0.060 A 
ATOM      9  C   UNL     1      -2.834   0.802   0.136  0.00  0.00    +0.005 A 
ATOM     10  C   UNL     1      -4.111   0.271   0.185  0.00  0.00    +0.048 A 
ATOM     11  C   UNL     1      -4.741  -0.117  -0.985  0.00  0.00    +0.143 A 
ATOM     12  O   UNL     1      -5.996  -0.640  -0.956  0.00  0.00    -0.478 OA
ENDROOT
BRANCH   8  13
ATOM     13  C   UNL     1      -0.795   1.527  -1.120  0.00  0.00    -0.047 C 
ATOM     14  C   UNL     1      -0.876   3.052  -1.022  0.00  0.00    -0.009 C 
BRANCH  13  15
ATOM     15  N   UNL     1      -0.012   1.005   0.008  0.00  0.00    +0.382 N 
ATOM     16  H   UNL     1       1.003   1.428  -0.024  0.00  0.00    -0.089 HD
ATOM     17  H   UNL     1       0.046  -0.091  -0.062  0.00  0.00    -0.089 HD
ATOM     18  H   UNL     1      -0.497   1.287   0.954  0.00  0.00    -0.089 HD
ENDBRANCH  13  15
ENDBRANCH   8  13
BRANCH   5  19
ATOM     19  C   UNL     1      -3.980  -0.550  -4.626  0.00  0.00    +0.209 C 
BRANCH  19  20
ATOM     20  C   UNL     1      -3.947   0.749  -5.388  0.00  0.00    +0.231 C 
ATOM     21  O   UNL     1      -4.501   1.730  -4.938  0.00  0.00    -0.274 OA
ATOM     22  N   UNL     1      -3.303   0.822  -6.569  0.00  0.00    -0.312 N 
ATOM     23  H   UNL     1      -2.801  -0.068  -6.977  0.00  0.00    +0.149 HD
BRANCH  22  24
ATOM     24  C   UNL     1      -3.271   2.085  -7.310  0.00  0.00    +0.132 C 
BRANCH  24  25
ATOM     25  C   UNL     1      -2.482   1.897  -8.607  0.00  0.00    +0.178 C 
BRANCH  25  26
ATOM     26  O   UNL     1      -3.173   0.978  -9.456  0.00  0.00    -0.381 OA
ATOM     27  C   UNL     1      -2.516   0.730 -10.701  0.00  0.00    +0.194 C 
ENDBRANCH  25  26
ENDBRANCH  24  25
ENDBRANCH  22  24
ENDBRANCH  19  20
ENDBRANCH   5  19
TORSDOF 7
