REMARK  Name = ZINC00703141
REMARK  8 active torsions:
REMARK  status: ('A' for Active; 'I' for Inactive)
REMARK    1  A    between atoms: C_1  and  C_2
REMARK    2  A    between atoms: C_2  and  O_3
REMARK    3  A    between atoms: O_3  and  C_4
REMARK    4  A    between atoms: C_14  and  C_32
REMARK    5  A    between atoms: C_16  and  C_21
REMARK    6  A    between atoms: C_17  and  O_20
REMARK    7  A    between atoms: C_21  and  C_23
REMARK    8  A    between atoms: C_35  and  O_38
REMARK                            x       y       z     vdW  Elec       q    Type
REMARK                         _______ _______ _______ _____ _____    ______ ____
ROOT
ATOM      1  C   UNL     1      -1.139   3.659   2.404  0.00  0.00    +0.122 A 
ATOM      2  C   UNL     1      -1.774   2.885   3.371  0.00  0.00    +0.048 A 
ATOM      3  C   UNL     1      -2.433   3.451   4.417  0.00  0.00    +0.032 A 
ATOM      4  C   UNL     1      -2.496   4.857   4.561  0.00  0.00    +0.081 A 
ATOM      5  C   UNL     1      -1.843   5.617   3.564  0.00  0.00    +0.044 A 
ATOM      6  C   UNL     1      -1.175   5.041   2.513  0.00  0.00    +0.063 A 
ATOM      7  S   UNL     1      -2.150   7.284   4.097  0.00  0.00    -0.052 S 
ATOM      8  C   UNL     1      -3.095   6.881   5.560  0.00  0.00    +0.169 A 
ATOM      9  N   UNL     1      -3.105   5.569   5.535  0.00  0.00    -0.224 NA
ATOM     10  N   UNL     1      -3.670   7.736   6.485  0.00  0.00    -0.232 N 
ATOM     11  C   UNL     1      -4.437   7.336   7.670  0.00  0.00    +0.152 C 
ATOM     12  C   UNL     1      -4.849   8.617   8.356  0.00  0.00    +0.075 C 
ATOM     13  C   UNL     1      -4.353   9.635   7.614  0.00  0.00    +0.189 C 
ATOM     14  C   UNL     1      -3.619   9.080   6.459  0.00  0.00    +0.288 C 
ATOM     15  O   UNL     1      -3.055   9.740   5.609  0.00  0.00    -0.266 OA
ENDROOT
BRANCH  11  16
ATOM     16  C   UNL     1      -5.657   6.553   7.259  0.00  0.00    -0.022 A 
ATOM     17  C   UNL     1      -6.440   6.996   6.209  0.00  0.00    +0.009 A 
ATOM     18  C   UNL     1      -7.555   6.277   5.826  0.00  0.00    +0.046 A 
ATOM     19  C   UNL     1      -7.896   5.115   6.503  0.00  0.00    +0.117 A 
ATOM     20  C   UNL     1      -7.112   4.675   7.560  0.00  0.00    +0.046 A 
ATOM     21  C   UNL     1      -5.994   5.395   7.935  0.00  0.00    +0.009 A 
BRANCH  19  22
ATOM     22  O   UNL     1      -8.996   4.408   6.131  0.00  0.00    -0.507 OA
ATOM     23  H   UNL     1      -9.807   4.675   6.585  0.00  0.00    +0.292 HD
ENDBRANCH  19  22
ENDBRANCH  11  16
BRANCH  13  24
ATOM     24  O   UNL     1      -4.501  10.952   7.889  0.00  0.00    -0.502 OA
ATOM     25  H   UNL     1      -4.040  11.493   7.186  0.00  0.00    +0.292 HD
ENDBRANCH  13  24
BRANCH  12  26
ATOM     26  C   UNL     1      -5.636   8.736   9.588  0.00  0.00    +0.230 C 
ATOM     27  O   UNL     1      -6.748   9.232   9.555  0.00  0.00    -0.284 OA
BRANCH  26  28
ATOM     28  C   UNL     1      -5.083   8.258  10.862  0.00  0.00    +0.176 A 
ATOM     29  C   UNL     1      -5.754   8.227  12.046  0.00  0.00    +0.061 A 
ATOM     30  C   UNL     1      -4.820   7.677  13.026  0.00  0.00    +0.021 A 
ATOM     31  C   UNL     1      -4.898   7.394  14.393  0.00  0.00    +0.011 A 
ATOM     32  C   UNL     1      -3.812   6.875  15.039  0.00  0.00    +0.001 A 
ATOM     33  C   UNL     1      -2.634   6.627  14.347  0.00  0.00    +0.004 A 
ATOM     34  C   UNL     1      -2.537   6.899  12.999  0.00  0.00    +0.047 A 
ATOM     35  C   UNL     1      -3.628   7.428  12.320  0.00  0.00    +0.136 A 
ATOM     36  O   UNL     1      -3.831   7.788  11.037  0.00  0.00    -0.452 OA
ENDBRANCH  26  28
ENDBRANCH  12  26
BRANCH   1  37
ATOM     37  O   UNL     1      -0.487   3.067   1.368  0.00  0.00    -0.492 OA
BRANCH  37  39
ATOM     38  C   UNL     1       0.286   1.158   0.103  0.00  0.00    +0.048 C 
ATOM     39  C   UNL     1      -0.491   1.638   1.330  0.00  0.00    +0.225 C 
ENDBRANCH  37  39
ENDBRANCH   1  37
TORSDOF 7
