REMARK  Name = ZINC63175611
REMARK  5 active torsions:
REMARK  status: ('A' for Active; 'I' for Inactive)
REMARK    1  A    between atoms: C_1  and  N_2
REMARK    2  A    between atoms: C_6  and  S_12
REMARK    3  A    between atoms: S_12  and  N_15
REMARK    4  A    between atoms: N_15  and  C_16
REMARK    5  A    between atoms: C_21  and  N_23
REMARK                            x       y       z     vdW  Elec       q    Type
REMARK                         _______ _______ _______ _____ _____    ______ ____
ROOT
ATOM      1  S   UNL     1      -4.000  -4.331  -0.000  0.00  0.00    +0.059 S 
ATOM      2  O   UNL     1      -3.300  -5.443   0.541  0.00  0.00    -0.153 OA
ATOM      3  O   UNL     1      -5.214  -3.849   0.559  0.00  0.00    -0.153 OA
ENDROOT
BRANCH   1   9
ATOM      4  C   UNL     1      -0.018   1.461   0.010  0.00  0.00    +0.156 C 
ATOM      5  N   UNL     1       0.002  -0.004   0.002  0.00  0.00    -0.277 N 
ATOM      6  C   UNL     1      -1.111  -0.844   0.003  0.00  0.00    +0.090 A 
ATOM      7  C   UNL     1      -2.478  -0.613   0.010  0.00  0.00    +0.031 A 
ATOM      8  C   UNL     1      -3.355  -1.680   0.009  0.00  0.00    +0.031 A 
ATOM      9  C   UNL     1      -2.873  -2.977   0.000  0.00  0.00    +0.109 A 
ATOM     10  C   UNL     1      -1.513  -3.215  -0.008  0.00  0.00    +0.077 A 
ATOM     11  C   UNL     1      -0.625  -2.151  -0.007  0.00  0.00    +0.159 A 
ATOM     12  O   UNL     1       0.729  -2.076  -0.013  0.00  0.00    -0.407 OA
ATOM     13  C   UNL     1       1.100  -0.786  -0.013  0.00  0.00    +0.421 A 
ATOM     14  O   UNL     1       2.248  -0.385  -0.022  0.00  0.00    -0.223 OA
ENDBRANCH   1   9
BRANCH   1  15
ATOM     15  N   UNL     1      -4.322  -4.700  -1.582  0.00  0.00    -0.188 NA
ATOM     16  H   UNL     1      -5.218  -4.582  -1.935  0.00  0.00    +0.148 HD
BRANCH  15  17
ATOM     17  C   UNL     1      -3.254  -5.204  -2.449  0.00  0.00    +0.062 C 
ATOM     18  C   UNL     1      -3.311  -6.744  -2.517  0.00  0.00    +0.019 C 
ATOM     19  C   UNL     1      -4.123  -7.037  -3.803  0.00  0.00    -0.000 C 
ATOM     20  C   UNL     1      -3.628  -5.940  -4.777  0.00  0.00    -0.015 C 
ATOM     21  C   UNL     1      -3.454  -4.692  -3.886  0.00  0.00    -0.056 C 
BRANCH  21  22
ATOM     22  N   UNL     1      -2.277  -3.925  -4.315  0.00  0.00    +0.381 N 
ATOM     23  H   UNL     1      -1.461  -4.517  -4.285  0.00  0.00    -0.090 HD
ATOM     24  H   UNL     1      -2.418  -3.593  -5.258  0.00  0.00    -0.090 HD
ATOM     25  H   UNL     1      -2.145  -3.138  -3.698  0.00  0.00    -0.090 HD
ENDBRANCH  21  22
ENDBRANCH  15  17
ENDBRANCH   1  15
TORSDOF 4
