REMARK  Name = ZINC39666020
REMARK  9 active torsions:
REMARK  status: ('A' for Active; 'I' for Inactive)
REMARK    1  A    between atoms: C_1  and  C_2
REMARK    2  A    between atoms: C_5  and  O_8
REMARK    3  A    between atoms: O_8  and  C_9
REMARK    4  A    between atoms: C_9  and  C_11
REMARK    5  A    between atoms: C_9  and  C_12
REMARK    6  A    between atoms: C_12  and  N_13
REMARK    7  A    between atoms: C_14  and  C_16
REMARK    8  A    between atoms: C_27  and  C_29
REMARK    9  A    between atoms: C_33  and  C_35
REMARK                            x       y       z     vdW  Elec       q    Type
REMARK                         _______ _______ _______ _____ _____    ______ ____
ROOT
ATOM      1  C   UNL     1       4.657  -6.550   0.311  0.00  0.00    +0.100 C 
ATOM      2  C   UNL     1       4.937  -5.632  -0.900  0.00  0.00    +0.121 C 
ATOM      3  N   UNL     1       6.229  -6.113  -1.443  0.00  0.00    -0.296 N 
ATOM      4  C   UNL     1       6.152  -7.589  -1.326  0.00  0.00    +0.115 C 
ATOM      5  C   UNL     1       5.455  -7.833   0.027  0.00  0.00    -0.004 C 
ATOM      6  C   UNL     1       4.513  -9.030  -0.073  0.00  0.00    -0.010 C 
ATOM      7  C   UNL     1       5.335 -10.303  -0.297  0.00  0.00    -0.082 C 
ATOM      8  N   UNL     1       6.273 -10.485   0.817  0.00  0.00    +0.379 N 
ATOM      9  C   UNL     1       7.234  -9.375   0.849  0.00  0.00    -0.082 C 
ATOM     10  C   UNL     1       6.493  -8.063   1.122  0.00  0.00    -0.010 C 
ATOM     11  C   UNL     1       7.246  -5.376  -1.932  0.00  0.00    +0.247 C 
ATOM     12  O   UNL     1       7.137  -4.168  -2.011  0.00  0.00    -0.270 OA
ATOM     13  H   UNL     1       5.760 -10.509   1.686  0.00  0.00    -0.086 HD
ATOM     14  H   UNL     1       6.770 -11.355   0.698  0.00  0.00    -0.086 HD
ENDROOT
BRANCH  11  15
ATOM     15  C   UNL     1       8.492  -6.035  -2.372  0.00  0.00    +0.038 A 
ATOM     16  C   UNL     1       8.458  -7.344  -2.861  0.00  0.00    +0.016 A 
ATOM     17  C   UNL     1       9.624  -7.955  -3.270  0.00  0.00    +0.039 A 
ATOM     18  C   UNL     1      10.829  -7.272  -3.197  0.00  0.00    +0.135 A 
ATOM     19  C   UNL     1      10.869  -5.974  -2.714  0.00  0.00    +0.091 A 
ATOM     20  C   UNL     1       9.708  -5.351  -2.307  0.00  0.00    +0.028 A 
ATOM     21  F   UNL     1      11.969  -7.876  -3.600  0.00  0.00    -0.205 F 
BRANCH  19  22
ATOM     22  C   UNL     1      12.182  -5.239  -2.638  0.00  0.00    +0.420 C 
ATOM     23  F   UNL     1      11.970  -3.956  -2.122  0.00  0.00    -0.166 F 
ATOM     24  F   UNL     1      13.060  -5.939  -1.803  0.00  0.00    -0.166 F 
ATOM     25  F   UNL     1      12.736  -5.141  -3.919  0.00  0.00    -0.166 F 
ENDBRANCH  19  22
ENDBRANCH  11  15
BRANCH   1  27
ATOM     26  N   UNL     1       2.623  -7.097   1.608  0.00  0.00    -0.312 N 
ATOM     27  C   UNL     1       3.185  -6.858   0.406  0.00  0.00    +0.218 C 
ATOM     28  O   UNL     1       2.506  -6.890  -0.598  0.00  0.00    -0.275 OA
ATOM     29  H   UNL     1       3.166  -7.071   2.411  0.00  0.00    +0.149 HD
BRANCH  26  30
ATOM     30  C   UNL     1       1.192  -7.396   1.700  0.00  0.00    +0.148 C 
BRANCH  30  31
ATOM     31  C   UNL     1       0.812  -7.625   3.165  0.00  0.00    +0.187 C 
ATOM     32  C   UNL     1      -0.652  -8.060   3.250  0.00  0.00    +0.053 C 
BRANCH  31  33
ATOM     33  O   UNL     1       0.994  -6.413   3.900  0.00  0.00    -0.488 OA
BRANCH  33  38
ATOM     34  C   UNL     1       2.244  -6.901   9.370  0.00  0.00    +0.044 C 
ATOM     35  C   UNL     1       1.909  -6.770   7.906  0.00  0.00    -0.050 A 
ATOM     36  C   UNL     1       1.613  -7.898   7.163  0.00  0.00    +0.007 A 
ATOM     37  C   UNL     1       1.306  -7.781   5.821  0.00  0.00    +0.046 A 
ATOM     38  C   UNL     1       1.295  -6.531   5.220  0.00  0.00    +0.121 A 
ATOM     39  C   UNL     1       1.592  -5.401   5.968  0.00  0.00    +0.046 A 
ATOM     40  C   UNL     1       1.893  -5.523   7.311  0.00  0.00    +0.007 A 
ENDBRANCH  33  38
ENDBRANCH  31  33
ENDBRANCH  30  31
ENDBRANCH  26  30
ENDBRANCH   1  27
TORSDOF 7
