REMARK  Name = ZINC54200438
REMARK  6 active torsions:
REMARK  status: ('A' for Active; 'I' for Inactive)
REMARK    1  A    between atoms: C_1  and  C_2
REMARK    2  A    between atoms: C_8  and  C_13
REMARK    3  A    between atoms: C_9  and  O_12
REMARK    4  A    between atoms: C_13  and  C_15
REMARK    5  A    between atoms: C_13  and  N_21
REMARK    6  A    between atoms: N_21  and  C_22
REMARK                            x       y       z     vdW  Elec       q    Type
REMARK                         _______ _______ _______ _____ _____    ______ ____
ROOT
ATOM      1  C   UNL     1       0.086  -4.769   3.747  0.00  0.00    +0.135 C 
ENDROOT
BRANCH   1   9
ATOM      2  C   UNL     1       0.803   1.585   0.222  0.00  0.00    +0.065 C 
ATOM      3  C   UNL     1       0.646   0.087   0.164  0.00  0.00    +0.039 A 
ATOM      4  C   UNL     1       0.597  -0.542  -1.079  0.00  0.00    +0.023 A 
ATOM      5  C   UNL     1       0.456  -1.898  -1.151  0.00  0.00    +0.012 A 
ATOM      6  C   UNL     1       0.363  -2.621   0.054  0.00  0.00    +0.004 A 
ATOM      7  C   UNL     1       0.216  -4.018   0.058  0.00  0.00    +0.010 A 
ATOM      8  C   UNL     1       0.130  -4.684   1.243  0.00  0.00    +0.010 A 
ATOM      9  C   UNL     1       0.185  -4.000   2.454  0.00  0.00    +0.021 A 
ATOM     10  C   UNL     1       0.327  -2.642   2.490  0.00  0.00    +0.148 A 
ATOM     11  C   UNL     1       0.419  -1.918   1.282  0.00  0.00    +0.113 A 
ATOM     12  N   UNL     1       0.564  -0.590   1.283  0.00  0.00    -0.248 NA
BRANCH  10  13
ATOM     13  O   UNL     1       0.378  -1.991   3.681  0.00  0.00    -0.504 OA
ATOM     14  H   UNL     1       1.271  -1.895   4.039  0.00  0.00    +0.292 HD
ENDBRANCH  10  13
ENDBRANCH   1   9
BRANCH   1  15
ATOM     15  C   UNL     1      -1.352  -4.814   4.195  0.00  0.00    -0.020 A 
ATOM     16  C   UNL     1      -2.241  -5.722   3.641  0.00  0.00    +0.025 A 
ATOM     17  C   UNL     1      -3.552  -5.734   4.078  0.00  0.00    +0.111 A 
ATOM     18  N   UNL     1      -3.960  -4.895   5.009  0.00  0.00    -0.263 NA
ATOM     19  C   UNL     1      -3.143  -4.018   5.559  0.00  0.00    +0.111 A 
ATOM     20  C   UNL     1      -1.817  -3.951   5.177  0.00  0.00    +0.025 A 
ENDBRANCH   1  15
BRANCH   1  21
ATOM     21  N   UNL     1       0.576  -6.134   3.541  0.00  0.00    -0.333 N 
ATOM     22  H   UNL     1       0.553  -6.529   2.655  0.00  0.00    +0.147 HD
BRANCH  21  23
ATOM     23  C   UNL     1       1.073  -6.864   4.616  0.00  0.00    +0.031 A 
ATOM     24  C   UNL     1       1.109  -6.316   5.898  0.00  0.00    +0.040 A 
ATOM     25  C   UNL     1       1.609  -7.073   6.936  0.00  0.00    +0.084 A 
ATOM     26  N   UNL     1       2.051  -8.299   6.729  0.00  0.00    -0.367 N 
ATOM     27  C   UNL     1       2.034  -8.853   5.530  0.00  0.00    +0.084 A 
ATOM     28  C   UNL     1       1.545  -8.165   4.440  0.00  0.00    +0.040 A 
ATOM     29  H   UNL     1       2.397  -8.808   7.478  0.00  0.00    +0.165 HD
ENDBRANCH  21  23
ENDBRANCH   1  21
TORSDOF 5
