REMARK  Name = ZINC63746816
REMARK  5 active torsions:
REMARK  status: ('A' for Active; 'I' for Inactive)
REMARK    1  A    between atoms: C_1  and  O_2
REMARK    2  A    between atoms: O_2  and  C_3
REMARK    3  A    between atoms: C_8  and  N_9
REMARK    4  A    between atoms: N_12  and  C_13
REMARK    5  A    between atoms: C_18  and  C_19
REMARK                            x       y       z     vdW  Elec       q    Type
REMARK                         _______ _______ _______ _____ _____    ______ ____
ROOT
ATOM      1  C   UNL     1       0.861  -6.232   0.141  0.00  0.00    +0.040 A 
ATOM      2  C   UNL     1      -0.365  -6.884   0.147  0.00  0.00    +0.024 A 
ATOM      3  C   UNL     1      -0.411  -8.264   0.144  0.00  0.00    +0.002 A 
ATOM      4  C   UNL     1       0.762  -8.997   0.137  0.00  0.00    +0.000 A 
ATOM      5  C   UNL     1       1.984  -8.350   0.131  0.00  0.00    +0.008 A 
ATOM      6  C   UNL     1       2.037  -6.970   0.127  0.00  0.00    -0.000 A 
ENDROOT
BRANCH   6   7
ATOM      7  C   UNL     1       3.369  -6.266   0.114  0.00  0.00    +0.135 C 
ATOM      8  C   UNL     1       3.815  -5.968   1.528  0.00  0.00    +0.012 C 
ATOM      9  C   UNL     1       4.983  -6.629   1.700  0.00  0.00    -0.004 A 
ATOM     10  C   UNL     1       5.905  -6.740   2.837  0.00  0.00    +0.010 A 
ATOM     11  C   UNL     1       7.021  -7.492   2.705  0.00  0.00    +0.001 A 
ATOM     12  C   UNL     1       7.320  -8.165   1.512  0.00  0.00    +0.002 A 
ATOM     13  C   UNL     1       6.522  -8.110   0.425  0.00  0.00    +0.026 A 
ATOM     14  C   UNL     1       5.322  -7.349   0.452  0.00  0.00    +0.043 A 
ATOM     15  N   UNL     1       4.398  -7.141  -0.458  0.00  0.00    -0.374 N 
ATOM     16  H   UNL     1       4.396  -7.506  -1.357  0.00  0.00    +0.161 HD
ENDBRANCH   6   7
BRANCH   1  20
ATOM     17  N   UNL     1       0.075  -2.783  -0.595  0.00  0.00    -0.266 N 
ATOM     18  C   UNL     1      -0.026  -4.125  -0.517  0.00  0.00    +0.308 C 
ATOM     19  O   UNL     1      -0.962  -4.695  -1.042  0.00  0.00    -0.252 OA
ATOM     20  N   UNL     1       0.911  -4.833   0.143  0.00  0.00    -0.269 N 
ATOM     21  H   UNL     1       0.862  -2.334  -0.248  0.00  0.00    +0.156 HD
ATOM     22  H   UNL     1       1.620  -4.374   0.620  0.00  0.00    +0.156 HD
BRANCH  17  28
ATOM     23  C   UNL     1      -0.691  -0.782  -1.723  0.00  0.00    +0.141 A 
ATOM     24  C   UNL     1      -1.714  -0.049  -2.302  0.00  0.00    +0.049 A 
ATOM     25  C   UNL     1      -2.999  -0.559  -2.333  0.00  0.00    +0.024 A 
ATOM     26  C   UNL     1      -3.267  -1.802  -1.785  0.00  0.00    +0.043 A 
ATOM     27  C   UNL     1      -2.250  -2.539  -1.205  0.00  0.00    +0.047 A 
ATOM     28  C   UNL     1      -0.958  -2.035  -1.177  0.00  0.00    +0.078 A 
ATOM     29 CL   UNL     1      -4.882  -2.436  -1.827  0.00  0.00    -0.083 Cl
BRANCH  23  31
ATOM     30  C   UNL     1       0.773   1.010  -2.270  0.00  0.00    +0.277 C 
ATOM     31  O   UNL     1       0.573  -0.281  -1.692  0.00  0.00    -0.493 OA
ENDBRANCH  23  31
ENDBRANCH  17  28
ENDBRANCH   1  20
TORSDOF 4
