REMARK  Name = ZINC16695936
REMARK  5 active torsions:
REMARK  status: ('A' for Active; 'I' for Inactive)
REMARK    1  A    between atoms: C_1  and  O_2
REMARK    2  A    between atoms: O_2  and  C_3
REMARK    3  A    between atoms: N_11  and  C_12
REMARK    4  A    between atoms: C_15  and  O_18
REMARK    5  A    between atoms: C_19  and  C_21
REMARK                            x       y       z     vdW  Elec       q    Type
REMARK                         _______ _______ _______ _____ _____    ______ ____
ROOT
ATOM      1  C   UNL     1       0.759  -0.880  -1.588  0.00  0.00    +0.163 A 
ATOM      2  C   UNL     1       1.722  -0.307  -2.402  0.00  0.00    +0.049 A 
ATOM      3  C   UNL     1       2.745  -1.077  -2.934  0.00  0.00    +0.004 A 
ATOM      4  C   UNL     1       2.818  -2.425  -2.662  0.00  0.00    +0.012 A 
ATOM      5  C   UNL     1       1.852  -3.021  -1.843  0.00  0.00    +0.022 A 
ATOM      6  C   UNL     1       0.819  -2.238  -1.295  0.00  0.00    +0.179 A 
ATOM      7  O   UNL     1      -0.109  -2.813  -0.490  0.00  0.00    -0.435 OA
ATOM      8  C   UNL     1      -0.359  -4.133  -0.682  0.00  0.00    +0.212 A 
ATOM      9  N   UNL     1      -1.585  -4.605  -0.633  0.00  0.00    -0.325 N 
ATOM     10  C   UNL     1       0.789  -5.024  -0.948  0.00  0.00    +0.097 A 
ATOM     11  C   UNL     1       1.903  -4.454  -1.544  0.00  0.00    +0.030 A 
ATOM     12  H   UNL     1      -2.293  -4.074  -0.236  0.00  0.00    +0.169 HD
ENDROOT
BRANCH   9  13
ATOM     13  C   UNL     1      -1.862  -5.846  -1.140  0.00  0.00    +0.042 A 
ATOM     14  C   UNL     1      -2.601  -6.762  -0.388  0.00  0.00    +0.029 A 
ATOM     15  C   UNL     1      -2.878  -8.010  -0.904  0.00  0.00    +0.047 A 
ATOM     16  C   UNL     1      -2.423  -8.357  -2.169  0.00  0.00    +0.117 A 
ATOM     17  C   UNL     1      -1.688  -7.451  -2.920  0.00  0.00    +0.047 A 
ATOM     18  C   UNL     1      -1.411  -6.198  -2.415  0.00  0.00    +0.029 A 
BRANCH  16  19
ATOM     19  O   UNL     1      -2.699  -9.590  -2.673  0.00  0.00    -0.507 OA
ATOM     20  H   UNL     1      -3.525  -9.634  -3.173  0.00  0.00    +0.292 HD
ENDBRANCH  16  19
ENDBRANCH   9  13
BRANCH  10  21
ATOM     21  C   UNL     1       0.747  -6.455  -0.605  0.00  0.00    +0.247 C 
ATOM     22  O   UNL     1      -0.159  -6.890   0.080  0.00  0.00    -0.270 OA
ATOM     23  N   UNL     1       1.712  -7.284  -1.051  0.00  0.00    -0.325 N 
ATOM     24  H   UNL     1       2.395  -6.952  -1.655  0.00  0.00    +0.145 HD
ATOM     25  H   UNL     1       1.725  -8.211  -0.767  0.00  0.00    +0.145 HD
ENDBRANCH  10  21
BRANCH   1  27
ATOM     26  C   UNL     1      -0.238   1.272  -1.415  0.00  0.00    +0.277 C 
ATOM     27  O   UNL     1      -0.239  -0.115  -1.072  0.00  0.00    -0.491 OA
ENDBRANCH   1  27
TORSDOF 4
