REMARK  Name = ZINC50814878
REMARK  13 active torsions:
REMARK  status: ('A' for Active; 'I' for Inactive)
REMARK    1  A    between atoms: C_1  and  C_2
REMARK    2  A    between atoms: C_2  and  C_3
REMARK    3  A    between atoms: C_2  and  C_4
REMARK    4  A    between atoms: C_4  and  N_5
REMARK    5  A    between atoms: N_5  and  C_6
REMARK    6  A    between atoms: N_5  and  C_11
REMARK    7  A    between atoms: C_6  and  C_7
REMARK    8  A    between atoms: C_7  and  N_8
REMARK    9  A    between atoms: N_8  and  C_9
REMARK   10  A    between atoms: N_8  and  C_10
REMARK   11  A    between atoms: C_11  and  C_12
REMARK   12  A    between atoms: C_14  and  N_19
REMARK   13  A    between atoms: C_17  and  N_18
REMARK                            x       y       z     vdW  Elec       q    Type
REMARK                         _______ _______ _______ _____ _____    ______ ____
ROOT
ATOM      1  C   UNL     1      -0.766  -1.958   1.650  0.00  0.00    -0.041 C 
ENDROOT
BRANCH   1   2
ATOM      2  C   UNL     1      -1.096  -1.493   3.045  0.00  0.00    -0.041 A 
ATOM      3  C   UNL     1      -0.440  -0.405   3.585  0.00  0.00    +0.036 A 
ATOM      4  C   UNL     1      -0.743   0.022   4.865  0.00  0.00    +0.126 A 
ATOM      5  C   UNL     1      -1.703  -0.639   5.609  0.00  0.00    +0.034 A 
ATOM      6  C   UNL     1      -2.363  -1.728   5.075  0.00  0.00    +0.025 A 
ATOM      7  C   UNL     1      -2.066  -2.156   3.787  0.00  0.00    +0.026 A 
BRANCH   7   8
ATOM      8  N   UNL     1      -2.736  -3.254   3.242  0.00  0.00    -0.358 N 
ATOM      9  H   UNL     1      -2.429  -3.644   2.409  0.00  0.00    +0.142 HD
ATOM     10  H   UNL     1      -3.507  -3.626   3.697  0.00  0.00    +0.142 HD
ENDBRANCH   7   8
BRANCH   4  11
ATOM     11  N   UNL     1      -0.037   1.189   5.440  0.00  0.00    +0.056 N 
ATOM     12  O   UNL     1       0.803   1.768   4.791  0.00  0.00    -0.126 OA
ATOM     13  O   UNL     1      -0.301   1.564   6.559  0.00  0.00    -0.126 OA
ENDBRANCH   4  11
ENDBRANCH   1   2
BRANCH   1  14
ATOM     14  N   UNL     1      -1.702  -1.348   0.696  0.00  0.00    +0.381 N 
ATOM     15  H   UNL     1      -1.542  -1.732  -0.223  0.00  0.00    -0.081 HD
BRANCH  14  16
ATOM     16  C   UNL     1      -1.490   0.105   0.663  0.00  0.00    -0.076 C 
BRANCH  16  18
ATOM     17  C   UNL     1      -0.222   1.952  -0.442  0.00  0.00    +0.005 C 
ATOM     18  C   UNL     1      -0.358   0.434  -0.312  0.00  0.00    -0.034 C 
ATOM     19  C   UNL     1       0.954  -0.153   0.213  0.00  0.00    +0.005 C 
ENDBRANCH  16  18
ENDBRANCH  14  16
BRANCH  14  20
ATOM     20  C   UNL     1      -3.081  -1.633   1.114  0.00  0.00    -0.097 C 
BRANCH  20  21
ATOM     21  C   UNL     1      -4.052  -1.125   0.046  0.00  0.00    -0.099 C 
BRANCH  21  22
ATOM     22  N   UNL     1      -5.431  -1.409   0.464  0.00  0.00    +0.375 N 
ATOM     23  C   UNL     1      -5.746  -0.638   1.674  0.00  0.00    -0.097 C 
ATOM     24  C   UNL     1      -6.357  -1.030  -0.613  0.00  0.00    -0.097 C 
ATOM     25  H   UNL     1      -5.527  -2.395   0.658  0.00  0.00    -0.083 HD
ENDBRANCH  21  22
ENDBRANCH  20  21
ENDBRANCH  14  20
ENDBRANCH   1  14
TORSDOF 9
