REMARK  Name = ZINC20919781
REMARK  7 active torsions:
REMARK  status: ('A' for Active; 'I' for Inactive)
REMARK    1  A    between atoms: C_1  and  C_2
REMARK    2  A    between atoms: C_3  and  C_8
REMARK    3  A    between atoms: N_10  and  C_11
REMARK    4  A    between atoms: C_13  and  O_32
REMARK    5  A    between atoms: C_14  and  C_18
REMARK    6  A    between atoms: C_23  and  N_26
REMARK    7  A    between atoms: O_32  and  C_33
REMARK                            x       y       z     vdW  Elec       q    Type
REMARK                         _______ _______ _______ _____ _____    ______ ____
ROOT
ATOM      1  C   UNL     1       1.332  -1.659   1.511  0.00  0.00    +0.056 A 
ATOM      2  C   UNL     1       0.743  -2.600   0.677  0.00  0.00    +0.071 A 
ATOM      3  C   UNL     1       0.839  -3.948   0.976  0.00  0.00    +0.134 A 
ATOM      4  C   UNL     1       1.524  -4.358   2.130  0.00  0.00    +0.080 A 
ATOM      5  C   UNL     1       2.110  -3.403   2.967  0.00  0.00    +0.038 A 
ATOM      6  C   UNL     1       2.013  -2.066   2.657  0.00  0.00    +0.063 A 
ATOM      7 CL   UNL     1       2.741  -0.882   3.697  0.00  0.00    -0.082 Cl
ENDROOT
BRANCH   4   8
ATOM      8  C   UNL     1       1.625  -5.790   2.459  0.00  0.00    +0.250 C 
ATOM      9  O   UNL     1       0.621  -6.476   2.504  0.00  0.00    -0.270 OA
ATOM     10  N   UNL     1       2.829  -6.341   2.710  0.00  0.00    -0.298 N 
ATOM     11  C   UNL     1       4.041  -5.511   2.735  0.00  0.00    +0.106 C 
ATOM     12  C   UNL     1       5.075  -6.111   1.783  0.00  0.00    +0.004 C 
ATOM     13  C   UNL     1       5.310  -7.578   2.149  0.00  0.00    -0.066 C 
ATOM     14  C   UNL     1       4.002  -8.359   1.999  0.00  0.00    +0.004 C 
ATOM     15  C   UNL     1       2.956  -7.783   2.959  0.00  0.00    +0.106 C 
BRANCH  13  16
ATOM     16  N   UNL     1       6.325  -8.149   1.254  0.00  0.00    +0.382 N 
ATOM     17  C   UNL     1       6.507  -9.583   1.511  0.00  0.00    -0.078 C 
ATOM     18  C   UNL     1       7.461 -10.173   0.469  0.00  0.00    -0.019 C 
ATOM     19  C   UNL     1       8.807  -9.447   0.548  0.00  0.00    -0.004 C 
ATOM     20  C   UNL     1       8.583  -7.949   0.325  0.00  0.00    -0.019 C 
ATOM     21  C   UNL     1       7.597  -7.424   1.371  0.00  0.00    -0.078 C 
ATOM     22  H   UNL     1       5.969  -8.037   0.220  0.00  0.00    -0.081 HD
ENDBRANCH  13  16
ENDBRANCH   4   8
BRANCH   1  25
ATOM     23  C   UNL     1       0.178   0.159   0.511  0.00  0.00    +0.258 C 
ATOM     24  O   UNL     1      -0.751  -0.584   0.252  0.00  0.00    -0.269 OA
ATOM     25  N   UNL     1       1.238  -0.303   1.204  0.00  0.00    -0.280 N 
ATOM     26  H   UNL     1       2.028   0.391   1.527  0.00  0.00    +0.155 HD
BRANCH  23  29
ATOM     27  C   UNL     1      -1.153   0.759  -1.823  0.00  0.00    +0.087 C 
ATOM     28  C   UNL     1      -0.481   1.878  -1.069  0.00  0.00    +0.113 C 
ATOM     29  C   UNL     1       0.144   1.555   0.069  0.00  0.00    +0.107 C 
ATOM     30  S   UNL     1       0.934   2.803   1.038  0.00  0.00    -0.114 S 
ATOM     31  C   UNL     1       0.969   4.219  -0.107  0.00  0.00    +0.115 C 
ATOM     32  C   UNL     1      -0.402   4.272  -0.802  0.00  0.00    +0.239 C 
ATOM     33  O   UNL     1      -0.568   3.102  -1.595  0.00  0.00    -0.494 OA
ENDBRANCH  23  29
ENDBRANCH   1  25
BRANCH   3  34
ATOM     34  O   UNL     1       0.268  -4.869   0.160  0.00  0.00    -0.494 OA
ATOM     35  C   UNL     1      -0.413  -4.377  -0.997  0.00  0.00    +0.277 C 
ENDBRANCH   3  34
TORSDOF 5
