REMARK  Name = ZINC04334915
REMARK  6 active torsions:
REMARK  status: ('A' for Active; 'I' for Inactive)
REMARK    1  A    between atoms: C_1  and  C_2
REMARK    2  A    between atoms: C_2  and  C_3
REMARK    3  A    between atoms: C_3  and  C_4
REMARK    4  A    between atoms: C_3  and  C_15
REMARK    5  A    between atoms: C_5  and  N_14
REMARK    6  A    between atoms: C_16  and  N_25
REMARK                            x       y       z     vdW  Elec       q    Type
REMARK                         _______ _______ _______ _____ _____    ______ ____
ROOT
ATOM      1  C   UNL     1      -0.749   1.553   1.260  0.00  0.00    +0.066 C 
ENDROOT
BRANCH   1   2
ATOM      2  C   UNL     1      -2.010   0.729   1.311  0.00  0.00    +0.062 A 
ATOM      3  C   UNL     1      -3.231   1.335   1.415  0.00  0.00    +0.104 A 
ATOM      4  N   UNL     1      -4.366   0.562   1.455  0.00  0.00    -0.324 N 
ATOM      5  H   UNL     1      -5.235   0.986   1.526  0.00  0.00    +0.169 HD
ATOM      6  C   UNL     1      -4.278  -0.779   1.402  0.00  0.00    +0.159 A 
ATOM      7  S   UNL     1      -5.707  -1.720   1.460  0.00  0.00    -0.013 S 
ATOM      8  N   UNL     1      -3.085  -1.393   1.304  0.00  0.00    -0.302 N 
ATOM      9  H   UNL     1      -3.042  -2.391   1.266  0.00  0.00    +0.171 HD
ATOM     10  C   UNL     1      -1.946  -0.673   1.257  0.00  0.00    +0.258 A 
ATOM     11  O   UNL     1      -0.868  -1.235   1.169  0.00  0.00    -0.267 OA
BRANCH   3  12
ATOM     12  N   UNL     1      -3.322   2.702   1.475  0.00  0.00    -0.344 N 
ATOM     13  H   UNL     1      -2.528   3.246   1.358  0.00  0.00    +0.144 HD
ATOM     14  H   UNL     1      -4.181   3.124   1.633  0.00  0.00    +0.144 HD
ENDBRANCH   3  12
ENDBRANCH   1   2
BRANCH   1  15
ATOM     15  C   UNL     1       0.200   1.087   2.334  0.00  0.00    +0.062 A 
ATOM     16  C   UNL     1      -0.102   1.273   3.655  0.00  0.00    +0.104 A 
ATOM     17  N   UNL     1       0.776   0.836   4.616  0.00  0.00    -0.324 N 
ATOM     18  H   UNL     1       0.567   0.962   5.554  0.00  0.00    +0.169 HD
ATOM     19  C   UNL     1       1.929   0.237   4.263  0.00  0.00    +0.159 A 
ATOM     20  S   UNL     1       3.010  -0.293   5.479  0.00  0.00    -0.013 S 
ATOM     21  N   UNL     1       2.244   0.050   2.968  0.00  0.00    -0.302 N 
ATOM     22  H   UNL     1       3.105  -0.397   2.727  0.00  0.00    +0.171 HD
ATOM     23  C   UNL     1       1.409   0.460   1.993  0.00  0.00    +0.258 A 
ATOM     24  O   UNL     1       1.701   0.287   0.822  0.00  0.00    -0.267 OA
BRANCH  16  25
ATOM     25  N   UNL     1      -1.274   1.887   4.017  0.00  0.00    -0.344 N 
ATOM     26  H   UNL     1      -1.847   2.276   3.338  0.00  0.00    +0.144 HD
ATOM     27  H   UNL     1      -1.529   1.933   4.952  0.00  0.00    +0.144 HD
ENDBRANCH  16  25
ENDBRANCH   1  15
BRANCH   1  29
ATOM     28  C   UNL     1      -1.000   1.978  -1.189  0.00  0.00    +0.005 C 
ATOM     29  C   UNL     1      -0.088   1.391  -0.110  0.00  0.00    +0.010 C 
ENDBRANCH   1  29
TORSDOF 5
