REMARK  Name = ZINC58393372
REMARK  14 active torsions:
REMARK  status: ('A' for Active; 'I' for Inactive)
REMARK    1  A    between atoms: C_1  and  C_2
REMARK    2  A    between atoms: C_2  and  C_3
REMARK    3  A    between atoms: C_2  and  C_4
REMARK    4  A    between atoms: C_5  and  C_13
REMARK    5  A    between atoms: C_6  and  N_10
REMARK    6  A    between atoms: N_7  and  C_9
REMARK    7  A    between atoms: N_10  and  C_11
REMARK    8  A    between atoms: N_10  and  C_12
REMARK    9  A    between atoms: C_13  and  N_14
REMARK   10  A    between atoms: N_14  and  C_15
REMARK   11  A    between atoms: C_15  and  C_16
REMARK   12  A    between atoms: C_16  and  C_18
REMARK   13  A    between atoms: C_16  and  O_25
REMARK   14  A    between atoms: C_18  and  N_19
REMARK                            x       y       z     vdW  Elec       q    Type
REMARK                         _______ _______ _______ _____ _____    ______ ____
ROOT
ATOM      1  C   UNL     1      -1.272  -1.964  -2.137  0.00  0.00    +0.121 C 
ENDROOT
BRANCH   1   3
ATOM      2  C   UNL     1      -1.412  -0.524   0.011  0.00  0.00    +0.043 A 
ATOM      3  C   UNL     1      -1.973  -1.390  -0.933  0.00  0.00    +0.027 A 
ATOM      4  C   UNL     1      -3.264  -1.621  -0.570  0.00  0.00    +0.121 A 
ATOM      5  N   UNL     1      -3.501  -0.923   0.564  0.00  0.00    -0.276 N 
ATOM      6  N   UNL     1      -2.323  -0.249   0.909  0.00  0.00    -0.300 N 
ATOM      7  C   UNL     1      -4.766  -0.882   1.303  0.00  0.00    +0.172 C 
ATOM      8  H   UNL     1      -2.203   0.326   1.681  0.00  0.00    +0.187 HD
BRANCH   2  10
ATOM      9  C   UNL     1      -0.019   1.526  -0.074  0.00  0.00    +0.014 C 
ATOM     10  C   UNL     1       0.002  -0.002  -0.001  0.00  0.00    +0.031 C 
ATOM     11  C   UNL     1       0.718  -0.442   1.278  0.00  0.00    +0.014 C 
ENDBRANCH   2  10
BRANCH   4  12
ATOM     12  N   UNL     1      -4.176  -2.430  -1.243  0.00  0.00    -0.321 N 
ATOM     13  C   UNL     1      -4.316  -3.840  -0.874  0.00  0.00    +0.130 C 
ATOM     14  C   UNL     1      -4.994  -1.870  -2.322  0.00  0.00    +0.130 C 
ENDBRANCH   4  12
ENDBRANCH   1   3
BRANCH   1  15
ATOM     15  N   UNL     1      -0.556  -3.187  -1.750  0.00  0.00    -0.309 NA
ATOM     16  H   UNL     1       0.086  -3.006  -0.993  0.00  0.00    +0.122 HD
BRANCH  15  17
ATOM     17  C   UNL     1       0.140  -3.776  -2.902  0.00  0.00    +0.110 C 
BRANCH  17  18
ATOM     18  C   UNL     1       0.873  -5.044  -2.461  0.00  0.00    +0.112 C 
BRANCH  18  19
ATOM     19  O   UNL     1      -0.081  -6.027  -2.052  0.00  0.00    -0.392 OA
ATOM     20  H   UNL     1      -0.703  -6.284  -2.746  0.00  0.00    +0.210 HD
ENDBRANCH  18  19
BRANCH  18  21
ATOM     21  C   UNL     1       1.698  -5.589  -3.628  0.00  0.00    -0.046 C 
BRANCH  21  22
ATOM     22  N   UNL     1       2.402  -6.807  -3.204  0.00  0.00    +0.381 N 
ATOM     23  C   UNL     1       3.372  -6.470  -2.156  0.00  0.00    -0.079 C 
ATOM     24  C   UNL     1       4.050  -7.747  -1.654  0.00  0.00    -0.019 C 
ATOM     25  C   UNL     1       4.772  -8.427  -2.820  0.00  0.00    -0.004 C 
ATOM     26  C   UNL     1       3.764  -8.707  -3.939  0.00  0.00    -0.019 C 
ATOM     27  C   UNL     1       3.097  -7.394  -4.356  0.00  0.00    -0.079 C 
ATOM     28  H   UNL     1       1.734  -7.471  -2.841  0.00  0.00    -0.082 HD
ENDBRANCH  21  22
ENDBRANCH  18  21
ENDBRANCH  17  18
ENDBRANCH  15  17
ENDBRANCH   1  15
TORSDOF 9
