REMARK  Name = ZINC39542029
REMARK  11 active torsions:
REMARK  status: ('A' for Active; 'I' for Inactive)
REMARK    1  A    between atoms: C_1  and  C_2
REMARK    2  A    between atoms: C_2  and  O_3
REMARK    3  A    between atoms: O_3  and  C_4
REMARK    4  A    between atoms: C_8  and  C_11
REMARK    5  A    between atoms: C_9  and  O_10
REMARK    6  A    between atoms: C_11  and  N_12
REMARK    7  A    between atoms: N_15  and  C_22
REMARK    8  A    between atoms: C_16  and  C_19
REMARK    9  A    between atoms: C_19  and  C_20
REMARK   10  A    between atoms: C_20  and  O_21
REMARK   11  A    between atoms: C_22  and  C_23
REMARK                            x       y       z     vdW  Elec       q    Type
REMARK                         _______ _______ _______ _____ _____    ______ ____
ROOT
ATOM      1  N   UNL     1       1.482  -4.101   4.973  0.00  0.00    +0.384 N 
ATOM      2  C   UNL     1       1.130  -2.696   5.219  0.00  0.00    -0.063 C 
ATOM      3  C   UNL     1       0.161  -2.613   6.401  0.00  0.00    +0.066 C 
ATOM      4  N   UNL     1       0.795  -3.194   7.593  0.00  0.00    -0.299 NA
ATOM      5  C   UNL     1       1.175  -4.593   7.352  0.00  0.00    +0.043 C 
ATOM      6  C   UNL     1       2.136  -4.660   6.163  0.00  0.00    -0.059 C 
ATOM      7  H   UNL     1       0.644  -4.627   4.771  0.00  0.00    -0.081 HD
ENDROOT
BRANCH   1   8
ATOM      8  C   UNL     1       2.398  -4.182   3.827  0.00  0.00    -0.039 C 
BRANCH   8  13
ATOM      9  C   UNL     1       0.123  -4.170   0.801  0.00  0.00    +0.162 A 
ATOM     10  C   UNL     1       0.368  -2.909   0.282  0.00  0.00    +0.049 A 
ATOM     11  C   UNL     1       1.267  -2.066   0.910  0.00  0.00    +0.004 A 
ATOM     12  C   UNL     1       1.922  -2.478   2.055  0.00  0.00    +0.005 A 
ATOM     13  C   UNL     1       1.682  -3.735   2.578  0.00  0.00    -0.019 A 
ATOM     14  C   UNL     1       0.778  -4.583   1.958  0.00  0.00    +0.160 A 
BRANCH  14  15
ATOM     15  O   UNL     1       0.536  -5.817   2.474  0.00  0.00    -0.503 OA
ATOM     16  H   UNL     1       1.167  -6.493   2.191  0.00  0.00    +0.292 HD
ENDBRANCH  14  15
BRANCH   9  17
ATOM     17  O   UNL     1      -0.761  -5.000   0.186  0.00  0.00    -0.489 OA
BRANCH  17  19
ATOM     18  C   UNL     1      -2.348  -5.575  -1.544  0.00  0.00    +0.048 C 
ATOM     19  C   UNL     1      -1.396  -4.510  -0.997  0.00  0.00    +0.226 C 
ENDBRANCH  17  19
ENDBRANCH   9  17
ENDBRANCH   8  13
ENDBRANCH   1   8
BRANCH   5  20
ATOM     20  C   UNL     1       1.864  -5.156   8.597  0.00  0.00    +0.045 C 
BRANCH  20  21
ATOM     21  C   UNL     1       2.196  -6.632   8.372  0.00  0.00    +0.157 C 
BRANCH  21  22
ATOM     22  O   UNL     1       2.728  -7.189   9.576  0.00  0.00    -0.395 OA
ATOM     23  H   UNL     1       2.962  -8.125   9.507  0.00  0.00    +0.209 HD
ENDBRANCH  21  22
ENDBRANCH  20  21
ENDBRANCH   5  20
BRANCH   4  24
ATOM     24  C   UNL     1      -0.084  -3.081   8.764  0.00  0.00    +0.122 C 
BRANCH  24  25
ATOM     25  C   UNL     1      -0.178  -1.637   9.185  0.00  0.00    +0.002 A 
ATOM     26  C   UNL     1       0.585  -1.175  10.241  0.00  0.00    +0.008 A 
ATOM     27  C   UNL     1       0.500   0.150  10.628  0.00  0.00    +0.000 A 
ATOM     28  C   UNL     1      -0.349   1.013   9.959  0.00  0.00    +0.003 A 
ATOM     29  C   UNL     1      -1.112   0.553   8.903  0.00  0.00    +0.038 A 
ATOM     30  C   UNL     1      -1.023  -0.773   8.511  0.00  0.00    +0.128 A 
ATOM     31  F   UNL     1      -1.765  -1.223   7.476  0.00  0.00    -0.205 F 
ENDBRANCH  24  25
ENDBRANCH   4  24
TORSDOF 10
