REMARK  Name = ZINC59170679
REMARK  11 active torsions:
REMARK  status: ('A' for Active; 'I' for Inactive)
REMARK    1  A    between atoms: C_1  and  C_2
REMARK    2  A    between atoms: C_5  and  S_8
REMARK    3  A    between atoms: S_8  and  N_11
REMARK    4  A    between atoms: N_11  and  N_12
REMARK    5  A    between atoms: C_14  and  C_28
REMARK    6  A    between atoms: C_18  and  C_24
REMARK    7  A    between atoms: C_20  and  O_23
REMARK    8  A    between atoms: C_24  and  C_25
REMARK    9  A    between atoms: C_24  and  C_26
REMARK   10  A    between atoms: C_24  and  C_27
REMARK   11  A    between atoms: N_30  and  C_31
REMARK                            x       y       z     vdW  Elec       q    Type
REMARK                         _______ _______ _______ _____ _____    ______ ____
ROOT
ATOM      1  N   UNL     1       3.299  -3.612  -0.171  0.00  0.00    -0.260 N 
ATOM      2  C   UNL     1       4.391  -4.287   0.054  0.00  0.00    +0.225 A 
ATOM      3  C   UNL     1       5.050  -4.253   1.381  0.00  0.00    +0.099 A 
ATOM      4  C   UNL     1       5.808  -5.343   1.733  0.00  0.00    +0.030 A 
ATOM      5  C   UNL     1       5.902  -6.448   0.770  0.00  0.00    +0.022 A 
ATOM      6  C   UNL     1       6.423  -7.688   1.155  0.00  0.00    +0.016 A 
ATOM      7  C   UNL     1       6.499  -8.712   0.236  0.00  0.00    -0.038 A 
ATOM      8  C   UNL     1       6.063  -8.521  -1.065  0.00  0.00    +0.053 A 
ATOM      9  C   UNL     1       5.546  -7.298  -1.462  0.00  0.00    +0.160 A 
ATOM     10  C   UNL     1       5.463  -6.253  -0.549  0.00  0.00    +0.179 A 
ATOM     11  O   UNL     1       4.961  -5.051  -0.922  0.00  0.00    -0.434 OA
ATOM     12  H   UNL     1       2.861  -3.142   0.555  0.00  0.00    +0.189 HD
ENDROOT
BRANCH   7  13
ATOM     13  C   UNL     1       7.061 -10.048   0.649  0.00  0.00    -0.013 C 
ATOM     14  C   UNL     1       6.215 -10.628   1.784  0.00  0.00    +0.015 C 
ATOM     15  C   UNL     1       7.035 -11.003  -0.546  0.00  0.00    +0.015 C 
ATOM     16  C   UNL     1       8.503  -9.869   1.128  0.00  0.00    +0.015 C 
ENDBRANCH   7  13
BRANCH   3  17
ATOM     17  C   UNL     1       4.899  -3.100   2.283  0.00  0.00    +0.253 C 
ATOM     18  O   UNL     1       4.158  -2.183   1.980  0.00  0.00    -0.270 OA
ATOM     19  N   UNL     1       5.581  -3.059   3.445  0.00  0.00    -0.281 N 
ATOM     20  H   UNL     1       6.240  -3.742   3.644  0.00  0.00    +0.155 HD
BRANCH  19  21
ATOM     21  C   UNL     1       5.339  -2.031   4.363  0.00  0.00    +0.034 A 
ATOM     22  C   UNL     1       4.066  -1.488   4.479  0.00  0.00    +0.026 A 
ATOM     23  C   UNL     1       3.829  -0.474   5.386  0.00  0.00    +0.040 A 
ATOM     24  C   UNL     1       4.859   0.001   6.180  0.00  0.00    +0.124 A 
ATOM     25  C   UNL     1       6.129  -0.539   6.066  0.00  0.00    +0.040 A 
ATOM     26  C   UNL     1       6.369  -1.557   5.164  0.00  0.00    +0.026 A 
ATOM     27  F   UNL     1       4.625   0.993   7.066  0.00  0.00    -0.205 F 
ENDBRANCH  19  21
ENDBRANCH   3  17
BRANCH   1  28
ATOM     28  N   UNL     1       2.758  -3.567  -1.462  0.00  0.00    -0.157 N 
ATOM     29  H   UNL     1       3.153  -4.095  -2.173  0.00  0.00    +0.194 HD
BRANCH  28  30
ATOM     30  S   UNL     1       1.442  -2.610  -1.776  0.00  0.00    +0.085 S 
ATOM     31  O   UNL     1       0.401  -3.059  -0.919  0.00  0.00    -0.149 OA
ATOM     32  O   UNL     1       1.300  -2.565  -3.189  0.00  0.00    -0.149 OA
BRANCH  30  37
ATOM     33  C   UNL     1       2.840   2.986  -0.005  0.00  0.00    +0.044 C 
ATOM     34  C   UNL     1       2.491   1.588  -0.447  0.00  0.00    -0.050 A 
ATOM     35  C   UNL     1       2.860   1.149  -1.705  0.00  0.00    +0.005 A 
ATOM     36  C   UNL     1       2.540  -0.134  -2.111  0.00  0.00    +0.029 A 
ATOM     37  C   UNL     1       1.851  -0.976  -1.258  0.00  0.00    +0.110 A 
ATOM     38  C   UNL     1       1.483  -0.537  -0.000  0.00  0.00    +0.029 A 
ATOM     39  C   UNL     1       1.807   0.744   0.407  0.00  0.00    +0.005 A 
ENDBRANCH  30  37
ENDBRANCH  28  30
ENDBRANCH   1  28
BRANCH   9  40
ATOM     40  O   UNL     1       5.120  -7.121  -2.741  0.00  0.00    -0.503 OA
ATOM     41  H   UNL     1       4.188  -7.337  -2.879  0.00  0.00    +0.292 HD
ENDBRANCH   9  40
TORSDOF 7
