REMARK  Name = ZINC35486972
REMARK  13 active torsions:
REMARK  status: ('A' for Active; 'I' for Inactive)
REMARK    1  A    between atoms: C_1  and  C_2
REMARK    2  A    between atoms: C_2  and  C_3
REMARK    3  A    between atoms: C_2  and  C_4
REMARK    4  A    between atoms: C_4  and  C_5
REMARK    5  A    between atoms: C_5  and  O_6
REMARK    6  A    between atoms: O_6  and  C_7
REMARK    7  A    between atoms: C_11  and  C_13
REMARK    8  A    between atoms: N_28  and  C_29
REMARK    9  A    between atoms: C_29  and  C_30
REMARK   10  A    between atoms: C_30  and  C_31
REMARK   11  A    between atoms: C_31  and  N_32
REMARK   12  A    between atoms: N_32  and  C_33
REMARK   13  A    between atoms: N_32  and  C_34
REMARK                            x       y       z     vdW  Elec       q    Type
REMARK                         _______ _______ _______ _____ _____    ______ ____
ROOT
ATOM      1  C   UNL     1      -5.739  -6.409  -0.341  0.00  0.00    +0.145 C 
ATOM      2  C   UNL     1      -6.046  -7.007   0.992  0.00  0.00    +0.072 A 
ATOM      3  C   UNL     1      -6.114  -6.406   2.328  0.00  0.00    +0.199 A 
ATOM      4  O   UNL     1      -6.084  -5.203   2.521  0.00  0.00    -0.287 OA
ATOM      5  C   UNL     1      -6.224  -7.402   3.424  0.00  0.00    +0.065 A 
ATOM      6  C   UNL     1      -6.099  -7.005   4.755  0.00  0.00    +0.030 A 
ATOM      7  C   UNL     1      -6.198  -7.944   5.758  0.00  0.00    +0.019 A 
ATOM      8  C   UNL     1      -6.421  -9.278   5.442  0.00  0.00    +0.019 A 
ATOM      9  C   UNL     1      -6.547  -9.681   4.132  0.00  0.00    +0.048 A 
ATOM     10  C   UNL     1      -6.454  -8.749   3.099  0.00  0.00    +0.140 A 
ATOM     11  O   UNL     1      -6.592  -9.171   1.821  0.00  0.00    -0.450 OA
ATOM     12  C   UNL     1      -6.279  -8.340   0.807  0.00  0.00    +0.199 A 
ATOM     13  C   UNL     1      -6.126  -8.641  -0.627  0.00  0.00    +0.283 C 
ATOM     14  O   UNL     1      -6.264  -9.740  -1.126  0.00  0.00    -0.267 OA
ATOM     15  N   UNL     1      -5.812  -7.517  -1.307  0.00  0.00    -0.284 N 
ATOM     16 BR   UNL     1      -6.031  -7.417   7.566  0.00  0.00    -0.050 Br
ENDROOT
BRANCH   1  21
ATOM     17  C   UNL     1      -2.919  -3.897  -0.222  0.00  0.00    +0.121 A 
ATOM     18  C   UNL     1      -1.810  -4.724  -0.333  0.00  0.00    +0.045 A 
ATOM     19  C   UNL     1      -1.978  -6.090  -0.445  0.00  0.00    +0.004 A 
ATOM     20  C   UNL     1      -3.249  -6.634  -0.448  0.00  0.00    +0.006 A 
ATOM     21  C   UNL     1      -4.355  -5.812  -0.338  0.00  0.00    -0.019 A 
ATOM     22  C   UNL     1      -4.193  -4.446  -0.220  0.00  0.00    +0.051 A 
BRANCH  17  23
ATOM     23  O   UNL     1      -2.756  -2.552  -0.111  0.00  0.00    -0.492 OA
BRANCH  23  24
ATOM     24  C   UNL     1      -1.416  -2.058  -0.121  0.00  0.00    +0.229 C 
BRANCH  24  25
ATOM     25  C   UNL     1      -1.433  -0.534   0.013  0.00  0.00    +0.044 C 
BRANCH  25  27
ATOM     26  C   UNL     1      -0.019   1.526   0.010  0.00  0.00    +0.007 C 
ATOM     27  C   UNL     1       0.002  -0.004   0.002  0.00  0.00    -0.014 C 
ATOM     28  C   UNL     1       0.742  -0.511   1.242  0.00  0.00    +0.007 C 
ENDBRANCH  25  27
ENDBRANCH  24  25
ENDBRANCH  23  24
ENDBRANCH  17  23
ENDBRANCH   1  21
BRANCH  15  29
ATOM     29  C   UNL     1      -5.585  -7.418  -2.751  0.00  0.00    +0.107 C 
BRANCH  29  30
ATOM     30  C   UNL     1      -4.103  -7.652  -3.051  0.00  0.00    +0.000 C 
BRANCH  30  31
ATOM     31  C   UNL     1      -3.865  -7.548  -4.559  0.00  0.00    -0.078 C 
BRANCH  31  32
ATOM     32  N   UNL     1      -2.443  -7.773  -4.847  0.00  0.00    +0.376 N 
ATOM     33  C   UNL     1      -2.235  -7.792  -6.301  0.00  0.00    -0.097 C 
ATOM     34  C   UNL     1      -1.646  -6.691  -4.252  0.00  0.00    -0.097 C 
ATOM     35  H   UNL     1      -2.156  -8.657  -4.454  0.00  0.00    -0.083 HD
ENDBRANCH  31  32
ENDBRANCH  30  31
ENDBRANCH  29  30
ENDBRANCH  15  29
TORSDOF 9
