REMARK  Name = ZINC34757008
REMARK  6 active torsions:
REMARK  status: ('A' for Active; 'I' for Inactive)
REMARK    1  A    between atoms: C_1  and  C_2
REMARK    2  A    between atoms: C_6  and  S_8
REMARK    3  A    between atoms: S_8  and  N_11
REMARK    4  A    between atoms: C_16  and  O_27
REMARK    5  A    between atoms: N_23  and  C_26
REMARK    6  A    between atoms: O_27  and  C_28
REMARK                            x       y       z     vdW  Elec       q    Type
REMARK                         _______ _______ _______ _____ _____    ______ ____
ROOT
ATOM      1  N   UNL     1       1.685  -2.984   2.794  0.00  0.00    -0.172 NA
ATOM      2  C   UNL     1       2.212  -4.355   2.702  0.00  0.00    +0.116 C 
ATOM      3  C   UNL     1       3.681  -4.271   2.286  0.00  0.00    +0.073 C 
ATOM      4  C   UNL     1       4.411  -3.248   3.112  0.00  0.00    +0.056 A 
ATOM      5  C   UNL     1       3.768  -2.247   3.800  0.00  0.00    +0.052 A 
ATOM      6  C   UNL     1       4.535  -1.333   4.528  0.00  0.00    +0.230 A 
ATOM      7  N   UNL     1       5.856  -1.461   4.543  0.00  0.00    -0.179 NA
ATOM      8  C   UNL     1       6.441  -2.444   3.875  0.00  0.00    +0.221 A 
ATOM      9  N   UNL     1       5.739  -3.319   3.174  0.00  0.00    -0.219 NA
ATOM     10  N   UNL     1       7.819  -2.559   3.911  0.00  0.00    -0.303 N 
ATOM     11  C   UNL     1       8.501  -3.697   3.277  0.00  0.00    +0.089 C 
ATOM     12  C   UNL     1       9.617  -3.156   2.378  0.00  0.00    -0.060 C 
ATOM     13  N   UNL     1      10.498  -2.284   3.165  0.00  0.00    +0.380 N 
ATOM     14  C   UNL     1       9.754  -1.105   3.624  0.00  0.00    -0.060 C 
ATOM     15  C   UNL     1       8.645  -1.542   4.580  0.00  0.00    +0.089 C 
ATOM     16  C   UNL     1      11.629  -1.853   2.332  0.00  0.00    -0.096 C 
ATOM     17  C   UNL     1       2.274  -2.101   3.808  0.00  0.00    +0.151 C 
ATOM     18  H   UNL     1      10.847  -2.793   3.963  0.00  0.00    -0.082 HD
ENDROOT
BRANCH   1  19
ATOM     19  S   UNL     1       0.479  -2.456   1.789  0.00  0.00    +0.061 S 
ATOM     20  O   UNL     1      -0.160  -1.375   2.454  0.00  0.00    -0.153 OA
ATOM     21  O   UNL     1      -0.227  -3.612   1.360  0.00  0.00    -0.153 OA
BRANCH  19  27
ATOM     22  C   UNL     1       2.559   1.555  -0.840  0.00  0.00    +0.044 C 
ATOM     23  C   UNL     1       2.194   0.093  -0.801  0.00  0.00    -0.049 A 
ATOM     24  C   UNL     1       2.466  -0.717  -1.888  0.00  0.00    +0.003 A 
ATOM     25  C   UNL     1       2.131  -2.057  -1.852  0.00  0.00    +0.002 A 
ATOM     26  C   UNL     1       1.524  -2.588  -0.729  0.00  0.00    +0.028 A 
ATOM     27  C   UNL     1       1.253  -1.779   0.358  0.00  0.00    +0.106 A 
ATOM     28  C   UNL     1       1.592  -0.439   0.324  0.00  0.00    +0.032 A 
ENDBRANCH  19  27
ENDBRANCH   1  19
BRANCH   6  29
ATOM     29  O   UNL     1       3.937  -0.327   5.212  0.00  0.00    -0.435 OA
BRANCH  29  30
ATOM     30  C   UNL     1       4.729   0.525   5.916  0.00  0.00    +0.165 A 
ATOM     31  C   UNL     1       5.998   0.836   5.453  0.00  0.00    +0.049 A 
ATOM     32  C   UNL     1       6.801   1.703   6.170  0.00  0.00    +0.004 A 
ATOM     33  C   UNL     1       6.340   2.260   7.349  0.00  0.00    +0.003 A 
ATOM     34  C   UNL     1       5.075   1.952   7.814  0.00  0.00    +0.042 A 
ATOM     35  C   UNL     1       4.265   1.090   7.097  0.00  0.00    +0.165 A 
ATOM     36  F   UNL     1       3.026   0.794   7.548  0.00  0.00    -0.202 F 
ENDBRANCH  29  30
ENDBRANCH   6  29
TORSDOF 4
