REMARK  Name = ZINC65734968
REMARK  8 active torsions:
REMARK  status: ('A' for Active; 'I' for Inactive)
REMARK    1  A    between atoms: C_1  and  C_2
REMARK    2  A    between atoms: C_2  and  C_3
REMARK    3  A    between atoms: C_2  and  C_13
REMARK    4  A    between atoms: C_2  and  N_16
REMARK    5  A    between atoms: C_3  and  C_4
REMARK    6  A    between atoms: C_6  and  O_12
REMARK    7  A    between atoms: C_7  and  O_11
REMARK    8  A    between atoms: N_16  and  N_17
REMARK                            x       y       z     vdW  Elec       q    Type
REMARK                         _______ _______ _______ _____ _____    ______ ____
ROOT
ATOM      1  C   UNL     1       0.387  -0.854   1.222  0.00  0.00    +0.037 C 
ENDROOT
BRANCH   1   2
ATOM      2  C   UNL     1       1.885  -0.867   1.383  0.00  0.00    -0.030 A 
ATOM      3  C   UNL     1       2.637  -1.845   0.759  0.00  0.00    +0.053 A 
ATOM      4  C   UNL     1       4.015  -1.859   0.905  0.00  0.00    +0.159 A 
ATOM      5  C   UNL     1       4.639  -0.886   1.682  0.00  0.00    +0.159 A 
ATOM      6  C   UNL     1       3.880   0.091   2.304  0.00  0.00    +0.064 A 
ATOM      7  C   UNL     1       2.505   0.102   2.150  0.00  0.00    +0.025 A 
ATOM      8 BR   UNL     1       1.472   1.441   2.995  0.00  0.00    -0.050 Br
BRANCH   5   9
ATOM      9  O   UNL     1       5.991  -0.896   1.829  0.00  0.00    -0.503 OA
ATOM     10  H   UNL     1       6.463  -0.383   1.159  0.00  0.00    +0.292 HD
ENDBRANCH   5   9
BRANCH   4  11
ATOM     11  O   UNL     1       4.756  -2.821   0.292  0.00  0.00    -0.503 OA
ATOM     12  H   UNL     1       5.051  -2.582  -0.597  0.00  0.00    +0.292 HD
ENDBRANCH   4  11
ENDBRANCH   1   2
BRANCH   1  14
ATOM     13  C   UNL     1       0.630   1.377   0.124  0.00  0.00    +0.005 C 
ATOM     14  C   UNL     1       0.013  -0.017  -0.003  0.00  0.00    +0.054 C 
BRANCH  14  15
ATOM     15  C   UNL     1       0.536  -0.686  -1.248  0.00  0.00    +0.348 C 
ATOM     16  O   UNL     1       1.726  -0.643  -1.508  0.00  0.00    -0.248 OA
ATOM     17  O   UNL     1      -0.231  -1.270  -1.994  0.00  0.00    -0.248 OA
ENDBRANCH  14  15
BRANCH  14  18
ATOM     18  N   UNL     1      -1.449   0.101  -0.088  0.00  0.00    +0.397 N 
ATOM     19  H   UNL     1      -1.856  -0.818  -0.172  0.00  0.00    -0.060 HD
ATOM     20  H   UNL     1      -1.799   0.549   0.746  0.00  0.00    -0.060 HD
BRANCH  18  21
ATOM     21  N   UNL     1      -1.804   0.897  -1.252  0.00  0.00    -0.380 NA
ATOM     22  H   UNL     1      -1.410   0.503  -2.093  0.00  0.00    +0.098 HD
ATOM     23  H   UNL     1      -2.806   0.992  -1.332  0.00  0.00    +0.098 HD
ENDBRANCH  18  21
ENDBRANCH  14  18
ENDBRANCH   1  14
TORSDOF 7
