REMARK  Name = ZINC39946149
REMARK  8 active torsions:
REMARK  status: ('A' for Active; 'I' for Inactive)
REMARK    1  A    between atoms: C_7  and  C_10
REMARK    2  A    between atoms: C_10  and  C_12
REMARK    3  A    between atoms: C_12  and  O_13
REMARK    4  A    between atoms: O_13  and  C_14
REMARK    5  A    between atoms: C_14  and  C_16
REMARK    6  A    between atoms: C_18  and  S_28
REMARK    7  A    between atoms: C_21  and  N_22
REMARK    8  A    between atoms: S_28  and  N_31
REMARK                            x       y       z     vdW  Elec       q    Type
REMARK                         _______ _______ _______ _____ _____    ______ ____
ROOT
ATOM      1  C   UNL     1      -0.679  -7.785  -0.033  0.00  0.00    +0.082 A 
ATOM      2  C   UNL     1      -2.018  -7.382  -0.024  0.00  0.00    +0.045 A 
ATOM      3  C   UNL     1      -3.019  -8.328  -0.019  0.00  0.00    +0.106 A 
ATOM      4  C   UNL     1      -2.708  -9.679  -0.024  0.00  0.00    +0.030 A 
ATOM      5  C   UNL     1      -1.392 -10.092  -0.032  0.00  0.00    +0.026 A 
ATOM      6  C   UNL     1      -0.367  -9.154  -0.043  0.00  0.00    +0.044 A 
ENDROOT
BRANCH   6   7
ATOM      7  N   UNL     1       0.958  -9.568  -0.057  0.00  0.00    -0.329 N 
ATOM      8  C   UNL     1       1.683  -9.803   1.200  0.00  0.00    +0.105 C 
ATOM      9  C   UNL     1       2.281 -11.213   1.167  0.00  0.00    +0.019 C 
ATOM     10  C   UNL     1       3.138 -11.370  -0.091  0.00  0.00    +0.003 C 
ATOM     11  C   UNL     1       2.262 -11.189  -1.333  0.00  0.00    +0.019 C 
ATOM     12  C   UNL     1       1.661  -9.784  -1.329  0.00  0.00    +0.105 C 
ENDBRANCH   6   7
BRANCH   3  13
ATOM     13  S   UNL     1      -4.705  -7.817  -0.008  0.00  0.00    +0.061 S 
ATOM     14  O   UNL     1      -5.452  -8.893   0.545  0.00  0.00    -0.153 OA
ATOM     15  O   UNL     1      -4.730  -6.509   0.545  0.00  0.00    -0.153 OA
BRANCH  13  16
ATOM     16  N   UNL     1      -5.184  -7.673  -1.587  0.00  0.00    -0.172 NA
ATOM     17  C   UNL     1      -5.032  -6.401  -2.311  0.00  0.00    +0.137 C 
ATOM     18  C   UNL     1      -4.327  -6.684  -3.643  0.00  0.00    +0.177 C 
ATOM     19  O   UNL     1      -5.022  -7.727  -4.330  0.00  0.00    -0.377 OA
ATOM     20  C   UNL     1      -5.033  -8.978  -3.639  0.00  0.00    +0.177 C 
ATOM     21  C   UNL     1      -5.768  -8.814  -2.309  0.00  0.00    +0.137 C 
ENDBRANCH  13  16
ENDBRANCH   3  13
BRANCH   1  22
ATOM     22  C   UNL     1       0.398  -6.779  -0.037  0.00  0.00    +0.341 C 
ATOM     23  O   UNL     1       1.560  -7.134  -0.050  0.00  0.00    -0.245 OA
BRANCH  22  24
ATOM     24  O   UNL     1       0.093  -5.467  -0.028  0.00  0.00    -0.453 OA
BRANCH  24  25
ATOM     25  C   UNL     1       1.187  -4.547  -0.033  0.00  0.00    +0.311 C 
BRANCH  25  26
ATOM     26  C   UNL     1       0.657  -3.136  -0.021  0.00  0.00    +0.199 C 
ATOM     27  O   UNL     1      -0.541  -2.938  -0.009  0.00  0.00    -0.289 OA
BRANCH  26  34
ATOM     28  C   UNL     1      -0.016   1.348   0.009  0.00  0.00    +0.001 A 
ATOM     29  C   UNL     1       1.158   2.117   0.002  0.00  0.00    +0.002 A 
ATOM     30  C   UNL     1       2.384   1.551  -0.012  0.00  0.00    +0.026 A 
ATOM     31  C   UNL     1       2.494   0.083  -0.021  0.00  0.00    +0.043 A 
ATOM     32  N   UNL     1       3.525  -0.712  -0.035  0.00  0.00    -0.380 N 
ATOM     33  C   UNL     1       3.065  -2.104  -0.039  0.00  0.00    +0.152 C 
ATOM     34  C   UNL     1       1.553  -2.046  -0.024  0.00  0.00    +0.026 C 
ATOM     35  C   UNL     1       1.234  -0.700  -0.013  0.00  0.00    +0.006 A 
ATOM     36  C   UNL     1       0.002  -0.004   0.002  0.00  0.00    +0.010 A 
ATOM     37  H   UNL     1       4.453  -0.428  -0.043  0.00  0.00    +0.160 HD
ENDBRANCH  26  34
ENDBRANCH  25  26
ENDBRANCH  24  25
ENDBRANCH  22  24
ENDBRANCH   1  22
TORSDOF 8
