REMARK  Name = ZINC39096264
REMARK  3 active torsions:
REMARK  status: ('A' for Active; 'I' for Inactive)
REMARK    1  A    between atoms: C_3  and  O_15
REMARK    2  A    between atoms: C_4  and  O_14
REMARK    3  A    between atoms: C_8  and  C_12
REMARK                            x       y       z     vdW  Elec       q    Type
REMARK                         _______ _______ _______ _____ _____    ______ ____
ROOT
ATOM      1  C   UNL     1      -0.017   1.398   0.010  0.00  0.00    +0.015 A 
ATOM      2  C   UNL     1       1.156   2.096   0.002  0.00  0.00    +0.050 A 
ATOM      3  C   UNL     1       2.376   1.428  -0.024  0.00  0.00    +0.162 A 
ATOM      4  C   UNL     1       2.417   0.039  -0.056  0.00  0.00    +0.202 A 
ATOM      5  C   UNL     1       1.233  -0.685  -0.055  0.00  0.00    +0.182 A 
ATOM      6  C   UNL     1       0.002  -0.004   0.002  0.00  0.00    +0.023 A 
ATOM      7  C   UNL     1      -1.212  -0.739   0.046  0.00  0.00    +0.035 A 
ATOM      8  C   UNL     1      -1.142  -2.109   0.241  0.00  0.00    +0.112 A 
ATOM      9  C   UNL     1       0.203  -2.701   0.423  0.00  0.00    +0.210 A 
ATOM     10  N   UNL     1       0.367  -3.818   1.080  0.00  0.00    -0.369 N 
ATOM     11  O   UNL     1       1.260  -2.041  -0.118  0.00  0.00    -0.435 OA
ATOM     12  H   UNL     1      -0.401  -4.276   1.458  0.00  0.00    +0.159 HD
ATOM     13  H   UNL     1       1.256  -4.191   1.189  0.00  0.00    +0.159 HD
ENDROOT
BRANCH   8  14
ATOM     14  C   UNL     1      -2.322  -2.919   0.267  0.00  0.00    +0.104 C 
ATOM     15  N   UNL     1      -3.259  -3.561   0.287  0.00  0.00    -0.191 NA
ENDBRANCH   8  14
BRANCH   4  16
ATOM     16  O   UNL     1       3.613  -0.609  -0.089  0.00  0.00    -0.501 OA
ATOM     17  H   UNL     1       3.973  -0.817   0.784  0.00  0.00    +0.292 HD
ENDBRANCH   4  16
BRANCH   3  18
ATOM     18  O   UNL     1       3.535   2.137  -0.018  0.00  0.00    -0.503 OA
ATOM     19  H   UNL     1       3.878   2.322   0.867  0.00  0.00    +0.292 HD
ENDBRANCH   3  18
TORSDOF 3
