REMARK  Name = ZINC40780132
REMARK  4 active torsions:
REMARK  status: ('A' for Active; 'I' for Inactive)
REMARK    1  A    between atoms: C_1  and  C_2
REMARK    2  A    between atoms: C_3  and  C_25
REMARK    3  A    between atoms: C_9  and  N_24
REMARK    4  A    between atoms: C_10  and  N_14
REMARK                            x       y       z     vdW  Elec       q    Type
REMARK                         _______ _______ _______ _____ _____    ______ ____
ROOT
ATOM      1  C   UNL     1       0.057   1.490   0.001  0.00  0.00    +0.066 C 
ATOM      2  C   UNL     1       0.090  -0.017  -0.003  0.00  0.00    +0.050 A 
ATOM      3  C   UNL     1       0.124  -0.721  -1.160  0.00  0.00    +0.011 A 
ATOM      4  S   UNL     1       0.149  -2.392  -0.533  0.00  0.00    -0.057 S 
ATOM      5  C   UNL     1       0.114  -2.025   1.109  0.00  0.00    +0.164 A 
ATOM      6  N   UNL     1       0.092  -0.709   1.122  0.00  0.00    -0.230 NA
ATOM      7  N   UNL     1       0.115  -2.897   2.188  0.00  0.00    -0.277 N 
ATOM      8  C   UNL     1       0.083  -2.399   3.486  0.00  0.00    +0.150 A 
ATOM      9  C   UNL     1       0.089  -3.267   4.579  0.00  0.00    +0.104 A 
ATOM     10  C   UNL     1       0.056  -2.713   5.861  0.00  0.00    +0.129 A 
ATOM     11  N   UNL     1       0.020  -1.389   5.990  0.00  0.00    -0.332 N 
ATOM     12  C   UNL     1       0.015  -0.605   4.931  0.00  0.00    +0.200 A 
ATOM     13  N   UNL     1       0.051  -1.087   3.705  0.00  0.00    -0.221 NA
ATOM     14  C   UNL     1       0.137  -0.228  -2.585  0.00  0.00    +0.053 C 
ATOM     15  H   UNL     1       0.138  -3.855   2.037  0.00  0.00    +0.156 HD
ATOM     16  H   UNL     1      -0.004  -0.996   6.876  0.00  0.00    +0.168 HD
ENDROOT
BRANCH  10  17
ATOM     17  N   UNL     1       0.060  -3.533   6.984  0.00  0.00    -0.285 N 
ATOM     18  C   UNL     1       1.320  -3.859   7.666  0.00  0.00    +0.113 C 
ATOM     19  C   UNL     1       1.312  -5.362   7.973  0.00  0.00    +0.024 C 
ATOM     20  C   UNL     1       0.165  -5.663   8.938  0.00  0.00    +0.038 C 
ATOM     21  C   UNL     1      -1.125  -5.084   8.420  0.00  0.00    -0.026 A 
ATOM     22  C   UNL     1      -1.137  -4.056   7.487  0.00  0.00    +0.038 A 
ATOM     23  C   UNL     1      -2.345  -3.537   7.037  0.00  0.00    +0.024 A 
ATOM     24  C   UNL     1      -3.537  -4.042   7.518  0.00  0.00    +0.002 A 
ATOM     25  C   UNL     1      -3.526  -5.064   8.449  0.00  0.00    +0.000 A 
ATOM     26  C   UNL     1      -2.324  -5.589   8.894  0.00  0.00    +0.005 A 
ENDBRANCH  10  17
BRANCH   9  27
ATOM     27  N   UNL     1       0.128  -4.658   4.395  0.00  0.00    -0.353 N 
ATOM     28  H   UNL     1       0.065  -5.031   3.502  0.00  0.00    +0.143 HD
ATOM     29  H   UNL     1       0.217  -5.246   5.162  0.00  0.00    +0.143 HD
ENDBRANCH   9  27
TORSDOF 2
