REMARK  Name = ZINC08684789
REMARK  6 active torsions:
REMARK  status: ('A' for Active; 'I' for Inactive)
REMARK    1  A    between atoms: C_1  and  C_2
REMARK    2  A    between atoms: C_5  and  C_8
REMARK    3  A    between atoms: C_8  and  C_10
REMARK    4  A    between atoms: C_12  and  C_30
REMARK    5  A    between atoms: C_22  and  C_29
REMARK    6  A    between atoms: C_34  and  N_36
REMARK                            x       y       z     vdW  Elec       q    Type
REMARK                         _______ _______ _______ _____ _____    ______ ____
ROOT
ATOM      1  C   UNL     1      -1.830   2.560   1.044  0.00  0.00    +0.069 C 
ATOM      2  C   UNL     1      -0.701   1.559   1.302  0.00  0.00    +0.016 C 
ATOM      3  C   UNL     1      -0.062   1.308  -0.074  0.00  0.00    -0.047 C 
ATOM      4  C   UNL     1       1.332   1.978  -0.115  0.00  0.00    +0.052 C 
ATOM      5  S   UNL     1       1.356   2.556  -1.871  0.00  0.00    -0.181 S 
ATOM      6  C   UNL     1      -0.466   2.808  -2.034  0.00  0.00    -0.005 C 
ATOM      7  C   UNL     1      -2.202   2.298  -0.420  0.00  0.00    +0.052 C 
ATOM      8  C   UNL     1      -2.714   3.548  -1.082  0.00  0.00    -0.027 A 
ATOM      9  C   UNL     1      -2.164   4.790  -1.310  0.00  0.00    +0.008 A 
ATOM     10  C   UNL     1      -2.900   5.763  -1.963  0.00  0.00    -0.050 A 
ATOM     11  C   UNL     1      -4.188   5.485  -2.385  0.00  0.00    +0.005 A 
ATOM     12  C   UNL     1      -4.742   4.243  -2.157  0.00  0.00    +0.024 A 
ATOM     13  C   UNL     1      -4.008   3.257  -1.501  0.00  0.00    +0.036 A 
ATOM     14  N   UNL     1      -4.343   1.945  -1.159  0.00  0.00    -0.286 N 
ATOM     15  C   UNL     1      -3.338   1.314  -0.522  0.00  0.00    +0.212 C 
ATOM     16  O   UNL     1      -3.347   0.174  -0.110  0.00  0.00    -0.277 OA
ATOM     17  C   UNL     1      -2.300   7.123  -2.213  0.00  0.00    +0.044 C 
ATOM     18  H   UNL     1      -5.200   1.536  -1.357  0.00  0.00    +0.155 HD
ATOM     19  N   UNL     1      -1.032   1.758  -1.101  0.00  0.00    +0.401 N 
ATOM     20  H   UNL     1      -1.312   0.945  -1.663  0.00  0.00    -0.078 HD
ENDROOT
BRANCH   2  21
ATOM     21  C   UNL     1       0.306   2.159   2.249  0.00  0.00    -0.043 A 
ATOM     22  C   UNL     1       0.511   3.527   2.263  0.00  0.00    +0.004 A 
ATOM     23  C   UNL     1       1.434   4.078   3.132  0.00  0.00    +0.002 A 
ATOM     24  C   UNL     1       2.153   3.262   3.986  0.00  0.00    +0.033 A 
ATOM     25  C   UNL     1       1.947   1.895   3.972  0.00  0.00    +0.126 A 
ATOM     26  C   UNL     1       1.020   1.344   3.107  0.00  0.00    +0.036 A 
BRANCH  25  27
ATOM     27  N   UNL     1       2.716   1.022   4.887  0.00  0.00    +0.056 N 
ATOM     28  O   UNL     1       3.530   1.507   5.652  0.00  0.00    -0.126 OA
ATOM     29  O   UNL     1       2.534  -0.183   4.875  0.00  0.00    -0.126 OA
ENDBRANCH  25  27
ENDBRANCH   2  21
BRANCH   1  30
ATOM     30  C   UNL     1      -3.002   2.276   1.948  0.00  0.00    +0.166 C 
ATOM     31  O   UNL     1      -3.158   1.165   2.407  0.00  0.00    -0.292 OA
BRANCH  30  36
ATOM     32  C   UNL     1      -6.733   6.461   3.219  0.00  0.00    +0.044 C 
ATOM     33  C   UNL     1      -5.755   5.364   2.886  0.00  0.00    -0.050 A 
ATOM     34  C   UNL     1      -5.937   4.096   3.412  0.00  0.00    +0.004 A 
ATOM     35  C   UNL     1      -5.046   3.087   3.112  0.00  0.00    +0.011 A 
ATOM     36  C   UNL     1      -3.958   3.347   2.274  0.00  0.00    +0.018 A 
ATOM     37  C   UNL     1      -3.778   4.632   1.751  0.00  0.00    +0.011 A 
ATOM     38  C   UNL     1      -4.680   5.629   2.056  0.00  0.00    +0.004 A 
ENDBRANCH  30  36
ENDBRANCH   1  30
TORSDOF 4
