REMARK  Name = ZINC00031947
REMARK  3 active torsions:
REMARK  status: ('A' for Active; 'I' for Inactive)
REMARK    1  A    between atoms: C_4  and  C_7
REMARK    2  A    between atoms: C_10  and  C_18
REMARK    3  A    between atoms: C_23  and  O_24
REMARK                            x       y       z     vdW  Elec       q    Type
REMARK                         _______ _______ _______ _____ _____    ______ ____
ROOT
ATOM      1  C   UNL     1       3.711  -0.707  -0.038  0.00  0.00    +0.147 C 
ATOM      2  C   UNL     1       3.791  -1.597  -1.284  0.00  0.00    +0.088 C 
ATOM      3  C   UNL     1       2.966  -2.841  -1.112  0.00  0.00    +0.058 C 
ATOM      4  N   UNL     1       2.818  -3.434   0.043  0.00  0.00    -0.217 NA
ATOM      5  C   UNL     1       3.373  -2.865   1.146  0.00  0.00    +0.228 A 
ATOM      6  N   UNL     1       3.812  -1.568   1.141  0.00  0.00    -0.221 N 
ATOM      7  N   UNL     1       4.320  -1.310   2.410  0.00  0.00    -0.134 NA
ATOM      8  C   UNL     1       4.158  -2.412   3.114  0.00  0.00    +0.211 A 
ATOM      9  N   UNL     1       3.575  -3.345   2.348  0.00  0.00    -0.296 N 
ATOM     10  N   UNL     1       4.535  -2.580   4.447  0.00  0.00    -0.328 N 
ATOM     11  H   UNL     1       4.953  -1.850   4.929  0.00  0.00    +0.145 HD
ATOM     12  H   UNL     1       4.378  -3.428   4.892  0.00  0.00    +0.145 HD
ATOM     13  H   UNL     1       3.339  -4.240   2.639  0.00  0.00    +0.172 HD
ENDROOT
BRANCH   1  17
ATOM     14  C   UNL     1      -0.017   1.378   0.010  0.00  0.00    +0.000 A 
ATOM     15  C   UNL     1       1.171   2.086   0.002  0.00  0.00    +0.000 A 
ATOM     16  C   UNL     1       2.377   1.411  -0.013  0.00  0.00    +0.006 A 
ATOM     17  C   UNL     1       2.396   0.029  -0.020  0.00  0.00    -0.023 A 
ATOM     18  C   UNL     1       1.208  -0.679  -0.012  0.00  0.00    +0.006 A 
ATOM     19  C   UNL     1       0.002  -0.004   0.002  0.00  0.00    +0.000 A 
ENDBRANCH   1  17
BRANCH   3  20
ATOM     20  C   UNL     1       2.299  -3.413  -2.289  0.00  0.00    +0.038 A 
ATOM     21  C   UNL     1       2.440  -2.807  -3.543  0.00  0.00    +0.013 A 
ATOM     22  C   UNL     1       1.811  -3.349  -4.642  0.00  0.00    +0.001 A 
ATOM     23  C   UNL     1       1.039  -4.492  -4.513  0.00  0.00    +0.004 A 
ATOM     24  C   UNL     1       0.891  -5.102  -3.282  0.00  0.00    +0.046 A 
ATOM     25  C   UNL     1       1.520  -4.575  -2.165  0.00  0.00    +0.126 A 
BRANCH  25  26
ATOM     26  O   UNL     1       1.380  -5.176  -0.957  0.00  0.00    -0.506 OA
ATOM     27  H   UNL     1       0.627  -4.855  -0.443  0.00  0.00    +0.292 HD
ENDBRANCH  25  26
ENDBRANCH   3  20
TORSDOF 3
