REMARK  Name = ZINC53125871
REMARK  8 active torsions:
REMARK  status: ('A' for Active; 'I' for Inactive)
REMARK    1  A    between atoms: C_1  and  C_2
REMARK    2  A    between atoms: C_7  and  C_9
REMARK    3  A    between atoms: C_7  and  N_11
REMARK    4  A    between atoms: C_9  and  O_10
REMARK    5  A    between atoms: N_11  and  C_12
REMARK    6  A    between atoms: C_12  and  C_13
REMARK    7  A    between atoms: C_13  and  C_15
REMARK    8  A    between atoms: C_13  and  O_22
REMARK                            x       y       z     vdW  Elec       q    Type
REMARK                         _______ _______ _______ _____ _____    ______ ____
ROOT
ATOM      1  N   UNL     1       1.460  -2.506   2.358  0.00  0.00    +0.386 N 
ATOM      2  H   UNL     1       1.543  -3.509   2.296  0.00  0.00    -0.085 HD
ATOM      3  H   UNL     1       2.380  -2.092   2.376  0.00  0.00    -0.085 HD
ENDROOT
BRANCH   1   9
ATOM      4  C   UNL     1      -0.097   1.583   0.047  0.00  0.00    +0.007 C 
ATOM      5  C   UNL     1      -0.075   0.053   0.015  0.00  0.00    -0.015 C 
ATOM      6  C   UNL     1      -1.509  -0.479   0.053  0.00  0.00    +0.003 C 
ATOM      7  C   UNL     1      -1.487  -2.008   0.021  0.00  0.00    -0.001 C 
ATOM      8  C   UNL     1      -0.715  -2.533   1.233  0.00  0.00    -0.010 C 
ATOM      9  C   UNL     1       0.719  -2.001   1.194  0.00  0.00    -0.044 C 
ATOM     10  C   UNL     1       0.697  -0.472   1.227  0.00  0.00    -0.007 C 
BRANCH   9  11
ATOM     11  C   UNL     1       1.403  -2.474  -0.090  0.00  0.00    +0.143 C 
BRANCH  11  12
ATOM     12  O   UNL     1       1.521  -3.898  -0.070  0.00  0.00    -0.396 OA
ATOM     13  H   UNL     1       1.947  -4.269  -0.855  0.00  0.00    +0.209 HD
ENDBRANCH  11  12
ENDBRANCH   9  11
ENDBRANCH   1   9
BRANCH   1  14
ATOM     14  C   UNL     1       0.740  -2.150   3.588  0.00  0.00    -0.045 C 
BRANCH  14  15
ATOM     15  C   UNL     1       1.574  -2.558   4.804  0.00  0.00    +0.128 C 
BRANCH  15  16
ATOM     16  C   UNL     1       0.836  -2.193   6.066  0.00  0.00    -0.020 A 
ATOM     17  C   UNL     1      -0.103  -3.060   6.593  0.00  0.00    +0.006 A 
ATOM     18  C   UNL     1      -0.781  -2.726   7.750  0.00  0.00    +0.001 A 
ATOM     19  C   UNL     1      -0.520  -1.524   8.381  0.00  0.00    +0.015 A 
ATOM     20  C   UNL     1       0.419  -0.656   7.855  0.00  0.00    +0.018 A 
ATOM     21  C   UNL     1       1.101  -0.994   6.700  0.00  0.00    +0.021 A 
ATOM     22 BR   UNL     1       0.776   0.988   8.718  0.00  0.00    -0.050 Br
ENDBRANCH  15  16
BRANCH  15  23
ATOM     23  O   UNL     1       1.800  -3.968   4.775  0.00  0.00    -0.389 OA
ATOM     24  H   UNL     1       0.990  -4.497   4.795  0.00  0.00    +0.210 HD
ENDBRANCH  15  23
ENDBRANCH  14  15
ENDBRANCH   1  14
TORSDOF 7
