REMARK  Name = ZINC04576212
REMARK  4 active torsions:
REMARK  status: ('A' for Active; 'I' for Inactive)
REMARK    1  A    between atoms: C_1  and  N_43
REMARK    2  A    between atoms: N_11  and  C_16
REMARK    3  A    between atoms: N_14  and  N_15
REMARK    4  A    between atoms: C_16  and  C_17
REMARK                            x       y       z     vdW  Elec       q    Type
REMARK                         _______ _______ _______ _____ _____    ______ ____
ROOT
ATOM      1  C   UNL     1       5.210   3.663  -0.243  0.00  0.00    -0.096 C 
ATOM      2  C   UNL     1       2.898   3.888   0.441  0.00  0.00    -0.074 C 
ATOM      3  C   UNL     1       1.463   3.572   0.011  0.00  0.00    +0.018 C 
ATOM      4  C   UNL     1       1.290   2.055   0.001  0.00  0.00    -0.026 A 
ATOM      5  C   UNL     1       2.378   1.256  -0.014  0.00  0.00    -0.021 A 
ATOM      6  S   UNL     1       1.734  -0.394  -0.016  0.00  0.00    -0.075 S 
ATOM      7  C   UNL     1       0.002  -0.004   0.002  0.00  0.00    +0.117 A 
ATOM      8  C   UNL     1      -0.017   1.401   0.010  0.00  0.00    +0.076 A 
ATOM      9  C   UNL     1      -1.314   2.006   0.020  0.00  0.00    +0.264 A 
ATOM     10  O   UNL     1      -1.431   3.219   0.027  0.00  0.00    -0.267 OA
ATOM     11  N   UNL     1      -2.404   1.216   0.031  0.00  0.00    -0.275 N 
ATOM     12  C   UNL     1      -2.294  -0.143   0.022  0.00  0.00    +0.213 A 
ATOM     13  N   UNL     1      -1.113  -0.726   0.009  0.00  0.00    -0.207 NA
ATOM     14  N   UNL     1      -3.429  -0.915   0.029  0.00  0.00    -0.253 N 
ATOM     15  C   UNL     1       3.810   1.694  -0.027  0.00  0.00    -0.036 C 
ATOM     16  H   UNL     1      -4.302  -0.492   0.040  0.00  0.00    +0.169 HD
ATOM     17  N   UNL     1       3.841   3.128  -0.404  0.00  0.00    +0.381 N 
ATOM     18  H   UNL     1       3.560   3.222  -1.387  0.00  0.00    -0.082 HD
ENDROOT
BRANCH  14  19
ATOM     19  N   UNL     1      -3.329  -2.277   0.021  0.00  0.00    -0.254 NA
ATOM     20  H   UNL     1      -4.242  -2.706   0.028  0.00  0.00    +0.140 HD
ATOM     21  H   UNL     1      -2.786  -2.595  -0.767  0.00  0.00    +0.140 HD
ENDBRANCH  14  19
BRANCH  11  22
ATOM     22  C   UNL     1      -3.735   1.829   0.046  0.00  0.00    +0.163 C 
BRANCH  22  23
ATOM     23  C   UNL     1      -4.178   2.031   1.473  0.00  0.00    -0.028 A 
ATOM     24  C   UNL     1      -4.886   1.039   2.124  0.00  0.00    +0.005 A 
ATOM     25  C   UNL     1      -5.289   1.222   3.433  0.00  0.00    +0.000 A 
ATOM     26  C   UNL     1      -4.991   2.403   4.089  0.00  0.00    +0.000 A 
ATOM     27  C   UNL     1      -4.287   3.397   3.436  0.00  0.00    +0.000 A 
ATOM     28  C   UNL     1      -3.880   3.211   2.128  0.00  0.00    +0.005 A 
ENDBRANCH  22  23
ENDBRANCH  11  22
TORSDOF 3
