REMARK  Name = ZINC04177759
REMARK  14 active torsions:
REMARK  status: ('A' for Active; 'I' for Inactive)
REMARK    1  A    between atoms: C_1  and  C_2
REMARK    2  A    between atoms: C_2  and  C_3
REMARK    3  A    between atoms: C_3  and  C_4
REMARK    4  A    between atoms: C_4  and  N_5
REMARK    5  A    between atoms: N_5  and  C_6
REMARK    6  A    between atoms: N_5  and  S_7
REMARK    7  A    between atoms: S_7  and  C_10
REMARK    8  A    between atoms: C_13  and  C_16
REMARK    9  A    between atoms: N_18  and  C_19
REMARK   10  A    between atoms: C_20  and  C_32
REMARK   11  A    between atoms: C_24  and  C_30
REMARK   12  A    between atoms: C_24  and  C_31
REMARK   13  A    between atoms: C_26  and  C_28
REMARK   14  A    between atoms: C_26  and  C_29
REMARK                            x       y       z     vdW  Elec       q    Type
REMARK                         _______ _______ _______ _____ _____    ______ ____
ROOT
ATOM      1  C   UNL     1      -8.169   3.322   3.682  0.00  0.00    +0.085 A 
ATOM      2  C   UNL     1      -9.473   3.737   3.441  0.00  0.00    +0.068 A 
ATOM      3  C   UNL     1      -9.896   4.965   4.073  0.00  0.00    -0.026 A 
ATOM      4  C   UNL     1      -8.945   5.570   4.824  0.00  0.00    -0.016 A 
ATOM      5  S   UNL     1      -7.537   4.510   4.688  0.00  0.00    -0.079 S 
ATOM      6  C   UNL     1      -9.094   6.851   5.574  0.00  0.00    -0.041 C 
ATOM      7  N   UNL     1     -10.479   7.316   5.614  0.00  0.00    +0.389 N 
ATOM      8  C   UNL     1     -11.509   6.327   5.325  0.00  0.00    -0.069 C 
ATOM      9  C   UNL     1     -11.266   5.619   3.986  0.00  0.00    +0.024 C 
ATOM     10  C   UNL     1     -11.603   5.286   6.442  0.00  0.00    -0.010 C 
ATOM     11  C   UNL     1     -12.866   7.051   5.236  0.00  0.00    -0.010 C 
ATOM     12  C   UNL     1      -8.554   6.672   7.000  0.00  0.00    -0.005 C 
ATOM     13  C   UNL     1      -8.234   7.923   4.875  0.00  0.00    -0.005 C 
ATOM     14  H   UNL     1     -10.662   7.714   6.537  0.00  0.00    -0.084 HD
ATOM     15  H   UNL     1     -10.581   8.091   4.956  0.00  0.00    -0.084 HD
ENDROOT
BRANCH   2  16
ATOM     16  C   UNL     1     -10.367   2.956   2.581  0.00  0.00    +0.244 C 
ATOM     17  O   UNL     1     -11.068   2.085   3.063  0.00  0.00    -0.270 OA
ATOM     18  N   UNL     1     -10.415   3.203   1.257  0.00  0.00    -0.325 N 
ATOM     19  H   UNL     1      -9.856   3.897   0.873  0.00  0.00    +0.145 HD
ATOM     20  H   UNL     1     -11.006   2.686   0.688  0.00  0.00    +0.145 HD
ENDBRANCH   2  16
BRANCH   1  23
ATOM     21  C   UNL     1      -6.254   1.938   3.535  0.00  0.00    +0.249 C 
ATOM     22  O   UNL     1      -5.654   2.708   4.261  0.00  0.00    -0.270 OA
ATOM     23  N   UNL     1      -7.535   2.188   3.200  0.00  0.00    -0.275 N 
ATOM     24  H   UNL     1      -8.014   1.574   2.621  0.00  0.00    +0.156 HD
BRANCH  21  28
ATOM     25  C   UNL     1      -4.312  -1.539   2.060  0.00  0.00    +0.106 A 
ATOM     26  C   UNL     1      -3.626  -0.665   2.884  0.00  0.00    +0.029 A 
ATOM     27  C   UNL     1      -4.251   0.466   3.367  0.00  0.00    +0.015 A 
ATOM     28  C   UNL     1      -5.578   0.728   3.022  0.00  0.00    +0.037 A 
ATOM     29  C   UNL     1      -6.264  -0.158   2.189  0.00  0.00    +0.015 A 
ATOM     30  C   UNL     1      -5.626  -1.283   1.709  0.00  0.00    +0.029 A 
BRANCH  25  31
ATOM     31  S   UNL     1      -3.507  -2.982   1.448  0.00  0.00    +0.061 S 
ATOM     32  O   UNL     1      -4.530  -3.917   1.135  0.00  0.00    -0.153 OA
ATOM     33  O   UNL     1      -2.458  -3.279   2.359  0.00  0.00    -0.153 OA
BRANCH  31  34
ATOM     34  N   UNL     1      -2.787  -2.571   0.015  0.00  0.00    -0.180 NA
ATOM     35  C   UNL     1      -3.525  -2.714  -1.243  0.00  0.00    +0.131 C 
BRANCH  34  36
ATOM     36  C   UNL     1      -1.413  -2.063   0.004  0.00  0.00    +0.109 C 
BRANCH  36  37
ATOM     37  C   UNL     1      -1.433  -0.534   0.013  0.00  0.00    +0.017 C 
BRANCH  37  39
ATOM     38  C   UNL     1      -0.019   1.526   0.010  0.00  0.00    +0.004 C 
ATOM     39  C   UNL     1       0.002  -0.004   0.002  0.00  0.00    -0.002 C 
ENDBRANCH  37  39
ENDBRANCH  36  37
ENDBRANCH  34  36
ENDBRANCH  31  34
ENDBRANCH  25  31
ENDBRANCH  21  28
ENDBRANCH   1  23
TORSDOF 8
