REMARK  Name = ZINC63521431
REMARK  6 active torsions:
REMARK  status: ('A' for Active; 'I' for Inactive)
REMARK    1  A    between atoms: C_1  and  O_2
REMARK    2  A    between atoms: O_2  and  C_3
REMARK    3  A    between atoms: C_10  and  C_18
REMARK    4  A    between atoms: C_22  and  O_24
REMARK    5  A    between atoms: O_24  and  C_25
REMARK    6  A    between atoms: C_25  and  C_26
REMARK                            x       y       z     vdW  Elec       q    Type
REMARK                         _______ _______ _______ _____ _____    ______ ____
ROOT
ATOM      1  C   UNL     1       0.606  -0.607  -1.056  0.00  0.00    +0.121 A 
ATOM      2  C   UNL     1       1.172   0.195  -2.062  0.00  0.00    +0.047 A 
ATOM      3  C   UNL     1       1.785  -0.326  -3.146  0.00  0.00    +0.029 A 
ATOM      4  C   UNL     1       1.877  -1.780  -3.304  0.00  0.00    +0.043 A 
ATOM      5  N   UNL     1       2.429  -2.527  -4.233  0.00  0.00    -0.376 N 
ATOM      6  C   UNL     1       2.142  -3.925  -3.931  0.00  0.00    +0.128 C 
ATOM      7  C   UNL     1       3.409  -4.777  -3.821  0.00  0.00    +0.111 C 
ATOM      8  N   UNL     1       3.044  -6.077  -3.236  0.00  0.00    -0.307 NA
ATOM      9  C   UNL     1       2.601  -5.980  -1.842  0.00  0.00    +0.086 C 
ATOM     10  C   UNL     1       1.285  -5.183  -1.760  0.00  0.00    +0.048 C 
ATOM     11  C   UNL     1       1.488  -3.914  -2.558  0.00  0.00    -0.035 C 
ATOM     12  C   UNL     1       1.288  -2.630  -2.238  0.00  0.00    +0.003 A 
ATOM     13  C   UNL     1       0.646  -1.960  -1.101  0.00  0.00    +0.055 A 
ATOM     14  H   UNL     1       2.354  -6.548  -3.802  0.00  0.00    +0.123 HD
ATOM     15  H   UNL     1       2.941  -2.204  -4.991  0.00  0.00    +0.160 HD
ENDROOT
BRANCH   7  16
ATOM     16  C   UNL     1       4.002  -4.985  -5.190  0.00  0.00    -0.025 A 
ATOM     17  C   UNL     1       3.471  -5.942  -6.036  0.00  0.00    +0.005 A 
ATOM     18  C   UNL     1       4.012  -6.135  -7.293  0.00  0.00    +0.004 A 
ATOM     19  C   UNL     1       5.087  -5.372  -7.708  0.00  0.00    +0.045 A 
ATOM     20  C   UNL     1       5.622  -4.411  -6.862  0.00  0.00    +0.122 A 
ATOM     21  C   UNL     1       5.072  -4.215  -5.603  0.00  0.00    +0.051 A 
BRANCH  20  22
ATOM     22  O   UNL     1       6.679  -3.659  -7.268  0.00  0.00    -0.483 OA
BRANCH  22  23
ATOM     23  C   UNL     1       7.189  -3.911  -8.578  0.00  0.00    +0.324 C 
BRANCH  23  24
ATOM     24  C   UNL     1       8.350  -2.990  -8.851  0.00  0.00    +0.248 C 
ATOM     25  O   UNL     1       8.705  -2.196  -8.006  0.00  0.00    -0.272 OA
ATOM     26  N   UNL     1       8.993  -3.049 -10.034  0.00  0.00    -0.327 N 
ATOM     27  H   UNL     1       8.709  -3.684 -10.710  0.00  0.00    +0.145 HD
ATOM     28  H   UNL     1       9.740  -2.456 -10.210  0.00  0.00    +0.145 HD
ENDBRANCH  23  24
ENDBRANCH  22  23
ENDBRANCH  20  22
ENDBRANCH   7  16
BRANCH   1  30
ATOM     29  C   UNL     1      -0.017   1.425   0.010  0.00  0.00    +0.277 C 
ATOM     30  O   UNL     1       0.002  -0.004   0.002  0.00  0.00    -0.495 OA
ENDBRANCH   1  30
TORSDOF 5
