REMARK  Name = ZINC42789777
REMARK  8 active torsions:
REMARK  status: ('A' for Active; 'I' for Inactive)
REMARK    1  A    between atoms: C_1  and  C_2
REMARK    2  A    between atoms: C_7  and  C_11
REMARK    3  A    between atoms: C_11  and  O_12
REMARK    4  A    between atoms: O_12  and  C_13
REMARK    5  A    between atoms: C_16  and  C_19
REMARK    6  A    between atoms: N_21  and  C_22
REMARK    7  A    between atoms: C_22  and  C_23
REMARK    8  A    between atoms: C_22  and  C_26
REMARK                            x       y       z     vdW  Elec       q    Type
REMARK                         _______ _______ _______ _____ _____    ______ ____
ROOT
ATOM      1  C   UNL     1       0.503  -9.701   3.002  0.00  0.00    +0.121 A 
ATOM      2  C   UNL     1       0.380 -11.064   3.247  0.00  0.00    +0.046 A 
ATOM      3  C   UNL     1       0.308 -11.529   4.541  0.00  0.00    +0.016 A 
ATOM      4  C   UNL     1       0.360 -10.629   5.608  0.00  0.00    +0.037 A 
ATOM      5  C   UNL     1       0.484  -9.259   5.358  0.00  0.00    +0.016 A 
ATOM      6  C   UNL     1       0.560  -8.803   4.061  0.00  0.00    +0.046 A 
ENDROOT
BRANCH   4   7
ATOM      7  C   UNL     1       0.283 -11.123   6.997  0.00  0.00    +0.245 C 
ATOM      8  O   UNL     1       0.175 -12.314   7.213  0.00  0.00    -0.270 OA
ATOM      9  N   UNL     1       0.333 -10.253   8.025  0.00  0.00    -0.293 N 
ATOM     10  H   UNL     1       0.419  -9.302   7.853  0.00  0.00    +0.150 HD
BRANCH   9  11
ATOM     11  C   UNL     1       0.257 -10.743   9.404  0.00  0.00    +0.245 C 
BRANCH  11  12
ATOM     12  C   UNL     1       0.923  -9.755  10.326  0.00  0.00    +0.240 C 
ATOM     13  O   UNL     1       0.986  -8.584  10.017  0.00  0.00    -0.273 OA
ATOM     14  N   UNL     1       1.448 -10.172  11.495  0.00  0.00    -0.327 N 
ATOM     15  H   UNL     1       1.462 -11.117  11.711  0.00  0.00    +0.145 HD
ATOM     16  H   UNL     1       1.812  -9.526  12.121  0.00  0.00    +0.145 HD
ENDBRANCH  11  12
BRANCH  11  17
ATOM     17  C   UNL     1      -1.188 -10.906   9.800  0.00  0.00    +0.240 C 
ATOM     18  O   UNL     1      -2.048 -10.264   9.234  0.00  0.00    -0.273 OA
ATOM     19  N   UNL     1      -1.525 -11.764  10.783  0.00  0.00    -0.327 N 
ATOM     20  H   UNL     1      -0.847 -12.329  11.187  0.00  0.00    +0.145 HD
ATOM     21  H   UNL     1      -2.444 -11.817  11.087  0.00  0.00    +0.145 HD
ENDBRANCH  11  17
ENDBRANCH   9  11
ENDBRANCH   4   7
BRANCH   1  22
ATOM     22  O   UNL     1       0.573  -9.247   1.725  0.00  0.00    -0.486 OA
BRANCH  22  23
ATOM     23  C   UNL     1       0.508 -10.224   0.684  0.00  0.00    +0.286 C 
BRANCH  23  30
ATOM     24  C   UNL     1       1.049  -5.695  -5.132  0.00  0.00    +0.045 C 
ATOM     25  C   UNL     1       0.916  -6.952  -4.310  0.00  0.00    -0.034 A 
ATOM     26  C   UNL     1       0.818  -8.198  -4.951  0.00  0.00    +0.008 A 
ATOM     27  C   UNL     1       0.699  -9.330  -4.206  0.00  0.00    +0.047 A 
ATOM     28  C   UNL     1       0.677  -9.233  -2.800  0.00  0.00    +0.138 A 
ATOM     29  N   UNL     1       0.572 -10.145  -1.844  0.00  0.00    -0.229 NA
ATOM     30  C   UNL     1       0.601  -9.539  -0.655  0.00  0.00    +0.097 A 
ATOM     31  C   UNL     1       0.726  -8.208  -0.852  0.00  0.00    +0.119 A 
ATOM     32  N   UNL     1       0.775  -8.003  -2.204  0.00  0.00    -0.306 N 
ATOM     33  C   UNL     1       0.899  -6.875  -2.963  0.00  0.00    +0.096 A 
ENDBRANCH  23  30
ENDBRANCH  22  23
ENDBRANCH   1  22
TORSDOF 7
