REMARK  Name = ZINC59537040
REMARK  11 active torsions:
REMARK  status: ('A' for Active; 'I' for Inactive)
REMARK    1  A    between atoms: C_1  and  C_2
REMARK    2  A    between atoms: C_5  and  N_8
REMARK    3  A    between atoms: N_8  and  C_9
REMARK    4  A    between atoms: C_9  and  C_11
REMARK    5  A    between atoms: C_11  and  N_12
REMARK    6  A    between atoms: C_15  and  C_18
REMARK    7  A    between atoms: C_18  and  N_19
REMARK    8  A    between atoms: N_19  and  C_20
REMARK    9  A    between atoms: C_20  and  N_22
REMARK   10  A    between atoms: N_22  and  C_23
REMARK   11  A    between atoms: C_26  and  C_29
REMARK                            x       y       z     vdW  Elec       q    Type
REMARK                         _______ _______ _______ _____ _____    ______ ____
ROOT
ATOM      1  N   UNL     1      -1.191  -6.980   2.456  0.00  0.00    +0.384 N 
ATOM      2  C   UNL     1      -2.593  -7.123   2.866  0.00  0.00    -0.078 C 
ATOM      3  C   UNL     1      -2.658  -7.544   4.336  0.00  0.00    -0.014 C 
ATOM      4  C   UNL     1      -1.935  -8.883   4.510  0.00  0.00    +0.003 C 
ATOM      5  C   UNL     1      -0.494  -8.742   4.010  0.00  0.00    -0.014 C 
ATOM      6  C   UNL     1      -0.509  -8.276   2.552  0.00  0.00    -0.078 C 
ATOM      7  H   UNL     1      -0.732  -6.314   3.060  0.00  0.00    -0.081 HD
ENDROOT
BRANCH   1   8
ATOM      8  C   UNL     1      -1.135  -6.500   1.069  0.00  0.00    -0.019 C 
BRANCH   8   9
ATOM      9  C   UNL     1       0.280  -6.107   0.731  0.00  0.00    +0.036 C 
ATOM     10  S   UNL     1       1.395  -6.066   1.877  0.00  0.00    -0.042 S 
BRANCH   9  11
ATOM     11  N   UNL     1       0.607  -5.790  -0.538  0.00  0.00    -0.313 N 
ATOM     12  H   UNL     1      -0.085  -5.724  -1.215  0.00  0.00    +0.152 HD
BRANCH  11  17
ATOM     13  C   UNL     1       6.025  -4.840  -1.922  0.00  0.00    +0.044 C 
ATOM     14  C   UNL     1       4.585  -5.092  -1.554  0.00  0.00    -0.050 A 
ATOM     15  C   UNL     1       4.269  -6.088  -0.648  0.00  0.00    +0.005 A 
ATOM     16  C   UNL     1       2.951  -6.321  -0.309  0.00  0.00    +0.023 A 
ATOM     17  C   UNL     1       1.942  -5.555  -0.879  0.00  0.00    +0.031 A 
ATOM     18  C   UNL     1       2.264  -4.556  -1.789  0.00  0.00    +0.023 A 
ATOM     19  C   UNL     1       3.584  -4.324  -2.120  0.00  0.00    +0.005 A 
ENDBRANCH  11  17
ENDBRANCH   9  11
ENDBRANCH   8   9
ENDBRANCH   1   8
BRANCH   4  20
ATOM     20  C   UNL     1      -1.927  -9.272   5.989  0.00  0.00    +0.106 C 
BRANCH  20  21
ATOM     21  N   UNL     1      -1.342 -10.606   6.141  0.00  0.00    -0.326 N 
ATOM     22  H   UNL     1      -1.034 -11.092   5.360  0.00  0.00    +0.148 HD
BRANCH  21  23
ATOM     23  C   UNL     1      -1.231 -11.159   7.365  0.00  0.00    +0.135 C 
ATOM     24  S   UNL     1      -1.775 -10.301   8.743  0.00  0.00    -0.019 S 
BRANCH  23  25
ATOM     25  N   UNL     1      -0.693 -12.386   7.504  0.00  0.00    -0.297 N 
ATOM     26  H   UNL     1      -0.308 -12.837   6.736  0.00  0.00    +0.154 HD
BRANCH  25  27
ATOM     27  C   UNL     1      -0.689 -13.011   8.756  0.00  0.00    +0.033 A 
ATOM     28  C   UNL     1      -1.794 -12.906   9.589  0.00  0.00    +0.023 A 
ATOM     29  C   UNL     1      -1.787 -13.524  10.825  0.00  0.00    +0.005 A 
ATOM     30  C   UNL     1      -0.680 -14.245  11.232  0.00  0.00    -0.050 A 
ATOM     31  C   UNL     1       0.422 -14.352  10.404  0.00  0.00    +0.005 A 
ATOM     32  C   UNL     1       0.419 -13.741   9.165  0.00  0.00    +0.023 A 
ATOM     33  C   UNL     1      -0.675 -14.918  12.581  0.00  0.00    +0.044 C 
ENDBRANCH  25  27
ENDBRANCH  23  25
ENDBRANCH  21  23
ENDBRANCH  20  21
ENDBRANCH   4  20
TORSDOF 9
