REMARK  Name = ZINC20569466
REMARK  7 active torsions:
REMARK  status: ('A' for Active; 'I' for Inactive)
REMARK    1  A    between atoms: C_1  and  C_2
REMARK    2  A    between atoms: C_9  and  N_14
REMARK    3  A    between atoms: C_10  and  C_11
REMARK    4  A    between atoms: C_15  and  C_17
REMARK    5  A    between atoms: C_22  and  N_23
REMARK    6  A    between atoms: N_23  and  S_24
REMARK    7  A    between atoms: S_24  and  C_27
REMARK                            x       y       z     vdW  Elec       q    Type
REMARK                         _______ _______ _______ _____ _____    ______ ____
ROOT
ATOM      1  N   UNL     1      -2.862   5.202   0.343  0.00  0.00    -0.275 N 
ATOM      2  C   UNL     1      -2.747   3.863   0.240  0.00  0.00    +0.250 C 
ATOM      3  O   UNL     1      -3.741   3.176   0.100  0.00  0.00    -0.270 OA
ATOM      4  H   UNL     1      -1.963   5.823   0.470  0.00  0.00    +0.156 HD
ENDROOT
BRANCH   1  12
ATOM      5  C   UNL     1     -10.101   8.152   0.084  0.00  0.00    +0.008 C 
ATOM      6  C   UNL     1      -8.637   7.937   0.474  0.00  0.00    -0.009 C 
ATOM      7  C   UNL     1      -7.761   8.993  -0.207  0.00  0.00    +0.008 C 
ATOM      8  C   UNL     1      -6.344   8.943   0.366  0.00  0.00    +0.037 C 
ATOM      9  C   UNL     1      -5.835   7.509   0.288  0.00  0.00    -0.023 A 
ATOM     10  C   UNL     1      -6.689   6.475   0.131  0.00  0.00    -0.004 A 
ATOM     11  S   UNL     1      -5.657   5.036   0.096  0.00  0.00    -0.077 S 
ATOM     12  C   UNL     1      -4.112   5.796   0.288  0.00  0.00    +0.085 A 
ATOM     13  C   UNL     1      -4.431   7.144   0.380  0.00  0.00    +0.068 A 
ATOM     14  C   UNL     1      -8.181   6.545   0.014  0.00  0.00    +0.046 C 
BRANCH  13  15
ATOM     15  C   UNL     1      -3.391   8.161   0.559  0.00  0.00    +0.244 C 
ATOM     16  O   UNL     1      -2.870   8.676  -0.413  0.00  0.00    -0.270 OA
ATOM     17  N   UNL     1      -3.011   8.526   1.800  0.00  0.00    -0.325 N 
ATOM     18  H   UNL     1      -2.231   9.289   1.934  0.00  0.00    +0.145 HD
ATOM     19  H   UNL     1      -3.482   8.060   2.678  0.00  0.00    +0.145 HD
ENDBRANCH  13  15
ENDBRANCH   1  12
BRANCH   2  20
ATOM     20  C   UNL     1      -1.417   3.231   0.299  0.00  0.00    +0.059 A 
ATOM     21  C   UNL     1      -0.272   4.015   0.461  0.00  0.00    +0.015 A 
ATOM     22  C   UNL     1       0.969   3.418   0.514  0.00  0.00    +0.001 A 
ATOM     23  C   UNL     1       1.088   2.042   0.408  0.00  0.00    +0.002 A 
ATOM     24  C   UNL     1      -0.032   1.253   0.248  0.00  0.00    +0.025 A 
ATOM     25  C   UNL     1      -1.292   1.837   0.186  0.00  0.00    +0.060 A 
BRANCH  25  26
ATOM     26  N   UNL     1      -2.421   1.046   0.019  0.00  0.00    -0.216 N 
ATOM     27  H   UNL     1      -3.264   1.412  -0.584  0.00  0.00    +0.174 HD
BRANCH  26  28
ATOM     28  S   UNL     1      -2.497  -0.449   0.729  0.00  0.00    +0.072 S 
ATOM     29  O   UNL     1      -3.806  -0.946   0.489  0.00  0.00    -0.150 OA
ATOM     30  O   UNL     1      -1.329  -1.151   0.323  0.00  0.00    -0.150 OA
BRANCH  28  31
ATOM     31  C   UNL     1      -2.361  -0.207   2.469  0.00  0.00    +0.108 A 
ATOM     32  C   UNL     1      -1.117  -0.216   3.072  0.00  0.00    +0.029 A 
ATOM     33  C   UNL     1      -1.010  -0.021   4.437  0.00  0.00    +0.002 A 
ATOM     34  C   UNL     1      -2.147   0.172   5.199  0.00  0.00    +0.000 A 
ATOM     35  C   UNL     1      -3.391   0.175   4.596  0.00  0.00    +0.002 A 
ATOM     36  C   UNL     1      -3.498  -0.014   3.231  0.00  0.00    +0.029 A 
ENDBRANCH  28  31
ENDBRANCH  26  28
ENDBRANCH  25  26
ENDBRANCH   2  20
TORSDOF 6
