REMARK  Name = ZINC38547915
REMARK  12 active torsions:
REMARK  status: ('A' for Active; 'I' for Inactive)
REMARK    1  A    between atoms: C_1  and  C_2
REMARK    2  A    between atoms: C_2  and  C_3
REMARK    3  A    between atoms: C_5  and  C_16
REMARK    4  A    between atoms: C_6  and  N_8
REMARK    5  A    between atoms: C_9  and  C_11
REMARK    6  A    between atoms: C_16  and  C_18
REMARK    7  A    between atoms: C_16  and  N_28
REMARK    8  A    between atoms: C_21  and  O_26
REMARK    9  A    between atoms: C_23  and  O_24
REMARK   10  A    between atoms: O_24  and  C_25
REMARK   11  A    between atoms: O_26  and  C_27
REMARK   12  A    between atoms: C_31  and  C_35
REMARK                            x       y       z     vdW  Elec       q    Type
REMARK                         _______ _______ _______ _____ _____    ______ ____
ROOT
ATOM      1  C   UNL     1      -4.463  -1.771  -2.273  0.00  0.00    +0.138 C 
ENDROOT
BRANCH   1   2
ATOM      2  N   UNL     1      -3.917  -0.781  -3.205  0.00  0.00    -0.319 N 
ATOM      3  C   UNL     1      -2.600  -0.887  -3.639  0.00  0.00    +0.097 A 
ATOM      4  C   UNL     1      -1.755  -1.824  -3.052  0.00  0.00    +0.045 A 
ATOM      5  C   UNL     1      -0.447  -1.919  -3.493  0.00  0.00    -0.046 A 
ATOM      6  C   UNL     1      -0.028  -1.071  -4.510  0.00  0.00    +0.021 A 
ATOM      7  C   UNL     1      -0.920  -0.165  -5.046  0.00  0.00    +0.084 A 
ATOM      8  N   UNL     1      -2.164  -0.101  -4.610  0.00  0.00    -0.350 N 
ATOM      9  C   UNL     1       0.500  -2.919  -2.883  0.00  0.00    +0.044 C 
ATOM     10  H   UNL     1      -4.474  -0.052  -3.520  0.00  0.00    +0.148 HD
ATOM     11  H   UNL     1      -2.772   0.542  -5.007  0.00  0.00    +0.166 HD
ENDBRANCH   1   2
BRANCH   1  12
ATOM     12  C   UNL     1      -4.430  -3.135  -2.912  0.00  0.00    +0.019 A 
ATOM     13  C   UNL     1      -3.500  -4.069  -2.496  0.00  0.00    +0.013 A 
ATOM     14  C   UNL     1      -3.467  -5.321  -3.080  0.00  0.00    +0.046 A 
ATOM     15  C   UNL     1      -4.367  -5.643  -4.086  0.00  0.00    +0.124 A 
ATOM     16  C   UNL     1      -5.301  -4.708  -4.505  0.00  0.00    +0.091 A 
ATOM     17  C   UNL     1      -5.336  -3.454  -3.913  0.00  0.00    +0.129 A 
BRANCH  17  18
ATOM     18  O   UNL     1      -6.253  -2.537  -4.318  0.00  0.00    -0.495 OA
ATOM     19  C   UNL     1      -7.221  -2.967  -5.277  0.00  0.00    +0.277 C 
ENDBRANCH  17  18
BRANCH  15  20
ATOM     20  O   UNL     1      -4.334  -6.875  -4.660  0.00  0.00    -0.495 OA
ATOM     21  C   UNL     1      -3.345  -7.788  -4.179  0.00  0.00    +0.277 C 
ENDBRANCH  15  20
ENDBRANCH   1  12
BRANCH   1  24
ATOM     22  C   UNL     1      -1.938  -0.867   0.344  0.00  0.00    -0.008 A 
ATOM     23  C   UNL     1      -2.664  -0.825  -0.799  0.00  0.00    +0.019 A 
ATOM     24  C   UNL     1      -3.636  -1.785  -1.014  0.00  0.00    +0.006 A 
ATOM     25  C   UNL     1      -3.831  -2.744  -0.066  0.00  0.00    +0.078 A 
ATOM     26  S   UNL     1      -2.616  -2.300   1.164  0.00  0.00    -0.078 S 
BRANCH  25  27
ATOM     27  N   UNL     1      -4.741  -3.803  -0.061  0.00  0.00    -0.273 N 
ATOM     28  C   UNL     1      -4.839  -4.603   1.020  0.00  0.00    +0.284 C 
ATOM     29  O   UNL     1      -4.204  -4.346   2.026  0.00  0.00    -0.266 OA
ATOM     30  H   UNL     1      -5.303  -3.963  -0.835  0.00  0.00    +0.156 HD
BRANCH  28  31
ATOM     31  C   UNL     1      -5.710  -5.782   0.983  0.00  0.00    +0.189 A 
ATOM     32  C   UNL     1      -5.831  -6.721   1.967  0.00  0.00    +0.054 A 
ATOM     33  C   UNL     1      -6.768  -7.662   1.513  0.00  0.00    +0.042 A 
ATOM     34  C   UNL     1      -7.172  -7.262   0.287  0.00  0.00    +0.196 A 
ATOM     35  O   UNL     1      -6.537  -6.125  -0.026  0.00  0.00    -0.458 OA
ENDBRANCH  28  31
ENDBRANCH  25  27
BRANCH  22  37
ATOM     36  C   UNL     1      -1.439   1.204   1.613  0.00  0.00    +0.009 C 
ATOM     37  C   UNL     1      -0.838   0.055   0.802  0.00  0.00    +0.039 C 
ENDBRANCH  22  37
ENDBRANCH   1  24
TORSDOF 8
