REMARK  Name = ZINC20224449
REMARK  8 active torsions:
REMARK  status: ('A' for Active; 'I' for Inactive)
REMARK    1  A    between atoms: C_1  and  C_2
REMARK    2  A    between atoms: C_5  and  C_21
REMARK    3  A    between atoms: C_6  and  S_8
REMARK    4  A    between atoms: S_8  and  N_11
REMARK    5  A    between atoms: N_11  and  C_12
REMARK    6  A    between atoms: C_15  and  C_18
REMARK    7  A    between atoms: C_18  and  C_19
REMARK    8  A    between atoms: C_19  and  N_20
REMARK                            x       y       z     vdW  Elec       q    Type
REMARK                         _______ _______ _______ _____ _____    ______ ____
ROOT
ATOM      1  N   UNL     1      -1.574   1.226  -2.927  0.00  0.00    -0.216 N 
ATOM      2  H   UNL     1      -2.276   0.885  -3.702  0.00  0.00    +0.174 HD
ENDROOT
BRANCH   1   3
ATOM      3  C   UNL     1      -1.824   2.411  -2.231  0.00  0.00    +0.048 A 
ATOM      4  C   UNL     1      -1.700   2.445  -0.848  0.00  0.00    +0.025 A 
ATOM      5  C   UNL     1      -1.943   3.619  -0.163  0.00  0.00    +0.005 A 
ATOM      6  C   UNL     1      -2.319   4.758  -0.852  0.00  0.00    -0.049 A 
ATOM      7  C   UNL     1      -2.448   4.726  -2.228  0.00  0.00    +0.005 A 
ATOM      8  C   UNL     1      -2.202   3.556  -2.920  0.00  0.00    +0.025 A 
BRANCH   6   9
ATOM      9  C   UNL     1      -2.589   6.036  -0.101  0.00  0.00    +0.015 C 
BRANCH   9  10
ATOM     10  C   UNL     1      -4.066   6.096   0.292  0.00  0.00    -0.082 C 
BRANCH  10  11
ATOM     11  N   UNL     1      -4.329   7.342   1.024  0.00  0.00    +0.378 N 
ATOM     12  H   UNL     1      -5.391   7.384   1.306  0.00  0.00    -0.090 HD
ATOM     13  H   UNL     1      -4.085   8.202   0.383  0.00  0.00    -0.090 HD
ATOM     14  H   UNL     1      -3.707   7.372   1.931  0.00  0.00    -0.090 HD
ENDBRANCH  10  11
ENDBRANCH   9  10
ENDBRANCH   6   9
ENDBRANCH   1   3
BRANCH   1  15
ATOM     15  S   UNL     1      -0.221   0.334  -2.585  0.00  0.00    +0.073 S 
ATOM     16  O   UNL     1      -0.192  -0.734  -3.522  0.00  0.00    -0.150 OA
ATOM     17  O   UNL     1      -0.222   0.117  -1.181  0.00  0.00    -0.150 OA
BRANCH  15  23
ATOM     18  C   UNL     1       4.038   2.961  -1.077  0.00  0.00    +0.044 C 
ATOM     19  C   UNL     1       3.116   2.537  -2.191  0.00  0.00    -0.049 A 
ATOM     20  C   UNL     1       3.362   2.950  -3.487  0.00  0.00    +0.004 A 
ATOM     21  C   UNL     1       2.515   2.561  -4.508  0.00  0.00    +0.005 A 
ATOM     22  C   UNL     1       1.423   1.759  -4.233  0.00  0.00    -0.024 A 
ATOM     23  C   UNL     1       1.175   1.350  -2.937  0.00  0.00    +0.112 A 
ATOM     24  C   UNL     1       2.024   1.735  -1.916  0.00  0.00    +0.032 A 
ATOM     25  C   UNL     1       0.501   1.335  -5.347  0.00  0.00    +0.046 C 
ENDBRANCH  15  23
ENDBRANCH   1  15
TORSDOF 6
