REMARK  Name = ZINC63808270
REMARK  9 active torsions:
REMARK  status: ('A' for Active; 'I' for Inactive)
REMARK    1  A    between atoms: C_1  and  C_2
REMARK    2  A    between atoms: C_4  and  N_10
REMARK    3  A    between atoms: C_5  and  C_9
REMARK    4  A    between atoms: N_7  and  C_8
REMARK    5  A    between atoms: C_11  and  C_13
REMARK    6  A    between atoms: N_15  and  C_16
REMARK    7  A    between atoms: C_16  and  C_17
REMARK    8  A    between atoms: C_17  and  N_18
REMARK    9  A    between atoms: C_19  and  C_21
REMARK                            x       y       z     vdW  Elec       q    Type
REMARK                         _______ _______ _______ _____ _____    ______ ____
ROOT
ATOM      1  C   UNL     1       0.895  -0.392  -4.967  0.00  0.00    +0.299 C 
ATOM      2  O   UNL     1      -0.093   0.260  -5.234  0.00  0.00    -0.265 OA
ATOM      3  N   UNL     1       1.709  -0.818  -5.953  0.00  0.00    -0.306 N 
ATOM      4  H   UNL     1       2.498  -1.339  -5.740  0.00  0.00    +0.149 HD
ENDROOT
BRANCH   1   6
ATOM      5  N   UNL     1       0.396  -0.297  -2.560  0.00  0.00    -0.278 N 
ATOM      6  C   UNL     1       1.209  -0.723  -3.546  0.00  0.00    +0.303 C 
ATOM      7  O   UNL     1       2.198  -1.375  -3.279  0.00  0.00    -0.265 OA
ATOM      8  H   UNL     1      -0.431   0.162  -2.777  0.00  0.00    +0.155 HD
BRANCH   5  11
ATOM      9  C   UNL     1      -0.189  -2.764  -0.652  0.00  0.00    +0.032 C 
ATOM     10  C   UNL     1       1.037  -1.851  -0.577  0.00  0.00    +0.118 C 
ATOM     11  C   UNL     1       0.743  -0.516  -1.226  0.00  0.00    +0.047 C 
ATOM     12  C   UNL     1       0.879   0.406  -0.283  0.00  0.00    +0.034 C 
ATOM     13  N   UNL     1       1.233  -0.160   0.932  0.00  0.00    -0.280 N 
ATOM     14  N   UNL     1       1.347  -1.519   0.827  0.00  0.00    -0.224 NA
ATOM     15  C   UNL     1       2.700  -1.966   1.187  0.00  0.00    +0.128 C 
ATOM     16  C   UNL     1       0.675   1.883  -0.504  0.00  0.00    +0.063 C 
ATOM     17  H   UNL     1       1.382   0.342   1.749  0.00  0.00    +0.166 HD
ENDBRANCH   5  11
ENDBRANCH   1   6
BRANCH   3  18
ATOM     18  C   UNL     1       1.401  -0.493  -7.348  0.00  0.00    +0.123 C 
BRANCH  18  19
ATOM     19  C   UNL     1       2.474  -1.091  -8.260  0.00  0.00    +0.123 C 
BRANCH  19  20
ATOM     20  N   UNL     1       2.166  -0.766  -9.655  0.00  0.00    -0.312 N 
ATOM     21  C   UNL     1       2.979  -1.192 -10.642  0.00  0.00    +0.239 C 
ATOM     22  O   UNL     1       3.967  -1.843 -10.375  0.00  0.00    -0.273 OA
ATOM     23  H   UNL     1       1.376  -0.245  -9.869  0.00  0.00    +0.149 HD
BRANCH  21  24
ATOM     24  C   UNL     1       2.662  -0.858 -12.077  0.00  0.00    +0.190 C 
ATOM     25  C   UNL     1       1.342  -1.478 -12.476  0.00  0.00    +0.016 C 
ATOM     26  C   UNL     1       1.618  -2.325 -13.494  0.00  0.00    -0.004 A 
ATOM     27  C   UNL     1       0.777  -3.214 -14.304  0.00  0.00    +0.010 A 
ATOM     28  C   UNL     1       1.354  -3.959 -15.274  0.00  0.00    +0.001 A 
ATOM     29  C   UNL     1       2.732  -3.905 -15.524  0.00  0.00    +0.002 A 
ATOM     30  C   UNL     1       3.570  -3.113 -14.821  0.00  0.00    +0.026 A 
ATOM     31  C   UNL     1       3.071  -2.286 -13.777  0.00  0.00    +0.043 A 
ATOM     32  N   UNL     1       3.670  -1.445 -12.967  0.00  0.00    -0.370 N 
ATOM     33  H   UNL     1       4.619  -1.245 -12.957  0.00  0.00    +0.161 HD
ENDBRANCH  21  24
ENDBRANCH  19  20
ENDBRANCH  18  19
ENDBRANCH   3  18
TORSDOF 6
