REMARK  Name = ZINC43222994
REMARK  8 active torsions:
REMARK  status: ('A' for Active; 'I' for Inactive)
REMARK    1  A    between atoms: C_1  and  C_2
REMARK    2  A    between atoms: C_2  and  C_4
REMARK    3  A    between atoms: C_2  and  N_14
REMARK    4  A    between atoms: C_15  and  C_17
REMARK    5  A    between atoms: C_22  and  C_24
REMARK    6  A    between atoms: N_26  and  C_27
REMARK    7  A    between atoms: N_26  and  C_28
REMARK    8  A    between atoms: C_28  and  C_29
REMARK                            x       y       z     vdW  Elec       q    Type
REMARK                         _______ _______ _______ _____ _____    ______ ____
ROOT
ATOM      1  C   UNL     1      -3.002  -0.965  -1.381  0.00  0.00    +0.068 C 
ATOM      2  C   UNL     1      -3.881   0.013  -0.573  0.00  0.00    -0.069 C 
ATOM      3  N   UNL     1      -4.448   0.935  -1.590  0.00  0.00    +0.380 N 
ATOM      4  C   UNL     1      -4.762   0.056  -2.745  0.00  0.00    -0.069 C 
ATOM      5  C   UNL     1      -3.580  -0.939  -2.811  0.00  0.00    +0.068 C 
ATOM      6  H   UNL     1      -5.287   1.373  -1.240  0.00  0.00    -0.086 HD
ATOM      7  H   UNL     1      -3.768   1.633  -1.852  0.00  0.00    -0.086 HD
ENDROOT
BRANCH   1   9
ATOM      8  N   UNL     1      -0.881  -0.416  -0.232  0.00  0.00    -0.309 N 
ATOM      9  C   UNL     1      -1.569  -0.497  -1.388  0.00  0.00    +0.215 C 
ATOM     10  O   UNL     1      -1.035  -0.195  -2.434  0.00  0.00    -0.276 OA
ATOM     11  H   UNL     1      -1.308  -0.658   0.604  0.00  0.00    +0.149 HD
BRANCH   8  13
ATOM     12  C   UNL     1       0.553   1.560  -0.082  0.00  0.00    +0.033 C 
ATOM     13  C   UNL     1       0.512   0.038  -0.239  0.00  0.00    +0.101 C 
BRANCH  13  14
ATOM     14  C   UNL     1       1.256  -0.605   0.903  0.00  0.00    -0.020 A 
ATOM     15  C   UNL     1       0.584  -1.006   2.017  0.00  0.00    +0.006 A 
ATOM     16  C   UNL     1       1.255  -1.603   3.083  0.00  0.00    +0.001 A 
ATOM     17  C   UNL     1       2.601  -1.802   3.041  0.00  0.00    +0.008 A 
ATOM     18  C   UNL     1       3.328  -1.401   1.907  0.00  0.00    -0.018 A 
ATOM     19  C   UNL     1       2.645  -0.800   0.820  0.00  0.00    -0.013 A 
ATOM     20  C   UNL     1       3.371  -0.405  -0.316  0.00  0.00    +0.009 A 
ATOM     21  C   UNL     1       4.716  -0.609  -0.361  0.00  0.00    +0.001 A 
ATOM     22  C   UNL     1       5.386  -1.206   0.705  0.00  0.00    +0.001 A 
ATOM     23  C   UNL     1       4.718  -1.590   1.827  0.00  0.00    +0.008 A 
ENDBRANCH  13  14
ENDBRANCH   8  13
ENDBRANCH   1   9
BRANCH   5  24
ATOM     24  C   UNL     1      -4.069  -2.310  -3.203  0.00  0.00    +0.218 C 
ATOM     25  O   UNL     1      -4.565  -3.038  -2.369  0.00  0.00    -0.275 OA
ATOM     26  N   UNL     1      -3.957  -2.726  -4.479  0.00  0.00    -0.300 N 
ATOM     27  C   UNL     1      -3.472  -1.805  -5.510  0.00  0.00    +0.132 C 
BRANCH  26  28
ATOM     28  C   UNL     1      -4.319  -4.100  -4.836  0.00  0.00    +0.142 C 
BRANCH  28  29
ATOM     29  C   UNL     1      -5.777  -4.154  -5.213  0.00  0.00    -0.030 A 
ATOM     30  C   UNL     1      -6.733  -4.393  -4.243  0.00  0.00    +0.005 A 
ATOM     31  C   UNL     1      -8.071  -4.442  -4.589  0.00  0.00    +0.000 A 
ATOM     32  C   UNL     1      -8.453  -4.251  -5.903  0.00  0.00    +0.000 A 
ATOM     33  C   UNL     1      -7.497  -4.010  -6.873  0.00  0.00    +0.000 A 
ATOM     34  C   UNL     1      -6.160  -3.957  -6.527  0.00  0.00    +0.005 A 
ENDBRANCH  28  29
ENDBRANCH  26  28
ENDBRANCH   5  24
TORSDOF 6
