REMARK  Name = ZINC45069299
REMARK  8 active torsions:
REMARK  status: ('A' for Active; 'I' for Inactive)
REMARK    1  A    between atoms: C_1  and  C_2
REMARK    2  A    between atoms: C_2  and  C_4
REMARK    3  A    between atoms: C_2  and  N_12
REMARK    4  A    between atoms: N_12  and  C_13
REMARK    5  A    between atoms: C_13  and  C_14
REMARK    6  A    between atoms: C_14  and  C_15
REMARK    7  A    between atoms: C_15  and  S_16
REMARK    8  A    between atoms: S_16  and  N_19
REMARK                            x       y       z     vdW  Elec       q    Type
REMARK                         _______ _______ _______ _____ _____    ______ ____
ROOT
ATOM      1  N   UNL     1       0.690  -0.478  -1.207  0.00  0.00    +0.383 N 
ATOM      2  H   UNL     1       0.632  -1.484  -1.254  0.00  0.00    -0.085 HD
ATOM      3  H   UNL     1       0.251  -0.077  -2.022  0.00  0.00    -0.085 HD
ENDROOT
BRANCH   1   5
ATOM      4  C   UNL     1      -0.019   1.526   0.010  0.00  0.00    -0.009 C 
ATOM      5  C   UNL     1       0.002  -0.004   0.002  0.00  0.00    -0.043 C 
BRANCH   5   6
ATOM      6  C   UNL     1      -1.412  -0.526   0.013  0.00  0.00    -0.048 A 
ATOM      7  C   UNL     1      -1.997  -0.959  -1.162  0.00  0.00    +0.004 A 
ATOM      8  C   UNL     1      -3.294  -1.438  -1.153  0.00  0.00    +0.015 A 
ATOM      9  C   UNL     1      -4.006  -1.484   0.032  0.00  0.00    +0.019 A 
ATOM     10  C   UNL     1      -3.421  -1.050   1.208  0.00  0.00    +0.030 A 
ATOM     11  C   UNL     1      -2.121  -0.576   1.199  0.00  0.00    +0.021 A 
ATOM     12 BR   UNL     1      -1.317   0.009   2.807  0.00  0.00    -0.050 Br
ATOM     13 BR   UNL     1      -5.780  -2.139   0.045  0.00  0.00    -0.050 Br
ENDBRANCH   5   6
ENDBRANCH   1   5
BRANCH   1  14
ATOM     14  C   UNL     1       2.100  -0.070  -1.159  0.00  0.00    -0.080 C 
BRANCH  14  15
ATOM     15  C   UNL     1       2.816  -0.564  -2.418  0.00  0.00    +0.005 C 
BRANCH  15  16
ATOM     16  C   UNL     1       4.285  -0.139  -2.368  0.00  0.00    +0.183 C 
BRANCH  16  17
ATOM     17  S   UNL     1       5.135  -0.724  -3.861  0.00  0.00    +0.027 S 
ATOM     18  O   UNL     1       5.218  -2.143  -3.852  0.00  0.00    -0.158 OA
ATOM     19  O   UNL     1       4.647  -0.034  -5.003  0.00  0.00    -0.158 OA
BRANCH  17  20
ATOM     20  N   UNL     1       6.699  -0.208  -3.690  0.00  0.00    -0.208 NA
ATOM     21  H   UNL     1       7.424  -0.719  -4.084  0.00  0.00    +0.144 HD
ATOM     22  H   UNL     1       6.890   0.605  -3.197  0.00  0.00    +0.144 HD
ENDBRANCH  17  20
ENDBRANCH  16  17
ENDBRANCH  15  16
ENDBRANCH  14  15
ENDBRANCH   1  14
TORSDOF 7
