REMARK  Name = ZINC59777246
REMARK  10 active torsions:
REMARK  status: ('A' for Active; 'I' for Inactive)
REMARK    1  A    between atoms: C_1  and  C_2
REMARK    2  A    between atoms: C_2  and  C_33
REMARK    3  A    between atoms: C_4  and  N_10
REMARK    4  A    between atoms: C_6  and  C_8
REMARK    5  A    between atoms: C_6  and  C_9
REMARK    6  A    between atoms: C_11  and  C_13
REMARK    7  A    between atoms: C_13  and  S_14
REMARK    8  A    between atoms: S_14  and  C_15
REMARK    9  A    between atoms: C_18  and  C_26
REMARK   10  A    between atoms: N_19  and  C_20
REMARK                            x       y       z     vdW  Elec       q    Type
REMARK                         _______ _______ _______ _____ _____    ______ ____
ROOT
ATOM      1  S   UNL     1       5.867  -0.020  -4.824  0.00  0.00    -0.076 S 
ENDROOT
BRANCH   1   2
ATOM      2  C   UNL     1       6.365  -0.743  -6.352  0.00  0.00    +0.197 A 
ATOM      3  N   UNL     1       5.723  -1.675  -7.020  0.00  0.00    -0.122 NA
ATOM      4  N   UNL     1       6.365  -1.972  -8.093  0.00  0.00    -0.128 NA
ATOM      5  C   UNL     1       7.458  -1.250  -8.178  0.00  0.00    +0.169 A 
ATOM      6  N   UNL     1       7.490  -0.434  -7.067  0.00  0.00    -0.270 N 
BRANCH   5   7
ATOM      7  C   UNL     1       8.461  -1.297  -9.262  0.00  0.00    +0.020 A 
ATOM      8  C   UNL     1       9.719  -0.719  -9.079  0.00  0.00    +0.012 A 
ATOM      9  C   UNL     1      10.651  -0.767 -10.095  0.00  0.00    +0.016 A 
ATOM     10  C   UNL     1      10.341  -1.387 -11.293  0.00  0.00    +0.018 A 
ATOM     11  C   UNL     1       9.096  -1.962 -11.481  0.00  0.00    +0.016 A 
ATOM     12  C   UNL     1       8.157  -1.926 -10.470  0.00  0.00    +0.012 A 
ATOM     13 BR   UNL     1      11.625  -1.448 -12.680  0.00  0.00    -0.050 Br
ENDBRANCH   5   7
BRANCH   6  14
ATOM     14  C   UNL     1       8.471   0.511  -6.738  0.00  0.00    +0.051 A 
ATOM     15  C   UNL     1       8.653   1.631  -7.537  0.00  0.00    +0.026 A 
ATOM     16  C   UNL     1       9.621   2.561  -7.210  0.00  0.00    +0.002 A 
ATOM     17  C   UNL     1      10.408   2.377  -6.088  0.00  0.00    +0.000 A 
ATOM     18  C   UNL     1      10.229   1.262  -5.290  0.00  0.00    +0.002 A 
ATOM     19  C   UNL     1       9.258   0.332  -5.608  0.00  0.00    +0.026 A 
ENDBRANCH   6  14
ENDBRANCH   1   2
BRANCH   1  20
ATOM     20  C   UNL     1       4.312  -0.866  -4.426  0.00  0.00    +0.173 C 
BRANCH  20  22
ATOM     21  N   UNL     1       2.615  -0.819  -2.626  0.00  0.00    -0.312 N 
ATOM     22  C   UNL     1       3.770  -0.334  -3.123  0.00  0.00    +0.224 C 
ATOM     23  O   UNL     1       4.374   0.530  -2.523  0.00  0.00    -0.275 OA
ATOM     24  H   UNL     1       2.133  -1.510  -3.106  0.00  0.00    +0.149 HD
BRANCH  21  28
ATOM     25  C   UNL     1      -0.019   1.528   0.010  0.00  0.00    -0.010 C 
ATOM     26  C   UNL     1       0.002  -0.004   0.002  0.00  0.00    -0.072 C 
ATOM     27  C   UNL     1       0.573  -0.505  -1.321  0.00  0.00    +0.009 C 
ATOM     28  C   UNL     1       2.088  -0.301  -1.357  0.00  0.00    +0.070 C 
ATOM     29  C   UNL     1       2.703  -1.086  -0.198  0.00  0.00    +0.009 C 
ATOM     30  C   UNL     1       2.147  -0.590   1.133  0.00  0.00    -0.072 C 
ATOM     31  N   UNL     1       0.697  -0.529   1.164  0.00  0.00    +0.386 N 
ATOM     32  C   UNL     1       2.769   0.766   1.481  0.00  0.00    -0.010 C 
ATOM     33  C   UNL     1       2.600  -1.589   2.223  0.00  0.00    -0.010 C 
ATOM     34  C   UNL     1      -1.468  -0.478   0.079  0.00  0.00    -0.010 C 
ATOM     35  H   UNL     1       0.416   0.021   1.982  0.00  0.00    -0.084 HD
ATOM     36  H   UNL     1       0.341  -1.472   1.351  0.00  0.00    -0.084 HD
ENDBRANCH  21  28
ENDBRANCH  20  22
ENDBRANCH   1  20
TORSDOF 6
