REMARK  Name = ZINC11090606
REMARK  11 active torsions:
REMARK  status: ('A' for Active; 'I' for Inactive)
REMARK    1  A    between atoms: C_1  and  C_2
REMARK    2  A    between atoms: C_4  and  C_29
REMARK    3  A    between atoms: C_6  and  O_8
REMARK    4  A    between atoms: O_8  and  C_9
REMARK    5  A    between atoms: C_9  and  C_10
REMARK    6  A    between atoms: C_13  and  S_16
REMARK    7  A    between atoms: N_14  and  N_15
REMARK    8  A    between atoms: S_16  and  C_17
REMARK    9  A    between atoms: C_17  and  C_19
REMARK   10  A    between atoms: C_17  and  C_20
REMARK   11  A    between atoms: N_25  and  C_26
REMARK                            x       y       z     vdW  Elec       q    Type
REMARK                         _______ _______ _______ _____ _____    ______ ____
ROOT
ATOM      1  C   UNL     1      -4.382   2.513  -1.714  0.00  0.00    +0.189 A 
ATOM      2  N   UNL     1      -3.198   3.041  -1.845  0.00  0.00    -0.128 NA
ATOM      3  N   UNL     1      -2.420   2.617  -0.913  0.00  0.00    -0.121 NA
ATOM      4  C   UNL     1      -3.072   1.788  -0.131  0.00  0.00    +0.209 A 
ATOM      5  N   UNL     1      -4.343   1.691  -0.622  0.00  0.00    -0.225 N 
ENDROOT
BRANCH   5   6
ATOM      6  N   UNL     1      -5.364   0.934  -0.122  0.00  0.00    -0.295 N 
ATOM      7  H   UNL     1      -5.900   1.452   0.557  0.00  0.00    +0.163 HD
ATOM      8  H   UNL     1      -5.955   0.590  -0.864  0.00  0.00    +0.163 HD
ENDBRANCH   5   6
BRANCH   1   9
ATOM      9  C   UNL     1      -5.572   2.757  -2.606  0.00  0.00    +0.306 C 
BRANCH   9  10
ATOM     10  O   UNL     1      -5.574   1.803  -3.670  0.00  0.00    -0.484 OA
BRANCH  10  16
ATOM     11  C   UNL     1      -9.649   4.009  -5.201  0.00  0.00    +0.044 C 
ATOM     12  C   UNL     1      -8.592   2.946  -5.349  0.00  0.00    -0.047 A 
ATOM     13  C   UNL     1      -8.653   2.053  -6.403  0.00  0.00    +0.007 A 
ATOM     14  C   UNL     1      -7.684   1.077  -6.543  0.00  0.00    -0.047 A 
ATOM     15  C   UNL     1      -6.652   0.991  -5.629  0.00  0.00    +0.049 A 
ATOM     16  C   UNL     1      -6.588   1.886  -4.570  0.00  0.00    +0.122 A 
ATOM     17  C   UNL     1      -7.565   2.861  -4.429  0.00  0.00    +0.049 A 
ATOM     18  C   UNL     1      -7.754   0.105  -7.693  0.00  0.00    +0.044 C 
ENDBRANCH  10  16
ENDBRANCH   9  10
ENDBRANCH   1   9
BRANCH   4  19
ATOM     19  S   UNL     1      -2.427   0.953   1.280  0.00  0.00    -0.072 S 
BRANCH  19  20
ATOM     20  C   UNL     1      -0.729   1.579   1.267  0.00  0.00    +0.137 C 
ATOM     21  C   UNL     1      -0.013   1.086   0.008  0.00  0.00    +0.029 C 
BRANCH  20  22
ATOM     22  C   UNL     1       0.000   1.080   2.488  0.00  0.00    +0.234 C 
ATOM     23  O   UNL     1      -0.360   0.059   3.034  0.00  0.00    -0.274 OA
ATOM     24  N   UNL     1       1.052   1.768   2.973  0.00  0.00    -0.239 N 
ATOM     25  C   UNL     1       1.704   1.322   4.065  0.00  0.00    +0.306 C 
ATOM     26  O   UNL     1       1.343   0.299   4.612  0.00  0.00    -0.252 OA
ATOM     27  N   UNL     1       2.756   2.010   4.550  0.00  0.00    -0.296 N 
ATOM     28  H   UNL     1       1.340   2.585   2.536  0.00  0.00    +0.159 HD
ATOM     29  H   UNL     1       3.044   2.827   4.113  0.00  0.00    +0.151 HD
BRANCH  27  30
ATOM     30  C   UNL     1       3.465   1.525   5.737  0.00  0.00    +0.075 C 
ATOM     31  C   UNL     1       3.839   2.554   6.806  0.00  0.00    +0.024 C 
ATOM     32  C   UNL     1       4.924   1.950   5.911  0.00  0.00    +0.024 C 
ENDBRANCH  27  30
ENDBRANCH  20  22
ENDBRANCH  19  20
ENDBRANCH   4  19
TORSDOF 8
