REMARK  Name = ZINC41070064
REMARK  10 active torsions:
REMARK  status: ('A' for Active; 'I' for Inactive)
REMARK    1  A    between atoms: C_1  and  C_2
REMARK    2  A    between atoms: C_2  and  C_4
REMARK    3  A    between atoms: C_2  and  N_8
REMARK    4  A    between atoms: C_4  and  C_5
REMARK    5  A    between atoms: C_5  and  C_6
REMARK    6  A    between atoms: C_5  and  C_7
REMARK    7  A    between atoms: N_8  and  S_9
REMARK    8  A    between atoms: S_9  and  C_12
REMARK    9  A    between atoms: C_17  and  N_18
REMARK   10  A    between atoms: N_18  and  N_19
REMARK                            x       y       z     vdW  Elec       q    Type
REMARK                         _______ _______ _______ _____ _____    ______ ____
ROOT
ATOM      1  C   UNL     1      -1.816  -2.214  -2.014  0.00  0.00    +0.147 A 
ATOM      2  C   UNL     1      -0.630  -2.008  -2.696  0.00  0.00    +0.048 A 
ATOM      3  C   UNL     1       0.330  -3.012  -2.674  0.00  0.00    +0.038 A 
ATOM      4  C   UNL     1       0.074  -4.177  -1.977  0.00  0.00    +0.128 A 
ATOM      5  N   UNL     1      -1.067  -4.346  -1.336  0.00  0.00    -0.236 NA
ATOM      6  C   UNL     1      -2.004  -3.410  -1.329  0.00  0.00    +0.159 A 
ATOM      7 BR   UNL     1       1.969  -2.786  -3.588  0.00  0.00    -0.049 Br
ENDROOT
BRANCH   1   8
ATOM      8  S   UNL     1      -3.069  -0.975  -2.007  0.00  0.00    +0.062 S 
ATOM      9  O   UNL     1      -4.286  -1.626  -2.346  0.00  0.00    -0.153 OA
ATOM     10  O   UNL     1      -2.559   0.122  -2.753  0.00  0.00    -0.153 OA
BRANCH   8  11
ATOM     11  N   UNL     1      -3.232  -0.451  -0.445  0.00  0.00    -0.187 NA
ATOM     12  H   UNL     1      -4.089  -0.519   0.003  0.00  0.00    +0.148 HD
BRANCH  11  14
ATOM     13  C   UNL     1      -2.041   1.629   0.042  0.00  0.00    +0.025 C 
ATOM     14  C   UNL     1      -2.080   0.116   0.261  0.00  0.00    +0.074 C 
BRANCH  14  15
ATOM     15  C   UNL     1      -2.203  -0.180   1.757  0.00  0.00    +0.023 C 
BRANCH  15  16
ATOM     16  C   UNL     1      -2.074  -1.687   1.991  0.00  0.00    -0.016 C 
ATOM     17  C   UNL     1      -0.691  -2.158   1.534  0.00  0.00    +0.007 C 
ATOM     18  C   UNL     1      -2.248  -1.988   3.481  0.00  0.00    +0.007 C 
ENDBRANCH  15  16
ENDBRANCH  14  15
ENDBRANCH  11  14
ENDBRANCH   8  11
ENDBRANCH   1   8
BRANCH   6  19
ATOM     19  N   UNL     1      -3.189  -3.627  -0.634  0.00  0.00    -0.266 N 
ATOM     20  H   UNL     1      -3.792  -2.887  -0.460  0.00  0.00    +0.167 HD
BRANCH  19  21
ATOM     21  N   UNL     1      -3.504  -4.882  -0.197  0.00  0.00    -0.255 NA
ATOM     22  H   UNL     1      -2.771  -5.257   0.386  0.00  0.00    +0.140 HD
ATOM     23  H   UNL     1      -4.389  -4.885   0.288  0.00  0.00    +0.140 HD
ENDBRANCH  19  21
ENDBRANCH   6  19
TORSDOF 7
