REMARK  Name = ZINC41773443
REMARK  10 active torsions:
REMARK  status: ('A' for Active; 'I' for Inactive)
REMARK    1  A    between atoms: C_1  and  C_2
REMARK    2  A    between atoms: C_2  and  C_3
REMARK    3  A    between atoms: N_5  and  C_6
REMARK    4  A    between atoms: C_9  and  C_12
REMARK    5  A    between atoms: C_12  and  C_14
REMARK    6  A    between atoms: C_12  and  N_15
REMARK    7  A    between atoms: C_16  and  C_18
REMARK    8  A    between atoms: N_20  and  C_21
REMARK    9  A    between atoms: C_26  and  C_27
REMARK   10  A    between atoms: C_27  and  C_28
REMARK                            x       y       z     vdW  Elec       q    Type
REMARK                         _______ _______ _______ _____ _____    ______ ____
ROOT
ATOM      1  N   UNL     1      -7.102  -4.766  -1.204  0.00  0.00    -0.301 N 
ATOM      2  C   UNL     1      -8.258  -5.060  -1.832  0.00  0.00    +0.300 C 
ATOM      3  O   UNL     1      -9.229  -4.348  -1.681  0.00  0.00    -0.265 OA
ATOM      4  H   UNL     1      -6.326  -5.335  -1.325  0.00  0.00    +0.150 HD
ENDROOT
BRANCH   2   5
ATOM      5  C   UNL     1      -8.343  -6.262  -2.714  0.00  0.00    +0.303 C 
ATOM      6  O   UNL     1      -7.372  -6.974  -2.865  0.00  0.00    -0.265 OA
ATOM      7  N   UNL     1      -9.499  -6.556  -3.342  0.00  0.00    -0.277 N 
ATOM      8  H   UNL     1     -10.255  -5.952  -3.275  0.00  0.00    +0.155 HD
BRANCH   7   9
ATOM      9  C   UNL     1      -9.608  -7.731  -4.090  0.00  0.00    +0.037 A 
ATOM     10  C   UNL     1      -8.511  -8.213  -4.794  0.00  0.00    +0.023 A 
ATOM     11  C   UNL     1      -8.623  -9.375  -5.532  0.00  0.00    +0.002 A 
ATOM     12  C   UNL     1      -9.825 -10.059  -5.571  0.00  0.00    +0.000 A 
ATOM     13  C   UNL     1     -10.918  -9.582  -4.872  0.00  0.00    +0.006 A 
ATOM     14  C   UNL     1     -10.812  -8.424  -4.127  0.00  0.00    -0.017 A 
BRANCH  14  15
ATOM     15  C   UNL     1     -12.002  -7.909  -3.360  0.00  0.00    +0.132 C 
BRANCH  15  16
ATOM     16  C   UNL     1     -12.732  -6.886  -4.191  0.00  0.00    +0.215 C 
ATOM     17  O   UNL     1     -12.325  -6.603  -5.298  0.00  0.00    -0.276 OA
ATOM     18  N   UNL     1     -13.836  -6.285  -3.705  0.00  0.00    -0.329 N 
ATOM     19  H   UNL     1     -14.162  -6.511  -2.820  0.00  0.00    +0.145 HD
ATOM     20  H   UNL     1     -14.306  -5.627  -4.241  0.00  0.00    +0.145 HD
ENDBRANCH  15  16
ENDBRANCH  14  15
ENDBRANCH   7   9
ENDBRANCH   2   5
BRANCH   1  21
ATOM     21  C   UNL     1      -7.018  -3.586  -0.339  0.00  0.00    +0.101 C 
ATOM     22  C   UNL     1      -7.518  -3.944   1.062  0.00  0.00    +0.033 C 
BRANCH  21  26
ATOM     23  C   UNL     1      -2.957  -2.273  -0.111  0.00  0.00    +0.033 A 
ATOM     24  C   UNL     1      -3.985  -1.344  -0.202  0.00  0.00    +0.023 A 
ATOM     25  C   UNL     1      -5.296  -1.771  -0.275  0.00  0.00    +0.007 A 
ATOM     26  C   UNL     1      -5.586  -3.123  -0.259  0.00  0.00    -0.027 A 
ATOM     27  C   UNL     1      -4.565  -4.051  -0.169  0.00  0.00    +0.007 A 
ATOM     28  C   UNL     1      -3.251  -3.631  -0.101  0.00  0.00    +0.023 A 
BRANCH  23  31
ATOM     29  C   UNL     1      -0.653  -2.559  -0.632  0.00  0.00    +0.217 C 
ATOM     30  O   UNL     1      -0.917  -3.618  -1.162  0.00  0.00    -0.275 OA
ATOM     31  N   UNL     1      -1.628  -1.843  -0.036  0.00  0.00    -0.286 N 
ATOM     32  H   UNL     1      -1.407  -1.030   0.444  0.00  0.00    +0.155 HD
BRANCH  29  34
ATOM     33  C   UNL     1       1.663  -3.039  -1.375  0.00  0.00    +0.013 C 
ATOM     34  C   UNL     1       0.763  -2.044  -0.640  0.00  0.00    +0.093 C 
ENDBRANCH  29  34
ENDBRANCH  23  31
ENDBRANCH  21  26
ENDBRANCH   1  21
TORSDOF 8
