REMARK  Name = ZINC63573222
REMARK  5 active torsions:
REMARK  status: ('A' for Active; 'I' for Inactive)
REMARK    1  A    between atoms: C_1  and  O_2
REMARK    2  A    between atoms: O_2  and  C_3
REMARK    3  A    between atoms: C_10  and  C_31
REMARK    4  A    between atoms: N_20  and  C_21
REMARK    5  A    between atoms: C_26  and  C_27
REMARK                            x       y       z     vdW  Elec       q    Type
REMARK                         _______ _______ _______ _____ _____    ______ ____
ROOT
ATOM      1  C   UNL     1       1.403  -0.741  -0.552  0.00  0.00    +0.121 A 
ATOM      2  C   UNL     1       2.423   0.017  -1.153  0.00  0.00    +0.047 A 
ATOM      3  C   UNL     1       3.234  -0.486  -2.108  0.00  0.00    +0.029 A 
ATOM      4  C   UNL     1       3.066  -1.872  -2.552  0.00  0.00    +0.043 A 
ATOM      5  N   UNL     1       3.719  -2.596  -3.431  0.00  0.00    -0.375 N 
ATOM      6  C   UNL     1       3.073  -3.903  -3.529  0.00  0.00    +0.131 C 
ATOM      7  C   UNL     1       4.048  -5.046  -3.228  0.00  0.00    +0.134 C 
ATOM      8  N   UNL     1       3.256  -6.254  -2.950  0.00  0.00    -0.276 N 
ATOM      9  C   UNL     1       2.295  -6.279  -1.842  0.00  0.00    +0.114 C 
ATOM     10  C   UNL     1       1.258  -5.158  -2.042  0.00  0.00    +0.052 C 
ATOM     11  C   UNL     1       2.009  -3.908  -2.443  0.00  0.00    -0.035 C 
ATOM     12  C   UNL     1       1.994  -2.677  -1.914  0.00  0.00    +0.003 A 
ATOM     13  C   UNL     1       1.170  -2.032  -0.885  0.00  0.00    +0.055 A 
ATOM     14  C   UNL     1       3.415  -7.349  -3.721  0.00  0.00    +0.307 C 
ATOM     15  O   UNL     1       4.310  -7.389  -4.542  0.00  0.00    -0.252 OA
ATOM     16  N   UNL     1       2.581  -8.398  -3.580  0.00  0.00    -0.269 N 
ATOM     17  H   UNL     1       1.824  -8.339  -2.977  0.00  0.00    +0.156 HD
ATOM     18  H   UNL     1       4.499  -2.311  -3.933  0.00  0.00    +0.160 HD
ENDROOT
BRANCH   7  19
ATOM     19  C   UNL     1       4.940  -5.283  -4.419  0.00  0.00    -0.025 A 
ATOM     20  C   UNL     1       4.402  -5.296  -5.693  0.00  0.00    +0.008 A 
ATOM     21  C   UNL     1       5.219  -5.513  -6.786  0.00  0.00    +0.038 A 
ATOM     22  C   UNL     1       6.577  -5.716  -6.606  0.00  0.00    +0.123 A 
ATOM     23  C   UNL     1       7.115  -5.702  -5.330  0.00  0.00    +0.038 A 
ATOM     24  C   UNL     1       6.297  -5.480  -4.239  0.00  0.00    +0.008 A 
ATOM     25  F   UNL     1       7.376  -5.928  -7.674  0.00  0.00    -0.205 F 
ENDBRANCH   7  19
BRANCH  16  26
ATOM     26  C   UNL     1       2.807  -9.573  -4.306  0.00  0.00    +0.046 A 
ATOM     27  C   UNL     1       3.497  -9.526  -5.510  0.00  0.00    +0.024 A 
ATOM     28  C   UNL     1       3.720 -10.688  -6.223  0.00  0.00    +0.002 A 
ATOM     29  C   UNL     1       3.255 -11.897  -5.740  0.00  0.00    +0.001 A 
ATOM     30  C   UNL     1       2.567 -11.948  -4.541  0.00  0.00    +0.014 A 
ATOM     31  C   UNL     1       2.347 -10.790  -3.820  0.00  0.00    +0.076 A 
BRANCH  31  32
ATOM     32  C   UNL     1       1.603 -10.847  -2.511  0.00  0.00    +0.419 C 
ATOM     33  F   UNL     1       1.245 -12.171  -2.235  0.00  0.00    -0.166 F 
ATOM     34  F   UNL     1       2.424 -10.363  -1.486  0.00  0.00    -0.166 F 
ATOM     35  F   UNL     1       0.450 -10.060  -2.596  0.00  0.00    -0.166 F 
ENDBRANCH  31  32
ENDBRANCH  16  26
BRANCH   1  37
ATOM     36  C   UNL     1       0.907   1.206   0.720  0.00  0.00    +0.277 C 
ATOM     37  O   UNL     1       0.627  -0.158   0.400  0.00  0.00    -0.495 OA
ENDBRANCH   1  37
TORSDOF 4
