REMARK  Name = ZINC36580567
REMARK  18 active torsions:
REMARK  status: ('A' for Active; 'I' for Inactive)
REMARK    1  A    between atoms: C_1  and  C_2
REMARK    2  A    between atoms: C_5  and  S_8
REMARK    3  A    between atoms: S_8  and  C_11
REMARK    4  A    between atoms: C_11  and  N_12
REMARK    5  A    between atoms: C_13  and  C_15
REMARK    6  A    between atoms: C_15  and  C_17
REMARK    7  A    between atoms: C_15  and  N_26
REMARK    8  A    between atoms: C_18  and  O_25
REMARK    9  A    between atoms: C_20  and  O_24
REMARK   10  A    between atoms: C_22  and  O_23
REMARK   11  A    between atoms: N_26  and  C_33
REMARK   12  A    between atoms: C_27  and  C_29
REMARK   13  A    between atoms: C_29  and  C_30
REMARK   14  A    between atoms: C_30  and  C_31
REMARK   15  A    between atoms: C_30  and  C_32
REMARK   16  A    between atoms: C_33  and  C_34
REMARK   17  A    between atoms: C_33  and  C_35
REMARK   18  A    between atoms: C_33  and  C_36
REMARK                            x       y       z     vdW  Elec       q    Type
REMARK                         _______ _______ _______ _____ _____    ______ ____
ROOT
ATOM      1  C   UNL     1       3.688  -5.909   1.881  0.00  0.00    +0.200 C 
ENDROOT
BRANCH   1   2
ATOM      2  C   UNL     1       2.786  -4.776   1.464  0.00  0.00    +0.065 A 
ATOM      3  C   UNL     1       1.457  -4.767   1.860  0.00  0.00    +0.129 A 
ATOM      4  C   UNL     1       0.627  -3.724   1.477  0.00  0.00    +0.091 A 
ATOM      5  C   UNL     1       1.126  -2.691   0.699  0.00  0.00    +0.124 A 
ATOM      6  C   UNL     1       2.456  -2.699   0.304  0.00  0.00    +0.091 A 
ATOM      7  C   UNL     1       3.287  -3.740   0.691  0.00  0.00    +0.129 A 
BRANCH   7   8
ATOM      8  O   UNL     1       4.591  -3.746   0.308  0.00  0.00    -0.506 OA
ATOM      9  H   UNL     1       4.751  -4.191  -0.536  0.00  0.00    +0.292 HD
ENDBRANCH   7   8
BRANCH   5  10
ATOM     10  O   UNL     1       0.313  -1.669   0.322  0.00  0.00    -0.507 OA
ATOM     11  H   UNL     1       0.297  -0.929   0.945  0.00  0.00    +0.292 HD
ENDBRANCH   5  10
BRANCH   3  12
ATOM     12  O   UNL     1       0.968  -5.780   2.623  0.00  0.00    -0.506 OA
ATOM     13  H   UNL     1       1.107  -5.660   3.572  0.00  0.00    +0.292 HD
ENDBRANCH   3  12
ENDBRANCH   1   2
BRANCH   1  15
ATOM     14  N   UNL     1       3.261  -6.894  -0.348  0.00  0.00    -0.294 N 
ATOM     15  C   UNL     1       3.466  -7.089   0.970  0.00  0.00    +0.240 C 
ATOM     16  O   UNL     1       3.472  -8.214   1.423  0.00  0.00    -0.273 OA
ATOM     17  H   UNL     1       3.256  -5.994  -0.710  0.00  0.00    +0.150 HD
BRANCH  14  18
ATOM     18  C   UNL     1       3.045  -8.041  -1.233  0.00  0.00    +0.278 C 
BRANCH  18  19
ATOM     19  S   UNL     1       1.264  -8.319  -1.438  0.00  0.00    +0.013 S 
ATOM     20  O   UNL     1       0.615  -8.291  -0.175  0.00  0.00    -0.168 OA
ATOM     21  O   UNL     1       1.037  -9.389  -2.345  0.00  0.00    -0.168 OA
BRANCH  19  26
ATOM     22  C   UNL     1      -0.754  -3.413  -4.314  0.00  0.00    +0.044 C 
ATOM     23  C   UNL     1      -0.250  -4.638  -3.596  0.00  0.00    -0.050 A 
ATOM     24  C   UNL     1       0.187  -5.733  -4.319  0.00  0.00    +0.005 A 
ATOM     25  C   UNL     1       0.649  -6.857  -3.660  0.00  0.00    +0.027 A 
ATOM     26  C   UNL     1       0.676  -6.886  -2.278  0.00  0.00    +0.090 A 
ATOM     27  C   UNL     1       0.240  -5.791  -1.555  0.00  0.00    +0.027 A 
ATOM     28  C   UNL     1      -0.218  -4.666  -2.214  0.00  0.00    +0.005 A 
ENDBRANCH  19  26
ENDBRANCH  18  19
ENDBRANCH  14  18
ENDBRANCH   1  15
BRANCH   1  29
ATOM     29  N   UNL     1       3.384  -6.294   3.261  0.00  0.00    -0.281 N 
ATOM     30  C   UNL     1       3.524  -5.397   4.257  0.00  0.00    +0.217 C 
ATOM     31  O   UNL     1       3.512  -4.210   4.010  0.00  0.00    -0.276 OA
BRANCH  29  32
ATOM     32  C   UNL     1       2.927  -7.654   3.559  0.00  0.00    +0.030 C 
ATOM     33  C   UNL     1       4.098  -8.628   3.416  0.00  0.00    +0.031 C 
ATOM     34  C   UNL     1       2.389  -7.709   4.990  0.00  0.00    +0.031 C 
ATOM     35  C   UNL     1       1.816  -8.044   2.581  0.00  0.00    +0.031 C 
ENDBRANCH  29  32
BRANCH  30  36
ATOM     36  C   UNL     1       3.697  -5.869   5.678  0.00  0.00    +0.099 C 
BRANCH  36  37
ATOM     37  C   UNL     1       4.276  -4.735   6.526  0.00  0.00    -0.008 C 
ATOM     38  C   UNL     1       3.266  -3.588   6.601  0.00  0.00    +0.008 C 
ATOM     39  C   UNL     1       4.567  -5.250   7.937  0.00  0.00    +0.008 C 
ENDBRANCH  36  37
ENDBRANCH  30  36
ENDBRANCH   1  29
TORSDOF 12
