REMARK  Name = ZINC59385526
REMARK  10 active torsions:
REMARK  status: ('A' for Active; 'I' for Inactive)
REMARK    1  A    between atoms: C_1  and  C_2
REMARK    2  A    between atoms: C_3  and  C_19
REMARK    3  A    between atoms: C_4  and  C_10
REMARK    4  A    between atoms: C_13  and  O_18
REMARK    5  A    between atoms: C_14  and  O_16
REMARK    6  A    between atoms: O_16  and  C_17
REMARK    7  A    between atoms: N_21  and  N_22
REMARK    8  A    between atoms: C_23  and  C_24
REMARK    9  A    between atoms: C_27  and  O_31
REMARK   10  A    between atoms: C_29  and  O_30
REMARK                            x       y       z     vdW  Elec       q    Type
REMARK                         _______ _______ _______ _____ _____    ______ ____
ROOT
ATOM      1  C   UNL     1      -0.128   1.449   0.375  0.00  0.00    +0.061 C 
ATOM      2  C   UNL     1      -0.040  -0.043   0.182  0.00  0.00    +0.019 C 
ATOM      3  C   UNL     1      -1.159  -0.743  -0.098  0.00  0.00    +0.057 C 
ATOM      4  C   UNL     1      -1.027  -2.241  -0.284  0.00  0.00    +0.142 C 
ATOM      5  N   UNL     1       0.322  -2.814  -0.145  0.00  0.00    -0.288 N 
ATOM      6  C   UNL     1       1.346  -1.984   0.137  0.00  0.00    +0.304 C 
ATOM      7  O   UNL     1       2.464  -2.448   0.254  0.00  0.00    -0.252 OA
ATOM      8  N   UNL     1       1.173  -0.665   0.287  0.00  0.00    -0.273 N 
ATOM      9  H   UNL     1       0.471  -3.767  -0.253  0.00  0.00    +0.151 HD
ATOM     10  H   UNL     1       1.951  -0.121   0.485  0.00  0.00    +0.156 HD
ENDROOT
BRANCH   4  11
ATOM     11  C   UNL     1      -1.537  -2.584  -1.660  0.00  0.00    -0.019 A 
ATOM     12  C   UNL     1      -2.651  -3.391  -1.802  0.00  0.00    +0.009 A 
ATOM     13  C   UNL     1      -3.122  -3.709  -3.062  0.00  0.00    +0.049 A 
ATOM     14  C   UNL     1      -2.478  -3.218  -4.186  0.00  0.00    +0.158 A 
ATOM     15  C   UNL     1      -1.357  -2.406  -4.044  0.00  0.00    +0.162 A 
ATOM     16  C   UNL     1      -0.893  -2.087  -2.778  0.00  0.00    +0.055 A 
BRANCH  15  17
ATOM     17  O   UNL     1      -0.722  -1.922  -5.145  0.00  0.00    -0.491 OA
ATOM     18  C   UNL     1       0.485  -1.189  -4.928  0.00  0.00    +0.277 C 
ENDBRANCH  15  17
BRANCH  14  19
ATOM     19  O   UNL     1      -2.941  -3.530  -5.427  0.00  0.00    -0.503 OA
ATOM     20  H   UNL     1      -3.594  -2.906  -5.771  0.00  0.00    +0.292 HD
ENDBRANCH  14  19
ENDBRANCH   4  11
BRANCH   3  21
ATOM     21  C   UNL     1      -2.416  -0.100  -0.212  0.00  0.00    +0.263 C 
ATOM     22  O   UNL     1      -2.483   1.116  -0.177  0.00  0.00    -0.269 OA
ATOM     23  N   UNL     1      -3.538  -0.832  -0.359  0.00  0.00    -0.203 N 
ATOM     24  H   UNL     1      -3.495  -1.800  -0.308  0.00  0.00    +0.178 HD
BRANCH  23  25
ATOM     25  N   UNL     1      -4.766  -0.196  -0.584  0.00  0.00    -0.187 NA
ATOM     26  C   UNL     1      -5.860  -0.894  -0.628  0.00  0.00    +0.142 C 
BRANCH  26  27
ATOM     27  C   UNL     1      -7.135  -0.243  -0.974  0.00  0.00    +0.036 A 
ATOM     28  C   UNL     1      -8.315  -0.990  -1.017  0.00  0.00    +0.016 A 
ATOM     29  C   UNL     1      -9.506  -0.377  -1.341  0.00  0.00    +0.046 A 
ATOM     30  C   UNL     1      -9.538   0.983  -1.627  0.00  0.00    +0.120 A 
ATOM     31  C   UNL     1      -8.371   1.733  -1.587  0.00  0.00    +0.091 A 
ATOM     32  C   UNL     1      -7.170   1.130  -1.257  0.00  0.00    +0.129 A 
BRANCH  32  33
ATOM     33  O   UNL     1      -6.029   1.865  -1.213  0.00  0.00    -0.506 OA
ATOM     34  H   UNL     1      -5.554   1.905  -2.054  0.00  0.00    +0.292 HD
ENDBRANCH  32  33
BRANCH  30  35
ATOM     35  O   UNL     1     -10.715   1.579  -1.946  0.00  0.00    -0.507 OA
ATOM     36  H   UNL     1     -11.199   1.928  -1.185  0.00  0.00    +0.292 HD
ENDBRANCH  30  35
ENDBRANCH  26  27
ENDBRANCH  23  25
ENDBRANCH   3  21
TORSDOF 8
