REMARK  Name = ZINC34759230
REMARK  13 active torsions:
REMARK  status: ('A' for Active; 'I' for Inactive)
REMARK    1  A    between atoms: C_1  and  C_2
REMARK    2  A    between atoms: C_2  and  C_3
REMARK    3  A    between atoms: C_8  and  N_9
REMARK    4  A    between atoms: C_19  and  C_20
REMARK    5  A    between atoms: C_20  and  C_22
REMARK    6  A    between atoms: C_20  and  N_23
REMARK    7  A    between atoms: N_23  and  C_24
REMARK    8  A    between atoms: C_24  and  C_25
REMARK    9  A    between atoms: C_25  and  N_26
REMARK   10  A    between atoms: N_26  and  C_27
REMARK   11  A    between atoms: N_26  and  C_28
REMARK   12  A    between atoms: N_31  and  C_32
REMARK   13  A    between atoms: C_35  and  N_38
REMARK                            x       y       z     vdW  Elec       q    Type
REMARK                         _______ _______ _______ _____ _____    ______ ____
ROOT
ATOM      1  C   UNL     1       3.032   1.911  -0.553  0.00  0.00    +0.141 C 
ATOM      2  C   UNL     1       3.419   1.299  -1.901  0.00  0.00    +0.036 C 
ENDROOT
BRANCH   1  13
ATOM      3  N   UNL     1       2.901  -0.103   0.859  0.00  0.00    -0.263 N 
ATOM      4  C   UNL     1       3.342  -0.915   1.848  0.00  0.00    +0.266 A 
ATOM      5  O   UNL     1       2.763  -1.950   2.122  0.00  0.00    -0.267 OA
ATOM      6  C   UNL     1       4.549  -0.499   2.578  0.00  0.00    +0.065 A 
ATOM      7  C   UNL     1       5.084  -1.264   3.613  0.00  0.00    +0.015 A 
ATOM      8  C   UNL     1       6.217  -0.828   4.263  0.00  0.00    +0.001 A 
ATOM      9  C   UNL     1       6.827   0.365   3.897  0.00  0.00    +0.002 A 
ATOM     10  C   UNL     1       6.314   1.135   2.878  0.00  0.00    +0.028 A 
ATOM     11  C   UNL     1       5.167   0.714   2.203  0.00  0.00    +0.078 A 
ATOM     12  N   UNL     1       4.628   1.442   1.193  0.00  0.00    -0.231 NA
ATOM     13  C   UNL     1       3.564   1.048   0.562  0.00  0.00    +0.138 A 
BRANCH   3  19
ATOM     14  C   UNL     1       0.499  -0.095   0.600  0.00  0.00    -0.024 A 
ATOM     15  C   UNL     1      -0.628  -0.437  -0.122  0.00  0.00    +0.005 A 
ATOM     16  C   UNL     1      -0.505  -1.140  -1.306  0.00  0.00    +0.000 A 
ATOM     17  C   UNL     1       0.746  -1.503  -1.772  0.00  0.00    +0.002 A 
ATOM     18  C   UNL     1       1.876  -1.164  -1.054  0.00  0.00    +0.026 A 
ATOM     19  C   UNL     1       1.757  -0.453   0.132  0.00  0.00    +0.054 A 
BRANCH  14  21
ATOM     20  C   UNL     1       0.506   2.170   1.611  0.00  0.00    +0.009 C 
ATOM     21  C   UNL     1       0.364   0.672   1.890  0.00  0.00    +0.034 C 
ENDBRANCH  14  21
ENDBRANCH   3  19
ENDBRANCH   1  13
BRANCH   1  22
ATOM     22  N   UNL     1       3.604   3.255  -0.445  0.00  0.00    -0.277 N 
ATOM     23  C   UNL     1       2.795   4.321  -0.281  0.00  0.00    +0.307 C 
ATOM     24  O   UNL     1       1.590   4.166  -0.224  0.00  0.00    -0.252 OA
ATOM     25  N   UNL     1       3.321   5.558  -0.182  0.00  0.00    -0.269 N 
ATOM     26  H   UNL     1       4.275   5.689  -0.295  0.00  0.00    +0.156 HD
BRANCH  25  27
ATOM     27  C   UNL     1       2.490   6.652   0.085  0.00  0.00    +0.035 A 
ATOM     28  C   UNL     1       2.950   7.699   0.872  0.00  0.00    +0.025 A 
ATOM     29  C   UNL     1       2.128   8.778   1.133  0.00  0.00    +0.034 A 
ATOM     30  C   UNL     1       0.848   8.816   0.611  0.00  0.00    +0.126 A 
ATOM     31  C   UNL     1       0.387   7.775  -0.174  0.00  0.00    +0.034 A 
ATOM     32  C   UNL     1       1.206   6.696  -0.443  0.00  0.00    +0.025 A 
BRANCH  30  33
ATOM     33  N   UNL     1      -0.030   9.974   0.892  0.00  0.00    +0.056 N 
ATOM     34  O   UNL     1       0.371  10.884   1.578  0.00  0.00    -0.126 OA
ATOM     35  O   UNL     1      -1.149  10.008   0.435  0.00  0.00    -0.126 OA
ENDBRANCH  30  33
ENDBRANCH  25  27
BRANCH  22  36
ATOM     36  C   UNL     1       5.055   3.442  -0.514  0.00  0.00    +0.091 C 
BRANCH  36  37
ATOM     37  C   UNL     1       5.473   3.659  -1.970  0.00  0.00    -0.060 C 
BRANCH  37  38
ATOM     38  N   UNL     1       6.928   3.846  -2.040  0.00  0.00    +0.377 N 
ATOM     39  C   UNL     1       7.343   3.936  -3.446  0.00  0.00    -0.097 C 
ATOM     40  C   UNL     1       7.296   5.085  -1.341  0.00  0.00    -0.097 C 
ATOM     41  H   UNL     1       7.389   3.063  -1.602  0.00  0.00    -0.083 HD
ENDBRANCH  37  38
ENDBRANCH  36  37
ENDBRANCH  22  36
ENDBRANCH   1  22
TORSDOF 9
