REMARK  Name = ZINC21953828
REMARK  6 active torsions:
REMARK  status: ('A' for Active; 'I' for Inactive)
REMARK    1  A    between atoms: C_1  and  N_2
REMARK    2  A    between atoms: N_2  and  C_3
REMARK    3  A    between atoms: N_2  and  C_4
REMARK    4  A    between atoms: C_4  and  C_5
REMARK    5  A    between atoms: C_10  and  C_11
REMARK    6  A    between atoms: N_12  and  O_13
REMARK                            x       y       z     vdW  Elec       q    Type
REMARK                         _______ _______ _______ _____ _____    ______ ____
ROOT
ATOM      1  C   UNL     1       2.396   1.397  -0.013  0.00  0.00    -0.053 A 
ATOM      2  C   UNL     1       2.401   0.017  -0.021  0.00  0.00    +0.002 A 
ATOM      3  C   UNL     1       1.208  -0.682  -0.013  0.00  0.00    +0.000 A 
ATOM      4  C   UNL     1       0.002  -0.004   0.002  0.00  0.00    +0.001 A 
ATOM      5  C   UNL     1      -0.017   1.375   0.010  0.00  0.00    +0.011 A 
ATOM      6  C   UNL     1       1.183   2.086   0.002  0.00  0.00    +0.019 A 
ENDROOT
BRANCH   6   7
ATOM      7  C   UNL     1       1.170   3.567   0.010  0.00  0.00    +0.163 C 
ATOM      8  N   UNL     1       2.291   4.227   0.003  0.00  0.00    -0.072 NA
ATOM      9  N   UNL     1      -0.035   4.248   0.025  0.00  0.00    -0.340 N 
ATOM     10  H   UNL     1      -0.044   5.348   0.031  0.00  0.00    +0.144 HD
ATOM     11  H   UNL     1      -0.982   3.690   0.031  0.00  0.00    +0.144 HD
BRANCH   8  12
ATOM     12  O   UNL     1       2.279   5.643   0.011  0.00  0.00    -0.408 OA
ATOM     13  H   UNL     1       3.226   6.201   0.005  0.00  0.00    +0.328 HD
ENDBRANCH   8  12
ENDBRANCH   6   7
BRANCH   1  14
ATOM     14  C   UNL     1       3.697   2.158  -0.021  0.00  0.00    -0.043 C 
BRANCH  14  16
ATOM     15  C   UNL     1       4.280   1.460   2.223  0.00  0.00    -0.096 C 
ATOM     16  N   UNL     1       4.011   2.605   1.342  0.00  0.00    +0.379 N 
ATOM     17  C   UNL     1       5.139   3.545   1.341  0.00  0.00    -0.096 C 
ATOM     18  H   UNL     1       3.130   3.134   1.736  0.00  0.00    -0.082 HD
ENDBRANCH  14  16
ENDBRANCH   1  14
TORSDOF 4
