REMARK  Name = ZINC20896812
REMARK  3 active torsions:
REMARK  status: ('A' for Active; 'I' for Inactive)
REMARK    1  A    between atoms: N_4  and  C_6
REMARK    2  A    between atoms: C_7  and  C_15
REMARK    3  A    between atoms: C_20  and  C_21
REMARK                            x       y       z     vdW  Elec       q    Type
REMARK                         _______ _______ _______ _____ _____    ______ ____
ROOT
ATOM      1  C   UNL     1      -0.625  -2.503   0.201  0.00  0.00    +0.031 A 
ATOM      2  C   UNL     1      -1.384  -2.309   1.440  0.00  0.00    +0.090 A 
ATOM      3  C   UNL     1      -2.707  -2.078   1.067  0.00  0.00    +0.126 A 
ATOM      4  N   UNL     1      -2.781  -2.121  -0.285  0.00  0.00    -0.340 N 
ATOM      5  H   UNL     1      -3.594  -1.990  -0.799  0.00  0.00    +0.167 HD
ATOM      6  C   UNL     1      -1.537  -2.370  -0.829  0.00  0.00    +0.057 A 
ATOM      7  N   UNL     1      -3.641  -1.861   2.058  0.00  0.00    -0.293 N 
ATOM      8  C   UNL     1      -3.289  -1.872   3.354  0.00  0.00    +0.328 A 
ATOM      9  O   UNL     1      -4.146  -1.676   4.194  0.00  0.00    -0.247 OA
ATOM     10  N   UNL     1      -2.027  -2.091   3.758  0.00  0.00    -0.274 N 
ATOM     11  H   UNL     1      -1.819  -2.090   4.706  0.00  0.00    +0.173 HD
ATOM     12  C   UNL     1      -1.042  -2.313   2.859  0.00  0.00    +0.264 A 
ATOM     13  O   UNL     1       0.102  -2.511   3.224  0.00  0.00    -0.267 OA
ATOM     14  H   UNL     1      -4.566  -1.699   1.815  0.00  0.00    +0.172 HD
ENDROOT
BRANCH   1  16
ATOM     15  C   UNL     1       1.743  -1.733  -0.024  0.00  0.00    +0.156 A 
ATOM     16  C   UNL     1       0.823  -2.778   0.078  0.00  0.00    +0.092 A 
ATOM     17  C   UNL     1       1.309  -4.107   0.062  0.00  0.00    +0.264 A 
ATOM     18  O   UNL     1       0.542  -5.051   0.149  0.00  0.00    -0.267 OA
ATOM     19  N   UNL     1       2.639  -4.307  -0.051  0.00  0.00    -0.273 N 
ATOM     20  H   UNL     1       2.992  -5.210  -0.064  0.00  0.00    +0.174 HD
ATOM     21  C   UNL     1       3.484  -3.248  -0.147  0.00  0.00    +0.350 A 
ATOM     22  O   UNL     1       4.809  -3.474  -0.260  0.00  0.00    -0.245 OA
ATOM     23  N   UNL     1       3.045  -2.009  -0.139  0.00  0.00    -0.175 NA
BRANCH  15  27
ATOM     24  C   UNL     1       1.048   1.700  -0.563  0.00  0.00    +0.019 A 
ATOM     25  C   UNL     1       0.259   1.429   0.574  0.00  0.00    +0.019 A 
ATOM     26  C   UNL     1       0.435   0.131   0.890  0.00  0.00    +0.092 A 
ATOM     27  N   UNL     1       1.307  -0.413  -0.013  0.00  0.00    -0.307 N 
ATOM     28  C   UNL     1       1.678   0.558  -0.901  0.00  0.00    +0.092 A 
ENDBRANCH  15  27
ENDBRANCH   1  16
BRANCH   6  29
ATOM     29  C   UNL     1      -1.232  -2.480  -2.268  0.00  0.00    +0.000 A 
ATOM     30  C   UNL     1      -0.106  -1.844  -2.798  0.00  0.00    +0.010 A 
ATOM     31  C   UNL     1       0.173  -1.951  -4.144  0.00  0.00    +0.002 A 
ATOM     32  C   UNL     1      -0.659  -2.686  -4.970  0.00  0.00    +0.020 A 
ATOM     33  C   UNL     1      -1.777  -3.319  -4.453  0.00  0.00    +0.042 A 
ATOM     34  C   UNL     1      -2.066  -3.225  -3.107  0.00  0.00    +0.030 A 
ATOM     35 CL   UNL     1      -2.814  -4.237  -5.500  0.00  0.00    -0.084 Cl
ENDBRANCH   6  29
TORSDOF 3
