REMARK  Name = ZINC58950155
REMARK  6 active torsions:
REMARK  status: ('A' for Active; 'I' for Inactive)
REMARK    1  A    between atoms: C_1  and  O_2
REMARK    2  A    between atoms: O_2  and  C_3
REMARK    3  A    between atoms: C_3  and  C_5
REMARK    4  A    between atoms: C_6  and  N_29
REMARK    5  A    between atoms: C_17  and  C_19
REMARK    6  A    between atoms: C_23  and  N_25
REMARK                            x       y       z     vdW  Elec       q    Type
REMARK                         _______ _______ _______ _____ _____    ______ ____
ROOT
ATOM      1  C   UNL     1       0.631  -2.004  -1.133  0.00  0.00    +0.105 C 
ATOM      2  C   UNL     1       1.176  -2.595  -2.227  0.00  0.00    +0.197 C 
ATOM      3  O   UNL     1       1.280  -3.929  -2.337  0.00  0.00    -0.423 OA
ATOM      4  C   UNL     1       1.204  -4.706  -1.235  0.00  0.00    +0.236 A 
ATOM      5  C   UNL     1       0.650  -4.226  -0.066  0.00  0.00    +0.091 A 
ATOM      6  C   UNL     1       0.592  -5.066   1.054  0.00  0.00    +0.262 A 
ATOM      7  O   UNL     1       0.108  -4.672   2.103  0.00  0.00    -0.267 OA
ATOM      8  N   UNL     1       1.081  -6.320   0.950  0.00  0.00    -0.273 N 
ATOM      9  H   UNL     1       1.050  -6.918   1.714  0.00  0.00    +0.173 HD
ATOM     10  C   UNL     1       1.617  -6.745  -0.224  0.00  0.00    +0.352 A 
ATOM     11  O   UNL     1       2.101  -8.001  -0.311  0.00  0.00    -0.245 OA
ATOM     12  N   UNL     1       1.673  -5.961  -1.276  0.00  0.00    -0.157 NA
ATOM     13  C   UNL     1       0.118  -2.824   0.019  0.00  0.00    +0.101 C 
ENDROOT
BRANCH  13  14
ATOM     14  C   UNL     1      -1.387  -2.862  -0.026  0.00  0.00    -0.033 A 
ATOM     15  C   UNL     1      -2.033  -3.397  -1.126  0.00  0.00    +0.006 A 
ATOM     16  C   UNL     1      -3.414  -3.432  -1.167  0.00  0.00    +0.022 A 
ATOM     17  C   UNL     1      -4.150  -2.933  -0.108  0.00  0.00    +0.071 A 
ATOM     18  C   UNL     1      -3.504  -2.398   0.992  0.00  0.00    +0.145 A 
ATOM     19  C   UNL     1      -2.123  -2.368   1.035  0.00  0.00    +0.038 A 
ATOM     20 CL   UNL     1      -5.885  -2.977  -0.159  0.00  0.00    -0.081 Cl
BRANCH  18  21
ATOM     21  N   UNL     1      -4.292  -1.864   2.126  0.00  0.00    +0.058 N 
ATOM     22  O   UNL     1      -3.727  -1.396   3.087  0.00  0.00    -0.126 OA
ATOM     23  O   UNL     1      -5.500  -1.894   2.091  0.00  0.00    -0.126 OA
ENDBRANCH  18  21
ENDBRANCH  13  14
BRANCH   2  24
ATOM     24  N   UNL     1       1.634  -1.807  -3.248  0.00  0.00    -0.329 N 
ATOM     25  H   UNL     1       1.651  -0.842  -3.146  0.00  0.00    +0.145 HD
ATOM     26  H   UNL     1       1.940  -2.213  -4.074  0.00  0.00    +0.145 HD
ENDBRANCH   2  24
BRANCH   1  27
ATOM     27  C   UNL     1       0.549  -0.605  -1.074  0.00  0.00    +0.341 C 
ATOM     28  O   UNL     1       1.355   0.025  -0.411  0.00  0.00    -0.245 OA
BRANCH  27  30
ATOM     29  C   UNL     1      -0.445   1.469  -1.646  0.00  0.00    +0.280 C 
ATOM     30  O   UNL     1      -0.422   0.044  -1.752  0.00  0.00    -0.465 OA
ENDBRANCH  27  30
ENDBRANCH   1  27
TORSDOF 5
