REMARK  Name = ZINC63374369
REMARK  8 active torsions:
REMARK  status: ('A' for Active; 'I' for Inactive)
REMARK    1  A    between atoms: C_1  and  C_2
REMARK    2  A    between atoms: C_5  and  N_8
REMARK    3  A    between atoms: C_9  and  O_42
REMARK    4  A    between atoms: C_11  and  C_25
REMARK    5  A    between atoms: N_15  and  C_18
REMARK    6  A    between atoms: C_21  and  C_24
REMARK    7  A    between atoms: C_32  and  O_37
REMARK    8  A    between atoms: O_37  and  C_38
REMARK                            x       y       z     vdW  Elec       q    Type
REMARK                         _______ _______ _______ _____ _____    ______ ____
ROOT
ATOM      1  N   UNL     1      -0.004  -4.155  -0.037  0.00  0.00    -0.228 N 
ATOM      2  C   UNL     1       0.182  -4.867   1.228  0.00  0.00    +0.224 C 
ATOM      3  C   UNL     1      -0.595  -6.185   1.193  0.00  0.00    +0.142 C 
ATOM      4  C   UNL     1      -0.324  -6.885  -0.115  0.00  0.00    +0.236 C 
ATOM      5  O   UNL     1      -0.277  -8.096  -0.156  0.00  0.00    -0.274 OA
ATOM      6  N   UNL     1      -0.136  -6.165  -1.236  0.00  0.00    -0.193 N 
ATOM      7  C   UNL     1      -0.102  -4.824  -1.198  0.00  0.00    +0.322 C 
ATOM      8  O   UNL     1      -0.157  -4.199  -2.239  0.00  0.00    -0.251 OA
ENDROOT
BRANCH   3   9
ATOM      9  C   UNL     1      -2.093  -5.899   1.320  0.00  0.00    +0.096 C 
ATOM     10  C   UNL     1      -2.866  -7.217   1.396  0.00  0.00    +0.124 C 
ATOM     11  C   UNL     1      -4.344  -6.848   1.348  0.00  0.00    -0.036 C 
ATOM     12  C   UNL     1      -4.906  -7.411   2.408  0.00  0.00    +0.003 A 
ATOM     13  C   UNL     1      -6.305  -7.486   2.858  0.00  0.00    +0.055 A 
ATOM     14  C   UNL     1      -6.536  -8.144   4.027  0.00  0.00    +0.121 A 
ATOM     15  C   UNL     1      -5.531  -8.739   4.804  0.00  0.00    +0.047 A 
ATOM     16  C   UNL     1      -4.213  -8.734   4.481  0.00  0.00    +0.029 A 
ATOM     17  C   UNL     1      -3.837  -8.056   3.233  0.00  0.00    +0.043 A 
ATOM     18  N   UNL     1      -2.658  -7.919   2.663  0.00  0.00    -0.376 N 
ATOM     19  C   UNL     1      -4.895  -5.924   0.289  0.00  0.00    +0.048 C 
ATOM     20  C   UNL     1      -3.950  -4.710   0.244  0.00  0.00    +0.085 C 
ATOM     21  N   UNL     1      -2.558  -5.157   0.137  0.00  0.00    -0.310 NA
ATOM     22  H   UNL     1      -1.944  -4.383  -0.069  0.00  0.00    +0.122 HD
ATOM     23  H   UNL     1      -1.804  -8.219   3.012  0.00  0.00    +0.160 HD
BRANCH  14  24
ATOM     24  O   UNL     1      -7.819  -8.229   4.469  0.00  0.00    -0.495 OA
ATOM     25  C   UNL     1      -8.037  -8.924   5.698  0.00  0.00    +0.277 C 
ENDBRANCH  14  24
ENDBRANCH   3   9
BRANCH   1  30
ATOM     26  C   UNL     1      -0.342   1.508  -0.033  0.00  0.00    +0.044 C 
ATOM     27  C   UNL     1      -0.252   0.004  -0.034  0.00  0.00    -0.050 A 
ATOM     28  C   UNL     1      -1.244  -0.747   0.571  0.00  0.00    +0.005 A 
ATOM     29  C   UNL     1      -1.165  -2.126   0.571  0.00  0.00    +0.024 A 
ATOM     30  C   UNL     1      -0.088  -2.758  -0.036  0.00  0.00    +0.040 A 
ATOM     31  C   UNL     1       0.906  -2.001  -0.643  0.00  0.00    +0.024 A 
ATOM     32  C   UNL     1       0.818  -0.623  -0.645  0.00  0.00    +0.005 A 
ENDBRANCH   1  30
BRANCH   6  33
ATOM     33  C   UNL     1       0.022  -6.826  -2.463  0.00  0.00    +0.045 A 
ATOM     34  C   UNL     1       1.248  -6.800  -3.114  0.00  0.00    +0.024 A 
ATOM     35  C   UNL     1       1.401  -7.452  -4.322  0.00  0.00    +0.005 A 
ATOM     36  C   UNL     1       0.335  -8.130  -4.883  0.00  0.00    -0.050 A 
ATOM     37  C   UNL     1      -0.887  -8.158  -4.237  0.00  0.00    +0.005 A 
ATOM     38  C   UNL     1      -1.045  -7.513  -3.025  0.00  0.00    +0.024 A 
ATOM     39  C   UNL     1       0.504  -8.840  -6.201  0.00  0.00    +0.044 C 
ENDBRANCH   6  33
BRANCH   2  40
ATOM     40  O   UNL     1       1.572  -5.140   1.421  0.00  0.00    -0.373 OA
ATOM     41  H   UNL     1       2.127  -4.348   1.455  0.00  0.00    +0.212 HD
ENDBRANCH   2  40
TORSDOF 5
