REMARK  Name = ZINC36638197
REMARK  12 active torsions:
REMARK  status: ('A' for Active; 'I' for Inactive)
REMARK    1  A    between atoms: C_1  and  C_2
REMARK    2  A    between atoms: C_2  and  N_3
REMARK    3  A    between atoms: N_3  and  C_4
REMARK    4  A    between atoms: N_3  and  C_6
REMARK    5  A    between atoms: C_4  and  C_5
REMARK    6  A    between atoms: C_6  and  C_7
REMARK    7  A    between atoms: C_7  and  N_8
REMARK    8  A    between atoms: C_12  and  C_19
REMARK    9  A    between atoms: C_13  and  C_18
REMARK   10  A    between atoms: C_20  and  C_22
REMARK   11  A    between atoms: C_25  and  S_28
REMARK   12  A    between atoms: S_28  and  N_31
REMARK                            x       y       z     vdW  Elec       q    Type
REMARK                         _______ _______ _______ _____ _____    ______ ____
ROOT
ATOM      1  N   UNL     1      -0.258  -2.967   2.165  0.00  0.00    -0.248 N 
ATOM      2  C   UNL     1       0.827  -3.806   1.980  0.00  0.00    +0.168 A 
ATOM      3  N   UNL     1       0.854  -5.118   1.927  0.00  0.00    -0.224 NA
ATOM      4  C   UNL     1       1.997  -5.813   1.740  0.00  0.00    +0.083 A 
ATOM      5  C   UNL     1       2.163  -7.215   1.664  0.00  0.00    -0.021 A 
ATOM      6  C   UNL     1       3.403  -7.764   1.468  0.00  0.00    -0.045 A 
ATOM      7  C   UNL     1       4.535  -6.971   1.339  0.00  0.00    +0.005 A 
ATOM      8  C   UNL     1       4.409  -5.596   1.408  0.00  0.00    +0.017 A 
ATOM      9  C   UNL     1       3.171  -5.037   1.603  0.00  0.00    +0.041 A 
ATOM     10  S   UNL     1       2.547  -3.380   1.746  0.00  0.00    -0.052 S 
ATOM     11  C   UNL     1       3.542  -9.263   1.393  0.00  0.00    +0.044 C 
ATOM     12  C   UNL     1       0.963  -8.117   1.799  0.00  0.00    +0.046 C 
ATOM     13  C   UNL     1      -1.491  -3.486   2.325  0.00  0.00    +0.252 C 
ATOM     14  O   UNL     1      -1.643  -4.691   2.364  0.00  0.00    -0.270 OA
ENDROOT
BRANCH  13  15
ATOM     15  C   UNL     1      -2.659  -2.589   2.455  0.00  0.00    +0.037 A 
ATOM     16  C   UNL     1      -2.866  -1.568   1.525  0.00  0.00    +0.015 A 
ATOM     17  C   UNL     1      -3.958  -0.735   1.651  0.00  0.00    +0.029 A 
ATOM     18  C   UNL     1      -4.847  -0.908   2.697  0.00  0.00    +0.106 A 
ATOM     19  C   UNL     1      -4.648  -1.918   3.622  0.00  0.00    +0.029 A 
ATOM     20  C   UNL     1      -3.564  -2.763   3.504  0.00  0.00    +0.015 A 
BRANCH  18  21
ATOM     21  S   UNL     1      -6.238   0.161   2.851  0.00  0.00    +0.061 S 
ATOM     22  O   UNL     1      -6.619   0.137   4.220  0.00  0.00    -0.153 OA
ATOM     23  O   UNL     1      -5.902   1.365   2.175  0.00  0.00    -0.153 OA
BRANCH  21  24
ATOM     24  N   UNL     1      -7.482  -0.527   2.002  0.00  0.00    -0.172 NA
ATOM     25  C   UNL     1      -7.684  -0.225   0.576  0.00  0.00    +0.137 C 
ATOM     26  C   UNL     1      -7.818  -1.549  -0.185  0.00  0.00    +0.177 C 
ATOM     27  O   UNL     1      -8.820  -2.353   0.442  0.00  0.00    -0.377 OA
ATOM     28  C   UNL     1      -8.515  -2.724   1.788  0.00  0.00    +0.177 C 
ATOM     29  C   UNL     1      -8.414  -1.464   2.649  0.00  0.00    +0.137 C 
ENDBRANCH  21  24
ENDBRANCH  18  21
ENDBRANCH  13  15
BRANCH   1  30
ATOM     30  C   UNL     1      -0.066  -1.515   2.186  0.00  0.00    +0.097 C 
BRANCH  30  31
ATOM     31  C   UNL     1       0.122  -1.004   0.756  0.00  0.00    -0.059 C 
BRANCH  31  32
ATOM     32  N   UNL     1       0.163   0.464   0.761  0.00  0.00    +0.380 N 
ATOM     33  H   UNL     1      -0.667   0.822   1.210  0.00  0.00    -0.082 HD
BRANCH  32  35
ATOM     34  C   UNL     1       1.323   2.443   1.618  0.00  0.00    -0.017 C 
ATOM     35  C   UNL     1       1.351   0.919   1.495  0.00  0.00    -0.082 C 
ENDBRANCH  32  35
BRANCH  32  36
ATOM     36  C   UNL     1       0.223   0.957  -0.621  0.00  0.00    -0.082 C 
ATOM     37  C   UNL     1      -1.076   0.600  -1.347  0.00  0.00    -0.017 C 
ENDBRANCH  32  36
ENDBRANCH  31  32
ENDBRANCH  30  31
ENDBRANCH   1  30
TORSDOF 8
