REMARK  Name = ZINC09102670
REMARK  12 active torsions:
REMARK  status: ('A' for Active; 'I' for Inactive)
REMARK    1  A    between atoms: C_1  and  C_2
REMARK    2  A    between atoms: C_3  and  C_34
REMARK    3  A    between atoms: C_11  and  C_13
REMARK    4  A    between atoms: C_13  and  C_15
REMARK    5  A    between atoms: C_13  and  S_16
REMARK    6  A    between atoms: S_16  and  C_17
REMARK    7  A    between atoms: C_20  and  C_29
REMARK    8  A    between atoms: N_21  and  C_22
REMARK    9  A    between atoms: C_29  and  C_31
REMARK   10  A    between atoms: C_29  and  N_57
REMARK   11  A    between atoms: C_32  and  N_57
REMARK   12  A    between atoms: C_33  and  N_57
REMARK                            x       y       z     vdW  Elec       q    Type
REMARK                         _______ _______ _______ _____ _____    ______ ____
ROOT
ATOM      1  C   UNL     1      -5.182   3.948   0.805  0.00  0.00    +0.197 A 
ATOM      2  N   UNL     1      -5.199   5.197   0.398  0.00  0.00    -0.122 NA
ATOM      3  N   UNL     1      -6.371   5.696   0.565  0.00  0.00    -0.135 NA
ATOM      4  C   UNL     1      -7.166   4.809   1.093  0.00  0.00    +0.125 A 
ATOM      5  N   UNL     1      -6.438   3.661   1.266  0.00  0.00    -0.275 N 
ENDROOT
BRANCH   5   6
ATOM      6  C   UNL     1      -6.887   2.446   1.803  0.00  0.00    +0.050 A 
ATOM      7  C   UNL     1      -7.864   1.713   1.143  0.00  0.00    +0.028 A 
ATOM      8  C   UNL     1      -8.301   0.514   1.671  0.00  0.00    +0.022 A 
ATOM      9  C   UNL     1      -7.772   0.048   2.862  0.00  0.00    +0.041 A 
ATOM     10  C   UNL     1      -6.802   0.779   3.524  0.00  0.00    +0.022 A 
ATOM     11  C   UNL     1      -6.358   1.976   2.997  0.00  0.00    +0.028 A 
ATOM     12 CL   UNL     1      -8.328  -1.457   3.527  0.00  0.00    -0.084 Cl
ENDBRANCH   5   6
BRANCH   4  13
ATOM     13  C   UNL     1      -8.617   5.007   1.446  0.00  0.00    -0.003 C 
ATOM     14  C   UNL     1      -8.722   5.853   2.717  0.00  0.00    -0.005 C 
BRANCH  13  17
ATOM     15  C   UNL     1     -10.743   5.802   0.600  0.00  0.00    -0.096 C 
ATOM     16  C   UNL     1      -8.710   7.019   0.102  0.00  0.00    -0.096 C 
ATOM     17  N   UNL     1      -9.297   5.680   0.319  0.00  0.00    +0.382 N 
ATOM     18  H   UNL     1      -9.168   5.118  -0.531  0.00  0.00    -0.082 HD
ENDBRANCH  13  17
ENDBRANCH   4  13
BRANCH   1  19
ATOM     19  S   UNL     1      -3.803   2.853   0.772  0.00  0.00    -0.075 S 
BRANCH  19  20
ATOM     20  C   UNL     1      -2.554   3.943   0.045  0.00  0.00    +0.117 C 
ATOM     21  C   UNL     1      -2.959   4.300  -1.387  0.00  0.00    +0.027 C 
BRANCH  20  32
ATOM     22  C   UNL     1       2.869   0.001  -0.023  0.00  0.00    +0.045 C 
ATOM     23  C   UNL     1       2.579   1.479  -0.014  0.00  0.00    -0.026 A 
ATOM     24  C   UNL     1       3.585   2.369  -0.018  0.00  0.00    -0.008 A 
ATOM     25  S   UNL     1       2.746   3.942  -0.003  0.00  0.00    -0.073 S 
ATOM     26  C   UNL     1       1.070   3.359   0.009  0.00  0.00    +0.116 A 
ATOM     27  C   UNL     1       1.210   1.959   0.001  0.00  0.00    +0.075 A 
ATOM     28  C   UNL     1      -0.015   1.215   0.009  0.00  0.00    +0.260 A 
ATOM     29  O   UNL     1       0.002  -0.004   0.002  0.00  0.00    -0.267 OA
ATOM     30  N   UNL     1      -1.183   1.883   0.018  0.00  0.00    -0.309 N 
ATOM     31  H   UNL     1      -2.015   1.384   0.019  0.00  0.00    +0.170 HD
ATOM     32  C   UNL     1      -1.221   3.240   0.029  0.00  0.00    +0.124 A 
ATOM     33  N   UNL     1      -0.122   3.947   0.023  0.00  0.00    -0.225 NA
ATOM     34  C   UNL     1       5.068   2.101  -0.033  0.00  0.00    +0.052 C 
ENDBRANCH  20  32
ENDBRANCH  19  20
ENDBRANCH   1  19
TORSDOF 6
