REMARK  Name = ZINC31919719
REMARK  4 active torsions:
REMARK  status: ('A' for Active; 'I' for Inactive)
REMARK    1  A    between atoms: C_1  and  C_2
REMARK    2  A    between atoms: C_10  and  C_11
REMARK    3  A    between atoms: C_11  and  C_13
REMARK    4  A    between atoms: C_11  and  N_17
REMARK                            x       y       z     vdW  Elec       q    Type
REMARK                         _______ _______ _______ _____ _____    ______ ____
ROOT
ATOM      1  C   UNL     1      -2.720   3.526   0.731  0.00  0.00    +0.044 C 
ATOM      2  C   UNL     1      -1.369   2.879   0.565  0.00  0.00    -0.046 A 
ATOM      3  C   UNL     1      -1.263   1.482   0.459  0.00  0.00    +0.021 A 
ATOM      4  C   UNL     1      -0.054   0.900   0.315  0.00  0.00    +0.093 A 
ATOM      5  N   UNL     1       1.080   1.657   0.260  0.00  0.00    -0.302 N 
ATOM      6  C   UNL     1       1.008   3.023   0.356  0.00  0.00    +0.138 A 
ATOM      7  C   UNL     1      -0.246   3.646   0.512  0.00  0.00    +0.050 A 
ATOM      8  N   UNL     1       2.240   3.505   0.274  0.00  0.00    -0.236 NA
ATOM      9  C   UNL     1       3.099   2.492   0.129  0.00  0.00    +0.136 A 
ATOM     10  C   UNL     1       2.402   1.335   0.117  0.00  0.00    +0.069 A 
ENDROOT
BRANCH  10  11
ATOM     11  C   UNL     1       2.974  -0.052  -0.025  0.00  0.00    +0.205 C 
BRANCH  11  12
ATOM     12  C   UNL     1       3.158  -0.378  -1.509  0.00  0.00    +0.410 C 
ATOM     13  F   UNL     1       4.033   0.549  -2.085  0.00  0.00    -0.169 F 
ATOM     14  F   UNL     1       3.689  -1.665  -1.641  0.00  0.00    -0.169 F 
ATOM     15  F   UNL     1       1.920  -0.315  -2.157  0.00  0.00    -0.169 F 
ENDBRANCH  11  12
BRANCH  11  16
ATOM     16  N   UNL     1       4.275  -0.118   0.655  0.00  0.00    -0.315 NA
ATOM     17  H   UNL     1       4.692  -1.130   0.551  0.00  0.00    +0.119 HD
ATOM     18  H   UNL     1       4.963   0.611   0.202  0.00  0.00    +0.119 HD
ENDBRANCH  11  16
ENDBRANCH  10  11
TORSDOF 3
