REMARK  Name = ZINC04729190
REMARK  7 active torsions:
REMARK  status: ('A' for Active; 'I' for Inactive)
REMARK    1  A    between atoms: C_1  and  C_2
REMARK    2  A    between atoms: C_5  and  C_8
REMARK    3  A    between atoms: C_10  and  C_22
REMARK    4  A    between atoms: C_12  and  C_15
REMARK    5  A    between atoms: C_20  and  O_21
REMARK    6  A    between atoms: C_25  and  O_28
REMARK    7  A    between atoms: O_28  and  C_29
REMARK                            x       y       z     vdW  Elec       q    Type
REMARK                         _______ _______ _______ _____ _____    ______ ____
ROOT
ATOM      1  C   UNL     1      -3.412   7.853   2.120  0.00  0.00    +0.040 C 
ATOM      2  N   UNL     1      -2.321   7.419   2.628  0.00  0.00    -0.299 NA
ATOM      3  C   UNL     1      -1.120   7.122   1.857  0.00  0.00    +0.081 C 
ATOM      4  C   UNL     1      -2.452   7.444  -0.128  0.00  0.00    -0.028 C 
ATOM      5  C   UNL     1      -3.584   8.121   0.651  0.00  0.00    +0.044 C 
ATOM      6  N   UNL     1      -1.175   7.768   0.537  0.00  0.00    +0.401 N 
ATOM      7  H   UNL     1      -0.395   7.430  -0.040  0.00  0.00    -0.081 HD
ATOM      8  H   UNL     1      -1.099   8.785   0.652  0.00  0.00    -0.081 HD
ENDROOT
BRANCH   1  13
ATOM      9  C   UNL     1      -7.869   8.828   5.623  0.00  0.00    +0.044 C 
ATOM     10  C   UNL     1      -6.701   8.573   4.706  0.00  0.00    -0.050 A 
ATOM     11  C   UNL     1      -5.508   8.102   5.224  0.00  0.00    +0.004 A 
ATOM     12  C   UNL     1      -4.435   7.866   4.390  0.00  0.00    +0.010 A 
ATOM     13  C   UNL     1      -4.556   8.103   3.019  0.00  0.00    -0.004 A 
ATOM     14  C   UNL     1      -5.761   8.583   2.503  0.00  0.00    +0.010 A 
ATOM     15  C   UNL     1      -6.828   8.810   3.348  0.00  0.00    +0.004 A 
ENDBRANCH   1  13
BRANCH   4  16
ATOM     16  C   UNL     1      -2.429   7.959  -1.544  0.00  0.00    -0.019 A 
ATOM     17  C   UNL     1      -1.539   8.953  -1.903  0.00  0.00    +0.005 A 
ATOM     18  C   UNL     1      -1.514   9.423  -3.203  0.00  0.00    +0.000 A 
ATOM     19  C   UNL     1      -2.385   8.906  -4.145  0.00  0.00    +0.004 A 
ATOM     20  C   UNL     1      -3.280   7.915  -3.789  0.00  0.00    +0.045 A 
ATOM     21  C   UNL     1      -3.304   7.439  -2.486  0.00  0.00    +0.118 A 
BRANCH  21  22
ATOM     22  O   UNL     1      -4.183   6.465  -2.134  0.00  0.00    -0.507 OA
ATOM     23  H   UNL     1      -5.034   6.798  -1.818  0.00  0.00    +0.292 HD
ENDBRANCH  21  22
ENDBRANCH   4  16
BRANCH   3  24
ATOM     24  C   UNL     1      -1.003   5.630   1.677  0.00  0.00    -0.040 A 
ATOM     25  C   UNL     1      -1.531   4.776   2.628  0.00  0.00    +0.007 A 
ATOM     26  C   UNL     1      -1.425   3.409   2.465  0.00  0.00    +0.046 A 
ATOM     27  C   UNL     1      -0.787   2.892   1.346  0.00  0.00    +0.120 A 
ATOM     28  C   UNL     1      -0.253   3.751   0.396  0.00  0.00    +0.046 A 
ATOM     29  C   UNL     1      -0.367   5.117   0.561  0.00  0.00    +0.007 A 
BRANCH  27  30
ATOM     30  O   UNL     1      -0.682   1.547   1.184  0.00  0.00    -0.495 OA
ATOM     31  C   UNL     1      -0.013   1.086   0.008  0.00  0.00    +0.277 C 
ENDBRANCH  27  30
ENDBRANCH   3  24
TORSDOF 5
