REMARK  Name = ZINC01576640
REMARK  6 active torsions:
REMARK  status: ('A' for Active; 'I' for Inactive)
REMARK    1  A    between atoms: C_1  and  O_2
REMARK    2  A    between atoms: O_2  and  C_3
REMARK    3  A    between atoms: C_3  and  C_16
REMARK    4  A    between atoms: C_4  and  C_8
REMARK    5  A    between atoms: C_4  and  O_14
REMARK    6  A    between atoms: O_14  and  C_15
REMARK                            x       y       z     vdW  Elec       q    Type
REMARK                         _______ _______ _______ _____ _____    ______ ____
ROOT
ATOM      1  C   UNL     1      -0.092   5.894  -1.411  0.00  0.00    +0.215 C 
ATOM      2  C   UNL     1      -0.070   5.347   0.030  0.00  0.00    +0.219 C 
ATOM      3  C   UNL     1      -1.977   6.538  -0.255  0.00  0.00    +0.156 C 
ATOM      4  N   UNL     1      -1.360   6.639  -1.472  0.00  0.00    -0.283 N 
ATOM      5  N   UNL     1      -3.189   7.128   0.018  0.00  0.00    -0.333 N 
ATOM      6  H   UNL     1      -1.701   7.120  -2.243  0.00  0.00    +0.152 HD
ATOM      7  H   UNL     1      -3.644   7.642  -0.667  0.00  0.00    +0.145 HD
ATOM      8  H   UNL     1      -3.589   7.029   0.896  0.00  0.00    +0.145 HD
ATOM      9  N   UNL     1      -1.325   5.842   0.620  0.00  0.00    -0.326 N 
ATOM     10  H   UNL     1      -1.635   5.662   1.582  0.00  0.00    +0.165 HD
ENDROOT
BRANCH   2  11
ATOM     11  C   UNL     1      -0.050   3.840   0.022  0.00  0.00    +0.009 A 
ATOM     12  C   UNL     1       1.156   3.165   0.008  0.00  0.00    +0.008 A 
ATOM     13  C   UNL     1       1.175   1.783   0.000  0.00  0.00    +0.000 A 
ATOM     14  C   UNL     1      -0.013   1.076   0.008  0.00  0.00    +0.000 A 
ATOM     15  C   UNL     1      -1.219   1.751   0.017  0.00  0.00    +0.000 A 
ATOM     16  C   UNL     1      -1.238   3.133   0.030  0.00  0.00    +0.008 A 
ENDBRANCH   2  11
BRANCH   1  17
ATOM     17  C   UNL     1      -0.090   4.765  -2.409  0.00  0.00    +0.007 A 
ATOM     18  C   UNL     1       1.105   4.194  -2.805  0.00  0.00    +0.008 A 
ATOM     19  C   UNL     1       1.106   3.155  -3.717  0.00  0.00    +0.000 A 
ATOM     20  C   UNL     1      -0.088   2.693  -4.240  0.00  0.00    +0.000 A 
ATOM     21  C   UNL     1      -1.282   3.267  -3.847  0.00  0.00    +0.000 A 
ATOM     22  C   UNL     1      -1.284   4.303  -2.932  0.00  0.00    +0.008 A 
ENDBRANCH   1  17
BRANCH   1  24
ATOM     23  C   UNL     1       1.006   7.405  -2.914  0.00  0.00    +0.197 C 
ATOM     24  O   UNL     1       1.017   6.768  -1.635  0.00  0.00    -0.351 OA
ENDBRANCH   1  24
BRANCH   2  25
ATOM     25  O   UNL     1       1.057   5.859   0.743  0.00  0.00    -0.349 OA
ATOM     26  C   UNL     1       1.125   5.432   2.105  0.00  0.00    +0.197 C 
ENDBRANCH   2  25
TORSDOF 4
