REMARK  Name = ZINC08952339
REMARK  13 active torsions:
REMARK  status: ('A' for Active; 'I' for Inactive)
REMARK    1  A    between atoms: C_1  and  C_2
REMARK    2  A    between atoms: C_2  and  O_4
REMARK    3  A    between atoms: O_4  and  C_5
REMARK    4  A    between atoms: C_5  and  C_36
REMARK    5  A    between atoms: C_7  and  O_35
REMARK    6  A    between atoms: C_9  and  O_34
REMARK    7  A    between atoms: C_12  and  O_17
REMARK    8  A    between atoms: O_17  and  C_18
REMARK    9  A    between atoms: C_20  and  O_33
REMARK   10  A    between atoms: C_22  and  O_32
REMARK   11  A    between atoms: C_24  and  O_31
REMARK   12  A    between atoms: C_26  and  C_29
REMARK   13  A    between atoms: C_29  and  O_30
REMARK                            x       y       z     vdW  Elec       q    Type
REMARK                         _______ _______ _______ _____ _____    ______ ____
ROOT
ATOM      1  C   UNL     1      -1.057  -2.117   0.001  0.00  0.00    +0.125 C 
ATOM      2  C   UNL     1      -0.379  -2.585   1.305  0.00  0.00    +0.083 C 
ATOM      3  C   UNL     1      -1.081  -3.889   1.723  0.00  0.00    +0.154 C 
ATOM      4  C   UNL     1      -2.169  -4.166   0.663  0.00  0.00    +0.125 C 
ATOM      5  C   UNL     1      -2.449  -2.785   0.035  0.00  0.00    +0.139 C 
ATOM      6  C   UNL     1      -2.976  -2.958  -1.387  0.00  0.00    +0.319 C 
ATOM      7  O   UNL     1      -2.018  -3.682  -2.162  0.00  0.00    -0.471 OA
ATOM      8  C   UNL     1      -1.564  -4.844  -1.641  0.00  0.00    +0.189 C 
ATOM      9  C   UNL     1      -1.610  -5.107  -0.364  0.00  0.00    +0.048 C 
ATOM     10  C   UNL     1      -0.265  -2.592  -1.218  0.00  0.00    +0.056 C 
ENDROOT
BRANCH   4  11
ATOM     11  O   UNL     1      -3.343  -4.712   1.267  0.00  0.00    -0.381 OA
ATOM     12  H   UNL     1      -3.200  -5.559   1.711  0.00  0.00    +0.211 HD
ENDBRANCH   4  11
BRANCH   3  13
ATOM     13  O   UNL     1      -1.681  -3.730   3.010  0.00  0.00    -0.388 OA
ATOM     14  H   UNL     1      -1.050  -3.534   3.716  0.00  0.00    +0.210 HD
ENDBRANCH   3  13
BRANCH   1  15
ATOM     15  O   UNL     1      -1.186  -0.694  -0.012  0.00  0.00    -0.458 OA
BRANCH  15  17
ATOM     16  C   UNL     1      -0.108   1.527  -0.057  0.00  0.00    +0.136 C 
ATOM     17  C   UNL     1      -0.050   0.021  -0.042  0.00  0.00    +0.304 C 
ATOM     18  O   UNL     1       1.018  -0.543  -0.056  0.00  0.00    -0.251 OA
ENDBRANCH  15  17
ENDBRANCH   1  15
BRANCH   6  19
ATOM     19  O   UNL     1      -4.208  -3.681  -1.354  0.00  0.00    -0.309 OA
BRANCH  19  20
ATOM     20  C   UNL     1      -4.846  -3.800  -2.627  0.00  0.00    +0.286 C 
ATOM     21  C   UNL     1      -6.084  -4.692  -2.496  0.00  0.00    +0.201 C 
ATOM     22  C   UNL     1      -6.795  -4.767  -3.850  0.00  0.00    +0.179 C 
ATOM     23  C   UNL     1      -7.148  -3.348  -4.308  0.00  0.00    +0.177 C 
ATOM     24  C   UNL     1      -5.869  -2.508  -4.369  0.00  0.00    +0.178 C 
ATOM     25  O   UNL     1      -5.241  -2.506  -3.086  0.00  0.00    -0.340 OA
BRANCH  23  26
ATOM     26  O   UNL     1      -7.749  -3.400  -5.604  0.00  0.00    -0.386 OA
ATOM     27  H   UNL     1      -8.562  -3.921  -5.639  0.00  0.00    +0.210 HD
ENDBRANCH  23  26
BRANCH  22  28
ATOM     28  O   UNL     1      -7.990  -5.540  -3.721  0.00  0.00    -0.386 OA
ATOM     29  H   UNL     1      -7.841  -6.449  -3.427  0.00  0.00    +0.210 HD
ENDBRANCH  22  28
BRANCH  21  30
ATOM     30  O   UNL     1      -5.686  -6.004  -2.092  0.00  0.00    -0.384 OA
ATOM     31  H   UNL     1      -5.224  -6.031  -1.242  0.00  0.00    +0.210 HD
ENDBRANCH  21  30
BRANCH  24  32
ATOM     32  C   UNL     1      -6.220  -1.073  -4.768  0.00  0.00    +0.190 C 
BRANCH  32  33
ATOM     33  O   UNL     1      -5.019  -0.318  -4.938  0.00  0.00    -0.392 OA
ATOM     34  H   UNL     1      -5.166   0.603  -5.191  0.00  0.00    +0.210 HD
ENDBRANCH  32  33
ENDBRANCH  24  32
ENDBRANCH  19  20
ENDBRANCH   6  19
TORSDOF 11
