REMARK  Name = ZINC20133677
REMARK  6 active torsions:
REMARK  status: ('A' for Active; 'I' for Inactive)
REMARK    1  A    between atoms: C_1  and  C_2
REMARK    2  A    between atoms: C_2  and  C_4
REMARK    3  A    between atoms: C_2  and  N_12
REMARK    4  A    between atoms: C_6  and  O_11
REMARK    5  A    between atoms: C_9  and  O_10
REMARK    6  A    between atoms: N_12  and  C_13
REMARK                            x       y       z     vdW  Elec       q    Type
REMARK                         _______ _______ _______ _____ _____    ______ ____
ROOT
ATOM      1  N   UNL     1       0.010  -0.018  -0.003  0.00  0.00    +0.388 N 
ATOM      2  H   UNL     1      -0.508   0.654   0.698  0.00  0.00    -0.084 HD
ATOM      3  H   UNL     1      -0.684  -0.803  -0.338  0.00  0.00    -0.084 HD
ENDROOT
BRANCH   1   4
ATOM      4  C   UNL     1       1.135  -0.651   0.697  0.00  0.00    -0.040 C 
ATOM      5  C   UNL     1       1.455  -1.988   0.031  0.00  0.00    -0.011 C 
ATOM      6  C   UNL     1       2.478  -2.728   0.900  0.00  0.00    +0.003 C 
ATOM      7  C   UNL     1       1.787  -3.170   2.188  0.00  0.00    +0.035 C 
ATOM      8  C   UNL     1       1.072  -2.010   2.830  0.00  0.00    -0.046 A 
ATOM      9  C   UNL     1       0.769  -0.856   2.144  0.00  0.00    -0.058 A 
ATOM     10  C   UNL     1       0.102   0.176   2.794  0.00  0.00    +0.002 A 
ATOM     11  C   UNL     1      -0.257   0.052   4.120  0.00  0.00    +0.000 A 
ATOM     12  C   UNL     1       0.050  -1.106   4.809  0.00  0.00    +0.000 A 
ATOM     13  C   UNL     1       0.711  -2.132   4.165  0.00  0.00    +0.004 A 
ENDBRANCH   1   4
BRANCH   1  15
ATOM     14  C   UNL     1       0.842   2.171  -0.722  0.00  0.00    -0.009 C 
ATOM     15  C   UNL     1       0.478   0.752  -1.163  0.00  0.00    -0.040 C 
BRANCH  15  16
ATOM     16  C   UNL     1      -0.615   0.813  -2.199  0.00  0.00    -0.017 A 
ATOM     17  C   UNL     1      -1.937   0.679  -1.818  0.00  0.00    +0.051 A 
ATOM     18  C   UNL     1      -2.942   0.735  -2.771  0.00  0.00    +0.117 A 
ATOM     19  C   UNL     1      -2.622   0.926  -4.107  0.00  0.00    +0.049 A 
ATOM     20  C   UNL     1      -1.301   1.060  -4.488  0.00  0.00    +0.049 A 
ATOM     21  C   UNL     1      -0.295   1.009  -3.534  0.00  0.00    +0.119 A 
BRANCH  21  22
ATOM     22  O   UNL     1       1.005   1.147  -3.909  0.00  0.00    -0.507 OA
ATOM     23  H   UNL     1       1.258   1.302  -4.967  0.00  0.00    +0.292 HD
ENDBRANCH  21  22
BRANCH  18  24
ATOM     24  O   UNL     1      -4.243   0.603  -2.396  0.00  0.00    -0.507 OA
ATOM     25  H   UNL     1      -5.040   0.648  -3.152  0.00  0.00    +0.292 HD
ENDBRANCH  18  24
ENDBRANCH  15  16
ENDBRANCH   1  15
TORSDOF 5
