REMARK  Name = ZINC06878846
REMARK  10 active torsions:
REMARK  status: ('A' for Active; 'I' for Inactive)
REMARK    1  A    between atoms: C_1  and  N_2
REMARK    2  A    between atoms: C_3  and  N_18
REMARK    3  A    between atoms: C_5  and  N_11
REMARK    4  A    between atoms: N_7  and  C_10
REMARK    5  A    between atoms: N_14  and  C_15
REMARK    6  A    between atoms: C_15  and  C_16
REMARK    7  A    between atoms: C_16  and  O_17
REMARK    8  A    between atoms: N_21  and  C_22
REMARK    9  A    between atoms: C_22  and  C_23
REMARK   10  A    between atoms: C_23  and  O_24
REMARK                            x       y       z     vdW  Elec       q    Type
REMARK                         _______ _______ _______ _____ _____    ______ ____
ROOT
ATOM      1  C   UNL     1      -1.222   2.168   0.020  0.00  0.00    +0.135 C 
ATOM      2  N   UNL     1      -0.016   1.335   0.009  0.00  0.00    -0.267 N 
ATOM      3  C   UNL     1       1.366   1.837  -0.001  0.00  0.00    +0.204 C 
ATOM      4  C   UNL     1       2.224   0.557  -0.016  0.00  0.00    +0.204 C 
ATOM      5  N   UNL     1       1.234  -0.530  -0.013  0.00  0.00    -0.267 N 
ATOM      6  C   UNL     1       0.002  -0.004   0.002  0.00  0.00    +0.307 C 
ATOM      7  O   UNL     1      -1.008  -0.681   0.008  0.00  0.00    -0.252 OA
ATOM      8  C   UNL     1       1.545  -1.962  -0.023  0.00  0.00    +0.135 C 
ENDROOT
BRANCH   4   9
ATOM      9  N   UNL     1       3.044   0.502  -1.229  0.00  0.00    -0.278 N 
ATOM     10  C   UNL     1       4.321   0.077  -1.160  0.00  0.00    +0.301 C 
ATOM     11  O   UNL     1       4.793  -0.259  -0.091  0.00  0.00    -0.253 OA
ATOM     12  N   UNL     1       5.076   0.027  -2.275  0.00  0.00    -0.297 N 
ATOM     13  H   UNL     1       2.667   0.770  -2.082  0.00  0.00    +0.152 HD
ATOM     14  H   UNL     1       4.699   0.295  -3.128  0.00  0.00    +0.150 HD
BRANCH  12  15
ATOM     15  C   UNL     1       6.464  -0.434  -2.200  0.00  0.00    +0.133 C 
BRANCH  15  16
ATOM     16  C   UNL     1       7.091  -0.396  -3.595  0.00  0.00    +0.174 C 
BRANCH  16  17
ATOM     17  O   UNL     1       7.166   0.958  -4.046  0.00  0.00    -0.393 OA
ATOM     18  H   UNL     1       7.554   1.059  -4.926  0.00  0.00    +0.209 HD
ENDBRANCH  16  17
ENDBRANCH  15  16
ENDBRANCH  12  15
ENDBRANCH   4   9
BRANCH   3  19
ATOM     19  N   UNL     1       1.637   2.623   1.205  0.00  0.00    -0.278 N 
ATOM     20  C   UNL     1       1.730   3.966   1.128  0.00  0.00    +0.301 C 
ATOM     21  O   UNL     1       1.589   4.524   0.057  0.00  0.00    -0.253 OA
ATOM     22  N   UNL     1       1.979   4.689   2.237  0.00  0.00    -0.297 N 
ATOM     23  H   UNL     1       1.749   2.178   2.059  0.00  0.00    +0.152 HD
ATOM     24  H   UNL     1       2.091   4.243   3.092  0.00  0.00    +0.150 HD
BRANCH  22  25
ATOM     25  C   UNL     1       2.080   6.148   2.153  0.00  0.00    +0.133 C 
BRANCH  25  26
ATOM     26  C   UNL     1       2.365   6.720   3.543  0.00  0.00    +0.174 C 
BRANCH  26  27
ATOM     27  O   UNL     1       3.650   6.277   3.986  0.00  0.00    -0.393 OA
ATOM     28  H   UNL     1       3.897   6.603   4.862  0.00  0.00    +0.209 HD
ENDBRANCH  26  27
ENDBRANCH  25  26
ENDBRANCH  22  25
ENDBRANCH   3  19
TORSDOF 8
