REMARK  Name = ZINC38971015
REMARK  7 active torsions:
REMARK  status: ('A' for Active; 'I' for Inactive)
REMARK    1  A    between atoms: C_4  and  C_7
REMARK    2  A    between atoms: C_7  and  O_8
REMARK    3  A    between atoms: O_8  and  C_9
REMARK    4  A    between atoms: C_12  and  N_15
REMARK    5  A    between atoms: N_15  and  C_16
REMARK    6  A    between atoms: N_19  and  S_20
REMARK    7  A    between atoms: S_20  and  C_23
REMARK                            x       y       z     vdW  Elec       q    Type
REMARK                         _______ _______ _______ _____ _____    ______ ____
ROOT
ATOM      1  C   UNL     1       9.486  -3.815   3.308  0.00  0.00    +0.237 C 
ATOM      2  C   UNL     1       9.973  -5.242   3.409  0.00  0.00    +0.192 C 
ATOM      3  N   UNL     1       9.157  -6.234   3.206  0.00  0.00    -0.110 NA
ATOM      4  N   UNL     1      11.262  -5.471   3.710  0.00  0.00    -0.226 NA
ATOM      5  C   UNL     1      12.107  -4.484   3.919  0.00  0.00    +0.089 A 
ATOM      6  C   UNL     1      13.461  -4.762   4.235  0.00  0.00    +0.030 A 
ATOM      7  C   UNL     1      14.334  -3.753   4.451  0.00  0.00    +0.002 A 
ATOM      8  C   UNL     1      13.963  -2.400   4.378  0.00  0.00    +0.002 A 
ATOM      9  C   UNL     1      12.699  -2.024   4.084  0.00  0.00    +0.027 A 
ATOM     10  C   UNL     1      11.688  -3.063   3.835  0.00  0.00    +0.063 A 
ATOM     11  N   UNL     1      10.459  -2.738   3.547  0.00  0.00    -0.359 N 
ATOM     12  H   UNL     1      10.193  -1.807   3.493  0.00  0.00    +0.162 HD
ENDROOT
BRANCH   3  13
ATOM     13  S   UNL     1       9.705  -7.793   3.320  0.00  0.00    +0.100 S 
ATOM     14  O   UNL     1      10.629  -7.978   2.257  0.00  0.00    -0.146 OA
ATOM     15  O   UNL     1      10.057  -8.002   4.681  0.00  0.00    -0.146 OA
BRANCH  13  16
ATOM     16  C   UNL     1       8.336  -8.852   2.986  0.00  0.00    +0.113 A 
ATOM     17  C   UNL     1       7.521  -9.274   4.020  0.00  0.00    +0.029 A 
ATOM     18  C   UNL     1       6.447 -10.104   3.758  0.00  0.00    +0.002 A 
ATOM     19  C   UNL     1       6.188 -10.512   2.463  0.00  0.00    +0.000 A 
ATOM     20  C   UNL     1       7.003 -10.089   1.429  0.00  0.00    +0.002 A 
ATOM     21  C   UNL     1       8.074  -9.255   1.690  0.00  0.00    +0.029 A 
ENDBRANCH  13  16
ENDBRANCH   3  13
BRANCH   1  22
ATOM     22  N   UNL     1       8.931  -3.626   1.965  0.00  0.00    -0.318 N 
ATOM     23  H   UNL     1       9.451  -3.877   1.186  0.00  0.00    +0.148 HD
BRANCH  22  27
ATOM     24  C   UNL     1       5.119  -2.007   1.493  0.00  0.00    +0.121 A 
ATOM     25  C   UNL     1       5.713  -2.027   2.746  0.00  0.00    +0.047 A 
ATOM     26  C   UNL     1       6.976  -2.563   2.903  0.00  0.00    +0.026 A 
ATOM     27  C   UNL     1       7.651  -3.083   1.806  0.00  0.00    +0.029 A 
ATOM     28  C   UNL     1       7.056  -3.062   0.552  0.00  0.00    +0.026 A 
ATOM     29  C   UNL     1       5.791  -2.530   0.398  0.00  0.00    +0.047 A 
BRANCH  24  30
ATOM     30  O   UNL     1       3.876  -1.478   1.339  0.00  0.00    -0.487 OA
BRANCH  30  31
ATOM     31  C   UNL     1       3.243  -0.957   2.509  0.00  0.00    +0.264 C 
BRANCH  31  35
ATOM     32  C   UNL     1      -0.613   0.571   1.485  0.00  0.00    +0.000 A 
ATOM     33  C   UNL     1      -0.472  -0.750   1.867  0.00  0.00    +0.000 A 
ATOM     34  C   UNL     1       0.776  -1.245   2.198  0.00  0.00    +0.007 A 
ATOM     35  C   UNL     1       1.883  -0.418   2.147  0.00  0.00    -0.010 A 
ATOM     36  C   UNL     1       1.742   0.903   1.764  0.00  0.00    +0.007 A 
ATOM     37  C   UNL     1       0.494   1.397   1.434  0.00  0.00    +0.000 A 
ENDBRANCH  31  35
ENDBRANCH  30  31
ENDBRANCH  24  30
ENDBRANCH  22  27
ENDBRANCH   1  22
TORSDOF 7
