REMARK  Name = ZINC06662516
REMARK  8 active torsions:
REMARK  status: ('A' for Active; 'I' for Inactive)
REMARK    1  A    between atoms: C_1  and  S_2
REMARK    2  A    between atoms: S_2  and  C_3
REMARK    3  A    between atoms: C_10  and  N_12
REMARK    4  A    between atoms: N_12  and  C_13
REMARK    5  A    between atoms: C_13  and  C_14
REMARK    6  A    between atoms: C_14  and  C_15
REMARK    7  A    between atoms: C_15  and  C_16
REMARK    8  A    between atoms: C_16  and  N_43
REMARK                            x       y       z     vdW  Elec       q    Type
REMARK                         _______ _______ _______ _____ _____    ______ ____
ROOT
ATOM      1  C   UNL     1      -1.605   4.401  -4.457  0.00  0.00    +0.190 A 
ATOM      2  N   UNL     1      -1.347   3.490  -3.533  0.00  0.00    -0.221 NA
ATOM      3  C   UNL     1      -1.191   3.912  -2.249  0.00  0.00    +0.088 A 
ATOM      4  C   UNL     1      -0.914   3.105  -1.129  0.00  0.00    -0.011 A 
ATOM      5  C   UNL     1      -0.795   3.725   0.073  0.00  0.00    -0.004 A 
ATOM      6  S   UNL     1      -1.057   5.447  -0.275  0.00  0.00    -0.088 S 
ATOM      7  C   UNL     1      -1.319   5.303  -2.013  0.00  0.00    +0.078 A 
ATOM      8  C   UNL     1      -1.590   6.223  -3.010  0.00  0.00    +0.138 A 
ATOM      9  N   UNL     1      -1.726   5.702  -4.239  0.00  0.00    -0.206 NA
ATOM     10  C   UNL     1      -0.507   3.093   1.399  0.00  0.00    +0.043 C 
ATOM     11  C   UNL     1      -0.726   1.578   1.271  0.00  0.00    +0.005 C 
ATOM     12  C   UNL     1      -0.013   1.086   0.008  0.00  0.00    +0.005 C 
ATOM     13  C   UNL     1      -0.748   1.590  -1.233  0.00  0.00    +0.038 C 
ENDROOT
BRANCH   1  15
ATOM     14  C   UNL     1      -2.127   5.412  -6.946  0.00  0.00    +0.093 C 
ATOM     15  S   UNL     1      -1.804   3.837  -6.114  0.00  0.00    -0.089 S 
ENDBRANCH   1  15
BRANCH   8  16
ATOM     16  N   UNL     1      -1.712   7.580  -2.758  0.00  0.00    -0.328 N 
ATOM     17  H   UNL     1      -1.607   7.917  -1.855  0.00  0.00    +0.147 HD
BRANCH  16  18
ATOM     18  C   UNL     1      -2.000   8.506  -3.857  0.00  0.00    +0.103 C 
BRANCH  18  19
ATOM     19  C   UNL     1      -2.083   9.933  -3.312  0.00  0.00    +0.017 C 
BRANCH  19  20
ATOM     20  C   UNL     1      -2.384  10.900  -4.459  0.00  0.00    -0.018 C 
BRANCH  20  21
ATOM     21  C   UNL     1      -2.467  12.327  -3.914  0.00  0.00    -0.086 C 
BRANCH  21  24
ATOM     22  H   UNL     1      -2.816  14.206  -4.681  0.00  0.00    -0.090 HD
ATOM     23  H   UNL     1      -2.067  13.173  -5.748  0.00  0.00    -0.090 HD
ATOM     24  N   UNL     1      -2.778  13.247  -5.023  0.00  0.00    +0.378 N 
ATOM     25  H   UNL     1      -3.691  12.997  -5.422  0.00  0.00    -0.090 HD
ENDBRANCH  21  24
ENDBRANCH  20  21
ENDBRANCH  19  20
ENDBRANCH  18  19
ENDBRANCH  16  18
ENDBRANCH   8  16
TORSDOF 7
