REMARK  Name = ZINC63491754
REMARK  13 active torsions:
REMARK  status: ('A' for Active; 'I' for Inactive)
REMARK    1  A    between atoms: C_1  and  C_2
REMARK    2  A    between atoms: C_2  and  O_3
REMARK    3  A    between atoms: O_3  and  C_4
REMARK    4  A    between atoms: C_6  and  C_16
REMARK    5  A    between atoms: C_8  and  O_13
REMARK    6  A    between atoms: C_9  and  O_10
REMARK    7  A    between atoms: O_10  and  C_11
REMARK    8  A    between atoms: C_11  and  C_12
REMARK    9  A    between atoms: O_13  and  C_14
REMARK   10  A    between atoms: C_14  and  C_15
REMARK   11  A    between atoms: C_24  and  O_40
REMARK   12  A    between atoms: C_31  and  C_33
REMARK   13  A    between atoms: O_40  and  C_41
REMARK                            x       y       z     vdW  Elec       q    Type
REMARK                         _______ _______ _______ _____ _____    ______ ____
ROOT
ATOM      1  C   UNL     1       0.705  -4.915  -0.044  0.00  0.00    +0.247 C 
ATOM      2  O   UNL     1       1.837  -4.476  -0.096  0.00  0.00    -0.270 OA
ATOM      3  N   UNL     1       0.501  -6.244   0.046  0.00  0.00    -0.288 N 
ATOM      4  C   UNL     1      -0.866  -6.773   0.007  0.00  0.00    +0.113 C 
ATOM      5  C   UNL     1      -1.139  -7.586   1.286  0.00  0.00    +0.052 C 
ATOM      6  C   UNL     1       0.066  -8.469   1.502  0.00  0.00    -0.035 C 
ATOM      7  C   UNL     1       0.171  -9.776   1.703  0.00  0.00    +0.003 A 
ATOM      8  C   UNL     1      -0.842 -10.825   1.897  0.00  0.00    +0.055 A 
ATOM      9  C   UNL     1      -0.382 -12.096   2.062  0.00  0.00    +0.121 A 
ATOM     10  C   UNL     1       0.976 -12.445   2.054  0.00  0.00    +0.047 A 
ATOM     11  C   UNL     1       1.992 -11.559   1.892  0.00  0.00    +0.029 A 
ATOM     12  C   UNL     1       1.619 -10.149   1.713  0.00  0.00    +0.043 A 
ATOM     13  N   UNL     1       2.361  -9.094   1.560  0.00  0.00    -0.375 N 
ATOM     14  C   UNL     1       1.488  -7.921   1.498  0.00  0.00    +0.131 C 
ATOM     15  C   UNL     1       1.653  -7.150   0.178  0.00  0.00    +0.133 C 
ATOM     16  H   UNL     1       3.329  -9.085   1.498  0.00  0.00    +0.160 HD
ENDROOT
BRANCH  15  17
ATOM     17  C   UNL     1       1.680  -8.114  -0.980  0.00  0.00    -0.025 A 
ATOM     18  C   UNL     1       0.589  -8.926  -1.229  0.00  0.00    +0.008 A 
ATOM     19  C   UNL     1       0.612  -9.809  -2.291  0.00  0.00    +0.038 A 
ATOM     20  C   UNL     1       1.729  -9.881  -3.107  0.00  0.00    +0.123 A 
ATOM     21  C   UNL     1       2.821  -9.068  -2.857  0.00  0.00    +0.038 A 
ATOM     22  C   UNL     1       2.793  -8.181  -1.797  0.00  0.00    +0.008 A 
ATOM     23  F   UNL     1       1.753 -10.745  -4.145  0.00  0.00    -0.205 F 
ENDBRANCH  15  17
BRANCH   1  26
ATOM     24  C   UNL     1      -1.548  -2.005   0.713  0.00  0.00    +0.166 A 
ATOM     25  C   UNL     1      -0.468  -2.868   0.749  0.00  0.00    +0.062 A 
ATOM     26  C   UNL     1      -0.447  -3.993  -0.080  0.00  0.00    +0.044 A 
ATOM     27  C   UNL     1      -1.517  -4.243  -0.942  0.00  0.00    +0.062 A 
ATOM     28  C   UNL     1      -2.595  -3.377  -0.973  0.00  0.00    +0.166 A 
ATOM     29  C   UNL     1      -2.616  -2.260  -0.143  0.00  0.00    +0.204 A 
BRANCH  24  30
ATOM     30  O   UNL     1      -1.569  -0.910   1.519  0.00  0.00    -0.488 OA
BRANCH  30  32
ATOM     31  C   UNL     1      -0.644   0.562   3.198  0.00  0.00    +0.048 C 
ATOM     32  C   UNL     1      -0.441  -0.710   2.373  0.00  0.00    +0.226 C 
ENDBRANCH  30  32
ENDBRANCH  24  30
BRANCH  29  33
ATOM     33  O   UNL     1      -3.678  -1.413  -0.172  0.00  0.00    -0.485 OA
BRANCH  33  34
ATOM     34  C   UNL     1      -3.617  -0.327  -1.099  0.00  0.00    +0.226 C 
ATOM     35  C   UNL     1      -4.892   0.511  -0.988  0.00  0.00    +0.048 C 
ENDBRANCH  33  34
ENDBRANCH  29  33
BRANCH  28  36
ATOM     36  O   UNL     1      -3.637  -3.620  -1.813  0.00  0.00    -0.488 OA
BRANCH  36  37
ATOM     37  C   UNL     1      -3.551  -4.787  -2.633  0.00  0.00    +0.226 C 
ATOM     38  C   UNL     1      -4.805  -4.892  -3.503  0.00  0.00    +0.048 C 
ENDBRANCH  36  37
ENDBRANCH  28  36
ENDBRANCH   1  26
BRANCH   9  39
ATOM     39  O   UNL     1      -1.294 -13.087   2.244  0.00  0.00    -0.495 OA
ATOM     40  C   UNL     1      -0.788 -14.412   2.414  0.00  0.00    +0.277 C 
ENDBRANCH   9  39
TORSDOF 9
