REMARK  Name = ZINC03772747
REMARK  10 active torsions:
REMARK  status: ('A' for Active; 'I' for Inactive)
REMARK    1  A    between atoms: C_1  and  O_2
REMARK    2  A    between atoms: O_2  and  C_3
REMARK    3  A    between atoms: C_6  and  N_9
REMARK    4  A    between atoms: C_10  and  C_12
REMARK    5  A    between atoms: C_12  and  C_14
REMARK    6  A    between atoms: C_12  and  N_21
REMARK    7  A    between atoms: N_21  and  C_22
REMARK    8  A    between atoms: C_22  and  C_23
REMARK    9  A    between atoms: C_30  and  C_32
REMARK   10  A    between atoms: C_32  and  N_33
REMARK                            x       y       z     vdW  Elec       q    Type
REMARK                         _______ _______ _______ _____ _____    ______ ____
ROOT
ATOM      1  N   UNL     1       3.503  -5.890   4.768  0.00  0.00    -0.284 N 
ATOM      2  C   UNL     1       4.233  -6.817   5.419  0.00  0.00    +0.238 C 
ATOM      3  O   UNL     1       5.006  -6.477   6.290  0.00  0.00    -0.274 OA
ENDROOT
BRANCH   1   4
ATOM      4  C   UNL     1       3.750  -4.465   5.003  0.00  0.00    +0.166 C 
BRANCH   4   5
ATOM      5  C   UNL     1       2.538  -3.845   5.701  0.00  0.00    +0.023 C 
ATOM      6  C   UNL     1       2.234  -4.619   6.990  0.00  0.00    +0.010 C 
ATOM      7  C   UNL     1       0.919  -4.094   7.571  0.00  0.00    +0.027 C 
ATOM      8  C   UNL     1       0.945  -2.595   7.637  0.00  0.00    -0.031 C 
ATOM      9  C   UNL     1       1.779  -1.855   6.981  0.00  0.00    -0.031 C 
ATOM     10  C   UNL     1       2.842  -2.390   6.065  0.00  0.00    +0.032 C 
ENDBRANCH   4   5
BRANCH   4  12
ATOM     11  N   UNL     1       4.509  -2.532   3.658  0.00  0.00    -0.284 N 
ATOM     12  C   UNL     1       3.979  -3.771   3.684  0.00  0.00    +0.238 C 
ATOM     13  O   UNL     1       3.687  -4.328   2.647  0.00  0.00    -0.273 OA
ATOM     14  H   UNL     1       4.789  -2.107   4.484  0.00  0.00    +0.155 HD
BRANCH  11  18
ATOM     15  C   UNL     1       4.949  -0.529   0.028  0.00  0.00    +0.120 A 
ATOM     16  C   UNL     1       4.866   0.191   1.211  0.00  0.00    +0.047 A 
ATOM     17  C   UNL     1       4.721  -0.472   2.414  0.00  0.00    +0.027 A 
ATOM     18  C   UNL     1       4.657  -1.859   2.438  0.00  0.00    +0.034 A 
ATOM     19  C   UNL     1       4.739  -2.579   1.254  0.00  0.00    +0.027 A 
ATOM     20  C   UNL     1       4.879  -1.914   0.051  0.00  0.00    +0.047 A 
BRANCH  15  22
ATOM     21  C   UNL     1       5.157   1.551  -1.106  0.00  0.00    +0.277 C 
ATOM     22  O   UNL     1       5.092   0.125  -1.156  0.00  0.00    -0.495 OA
ENDBRANCH  15  22
ENDBRANCH  11  18
ENDBRANCH   4  12
ENDBRANCH   1   4
BRANCH   1  23
ATOM     23  C   UNL     1       2.461  -6.307   3.826  0.00  0.00    +0.146 C 
BRANCH  23  24
ATOM     24  C   UNL     1       1.393  -7.072   4.564  0.00  0.00    +0.005 A 
ATOM     25  C   UNL     1       1.478  -8.447   4.674  0.00  0.00    +0.008 A 
ATOM     26  C   UNL     1       0.499  -9.149   5.351  0.00  0.00    +0.000 A 
ATOM     27  C   UNL     1      -0.567  -8.476   5.920  0.00  0.00    +0.003 A 
ATOM     28  C   UNL     1      -0.654  -7.102   5.812  0.00  0.00    +0.038 A 
ATOM     29  C   UNL     1       0.329  -6.397   5.138  0.00  0.00    +0.128 A 
ATOM     30  F   UNL     1       0.248  -5.052   5.036  0.00  0.00    -0.205 F 
ENDBRANCH  23  24
ENDBRANCH   1  23
BRANCH   2  31
ATOM     31  C   UNL     1       4.090  -8.274   5.064  0.00  0.00    +0.241 C 
BRANCH  31  32
ATOM     32  N   UNL     1       5.345  -8.973   5.354  0.00  0.00    -0.235 N 
ATOM     33  C   UNL     1       6.406  -9.147   4.497  0.00  0.00    +0.090 A 
ATOM     34  C   UNL     1       6.659  -8.769   3.183  0.00  0.00    +0.029 A 
ATOM     35  C   UNL     1       7.847  -9.105   2.596  0.00  0.00    +0.002 A 
ATOM     36  C   UNL     1       8.806  -9.822   3.301  0.00  0.00    +0.002 A 
ATOM     37  C   UNL     1       8.582 -10.204   4.591  0.00  0.00    +0.032 A 
ATOM     38  C   UNL     1       7.372  -9.872   5.216  0.00  0.00    +0.113 A 
ATOM     39  N   UNL     1       6.876 -10.105   6.447  0.00  0.00    -0.129 NA
ATOM     40  N   UNL     1       5.703  -9.590   6.561  0.00  0.00    -0.064 NA
ENDBRANCH  31  32
ENDBRANCH   2  31
TORSDOF 9
