REMARK  Name = ZINC35681910
REMARK  12 active torsions:
REMARK  status: ('A' for Active; 'I' for Inactive)
REMARK    1  A    between atoms: C_1  and  N_2
REMARK    2  A    between atoms: N_2  and  C_3
REMARK    3  A    between atoms: N_2  and  C_4
REMARK    4  A    between atoms: C_4  and  C_6
REMARK    5  A    between atoms: C_4  and  C_26
REMARK    6  A    between atoms: C_6  and  N_7
REMARK    7  A    between atoms: C_11  and  N_22
REMARK    8  A    between atoms: C_12  and  N_14
REMARK    9  A    between atoms: N_14  and  C_15
REMARK   10  A    between atoms: C_15  and  C_16
REMARK   11  A    between atoms: C_31  and  O_32
REMARK   12  A    between atoms: O_32  and  C_33
REMARK                            x       y       z     vdW  Elec       q    Type
REMARK                         _______ _______ _______ _____ _____    ______ ____
ROOT
ATOM      1  N   UNL     1      -1.702   1.302  -1.405  0.00  0.00    -0.315 N 
ATOM      2  C   UNL     1      -2.086   1.940  -2.571  0.00  0.00    +0.219 A 
ATOM      3  N   UNL     1      -2.711   1.246  -3.510  0.00  0.00    -0.198 NA
ATOM      4  C   UNL     1      -3.095   1.826  -4.645  0.00  0.00    +0.154 A 
ATOM      5  C   UNL     1      -2.832   3.179  -4.837  0.00  0.00    +0.205 A 
ATOM      6  C   UNL     1      -2.173   3.875  -3.828  0.00  0.00    +0.156 A 
ATOM      7  N   UNL     1      -1.823   3.230  -2.717  0.00  0.00    -0.197 NA
ATOM      8  N   UNL     1      -3.749   1.093  -5.623  0.00  0.00    -0.341 N 
ATOM      9  H   UNL     1      -1.246   1.799  -0.708  0.00  0.00    +0.149 HD
ATOM     10  H   UNL     1      -3.929   0.150  -5.483  0.00  0.00    +0.144 HD
ATOM     11  H   UNL     1      -4.026   1.522  -6.447  0.00  0.00    +0.144 HD
ENDROOT
BRANCH   5  12
ATOM     12  N   UNL     1      -3.242   3.862  -6.084  0.00  0.00    +0.063 N 
ATOM     13  O   UNL     1      -4.331   4.382  -6.159  0.00  0.00    -0.126 OA
ATOM     14  O   UNL     1      -2.489   3.900  -7.029  0.00  0.00    -0.126 OA
ENDBRANCH   5  12
BRANCH   6  15
ATOM     15  N   UNL     1      -1.889   5.224  -3.975  0.00  0.00    -0.325 N 
ATOM     16  H   UNL     1      -2.150   5.689  -4.785  0.00  0.00    +0.148 HD
BRANCH  15  17
ATOM     17  C   UNL     1      -1.195   5.947  -2.906  0.00  0.00    +0.134 C 
BRANCH  17  18
ATOM     18  C   UNL     1      -1.007   7.409  -3.318  0.00  0.00    +0.135 C 
ATOM     19  C   UNL     1      -0.243   8.184  -2.216  0.00  0.00    +0.035 C 
ATOM     20  C   UNL     1       0.383   9.338  -3.047  0.00  0.00    +0.031 C 
ATOM     21  C   UNL     1       0.671   8.649  -4.398  0.00  0.00    +0.160 C 
ATOM     22  O   UNL     1      -0.175   7.495  -4.486  0.00  0.00    -0.375 OA
ENDBRANCH  17  18
ENDBRANCH  15  17
ENDBRANCH   6  15
BRANCH   1  23
ATOM     23  C   UNL     1      -1.983  -0.125  -1.224  0.00  0.00    +0.094 C 
BRANCH  23  24
ATOM     24  C   UNL     1      -1.353  -0.606   0.084  0.00  0.00    -0.017 C 
BRANCH  24  25
ATOM     25  C   UNL     1       0.148  -0.502  -0.012  0.00  0.00    -0.018 A 
ATOM     26  C   UNL     1       0.805   0.565   0.569  0.00  0.00    +0.005 A 
ATOM     27  C   UNL     1       2.181   0.662   0.481  0.00  0.00    +0.000 A 
ATOM     28  C   UNL     1       2.903  -0.309  -0.189  0.00  0.00    +0.004 A 
ATOM     29  C   UNL     1       2.251  -1.378  -0.771  0.00  0.00    +0.046 A 
ATOM     30  C   UNL     1       0.870  -1.480  -0.679  0.00  0.00    +0.122 A 
BRANCH  30  31
ATOM     31  O   UNL     1       0.226  -2.534  -1.246  0.00  0.00    -0.495 OA
ATOM     32  C   UNL     1       1.034  -3.503  -1.917  0.00  0.00    +0.277 C 
ENDBRANCH  30  31
ENDBRANCH  24  25
BRANCH  24  34
ATOM     33  C   UNL     1      -3.300   0.231   1.207  0.00  0.00    -0.096 C 
ATOM     34  N   UNL     1      -1.831   0.228   1.195  0.00  0.00    +0.382 N 
ATOM     35  C   UNL     1      -1.332  -0.314   2.465  0.00  0.00    -0.096 C 
ATOM     36  H   UNL     1      -1.494   1.171   1.076  0.00  0.00    -0.082 HD
ENDBRANCH  24  34
ENDBRANCH  23  24
ENDBRANCH   1  23
TORSDOF 9
