REMARK  Name = ZINC04098352
REMARK  13 active torsions:
REMARK  status: ('A' for Active; 'I' for Inactive)
REMARK    1  A    between atoms: C_1  and  O_2
REMARK    2  A    between atoms: O_2  and  C_3
REMARK    3  A    between atoms: C_3  and  C_5
REMARK    4  A    between atoms: C_8  and  O_21
REMARK    5  A    between atoms: C_14  and  O_20
REMARK    6  A    between atoms: C_17  and  C_18
REMARK    7  A    between atoms: C_18  and  O_19
REMARK    8  A    between atoms: O_21  and  C_22
REMARK    9  A    between atoms: C_24  and  O_37
REMARK   10  A    between atoms: C_26  and  O_36
REMARK   11  A    between atoms: C_28  and  O_35
REMARK   12  A    between atoms: C_30  and  C_33
REMARK   13  A    between atoms: C_33  and  O_34
REMARK                            x       y       z     vdW  Elec       q    Type
REMARK                         _______ _______ _______ _____ _____    ______ ____
ROOT
ATOM      1  C   UNL     1       1.202   1.937   0.001  0.00  0.00    +0.077 C 
ATOM      2  C   UNL     1       2.343   1.244  -0.014  0.00  0.00    +0.201 C 
ATOM      3  O   UNL     1       3.536   1.871  -0.034  0.00  0.00    -0.470 OA
ATOM      4  C   UNL     1       3.541   3.176  -0.677  0.00  0.00    +0.317 C 
ATOM      5  C   UNL     1       2.524   4.076   0.015  0.00  0.00    +0.096 C 
ATOM      6  C   UNL     1       1.127   3.431   0.004  0.00  0.00    +0.074 C 
ATOM      7  C   UNL     1       0.575   3.896   1.380  0.00  0.00    +0.146 C 
ATOM      8  C   UNL     1       1.806   4.145   2.221  0.00  0.00    +0.006 C 
ATOM      9  C   UNL     1       2.873   4.243   1.474  0.00  0.00    -0.036 C 
ENDROOT
BRANCH   1  10
ATOM     10  C   UNL     1      -0.014   1.212   0.009  0.00  0.00    +0.338 C 
ATOM     11  O   UNL     1       0.002  -0.004   0.002  0.00  0.00    -0.245 OA
BRANCH  10  13
ATOM     12  C   UNL     1      -2.380   1.077   0.019  0.00  0.00    +0.280 C 
ATOM     13  O   UNL     1      -1.192   1.871   0.018  0.00  0.00    -0.465 OA
ENDBRANCH  10  13
ENDBRANCH   1  10
BRANCH   7  14
ATOM     14  O   UNL     1      -0.180   5.100   1.234  0.00  0.00    -0.387 OA
ATOM     15  H   UNL     1      -0.507   5.464   2.068  0.00  0.00    +0.210 HD
ENDBRANCH   7  14
BRANCH   9  16
ATOM     16  C   UNL     1       4.265   4.489   1.998  0.00  0.00    +0.187 C 
BRANCH  16  17
ATOM     17  O   UNL     1       4.226   4.595   3.422  0.00  0.00    -0.391 OA
ATOM     18  H   UNL     1       5.089   4.754   3.829  0.00  0.00    +0.210 HD
ENDBRANCH  16  17
ENDBRANCH   9  16
BRANCH   4  19
ATOM     19  O   UNL     1       3.192   3.031  -2.055  0.00  0.00    -0.309 OA
BRANCH  19  20
ATOM     20  C   UNL     1       4.141   2.287  -2.821  0.00  0.00    +0.286 C 
ATOM     21  C   UNL     1       3.608   2.088  -4.242  0.00  0.00    +0.201 C 
ATOM     22  C   UNL     1       4.657   1.342  -5.072  0.00  0.00    +0.179 C 
ATOM     23  C   UNL     1       5.968   2.134  -5.049  0.00  0.00    +0.177 C 
ATOM     24  C   UNL     1       6.410   2.331  -3.596  0.00  0.00    +0.178 C 
ATOM     25  O   UNL     1       5.377   3.002  -2.872  0.00  0.00    -0.340 OA
BRANCH  23  26
ATOM     26  O   UNL     1       6.976   1.412  -5.760  0.00  0.00    -0.386 OA
ATOM     27  H   UNL     1       6.759   1.246  -6.688  0.00  0.00    +0.210 HD
ENDBRANCH  23  26
BRANCH  22  28
ATOM     28  O   UNL     1       4.199   1.217  -6.420  0.00  0.00    -0.386 OA
ATOM     29  H   UNL     1       3.368   0.732  -6.509  0.00  0.00    +0.210 HD
ENDBRANCH  22  28
BRANCH  21  30
ATOM     30  O   UNL     1       2.402   1.323  -4.197  0.00  0.00    -0.384 OA
ATOM     31  H   UNL     1       1.695   1.734  -3.682  0.00  0.00    +0.210 HD
ENDBRANCH  21  30
BRANCH  24  32
ATOM     32  C   UNL     1       7.688   3.172  -3.561  0.00  0.00    +0.190 C 
BRANCH  32  33
ATOM     33  O   UNL     1       8.165   3.258  -2.217  0.00  0.00    -0.392 OA
ATOM     34  H   UNL     1       8.974   3.779  -2.119  0.00  0.00    +0.210 HD
ENDBRANCH  32  33
ENDBRANCH  24  32
ENDBRANCH  19  20
ENDBRANCH   4  19
TORSDOF 12
