REMARK  Name = ZINC04534281
REMARK  6 active torsions:
REMARK  status: ('A' for Active; 'I' for Inactive)
REMARK    1  A    between atoms: C_3  and  O_12
REMARK    2  A    between atoms: O_12  and  C_13
REMARK    3  A    between atoms: C_15  and  O_28
REMARK    4  A    between atoms: C_17  and  O_27
REMARK    5  A    between atoms: C_19  and  O_26
REMARK    6  A    between atoms: C_21  and  C_24
REMARK                            x       y       z     vdW  Elec       q    Type
REMARK                         _______ _______ _______ _____ _____    ______ ____
ROOT
ATOM      1  C   UNL     1       2.761   4.938  -0.151  0.00  0.00    +0.340 C 
ATOM      2  C   UNL     1       2.246   5.539   1.160  0.00  0.00    +0.214 C 
ATOM      3  C   UNL     1       0.777   5.148   1.349  0.00  0.00    +0.180 C 
ATOM      4  C   UNL     1       0.659   3.621   1.324  0.00  0.00    +0.186 C 
ATOM      5  C   UNL     1       1.235   3.094   0.007  0.00  0.00    +0.266 C 
ATOM      6  O   UNL     1       2.593   3.519  -0.121  0.00  0.00    -0.322 OA
ENDROOT
BRANCH   5   7
ATOM      7  C   UNL     1       1.177   1.588  -0.001  0.00  0.00    +0.387 C 
ATOM      8  O   UNL     1       2.199   0.944  -0.014  0.00  0.00    -0.243 OA
ATOM      9  O   UNL     1      -0.011   0.963   0.007  0.00  0.00    -0.243 OA
ENDBRANCH   5   7
BRANCH   4  10
ATOM     10  O   UNL     1       1.390   3.067   2.420  0.00  0.00    -0.386 OA
ATOM     11  H   UNL     1       1.363   2.102   2.463  0.00  0.00    +0.210 HD
ENDBRANCH   4  10
BRANCH   3  12
ATOM     12  O   UNL     1       0.309   5.643   2.606  0.00  0.00    -0.386 OA
ATOM     13  H   UNL     1       0.362   6.604   2.694  0.00  0.00    +0.210 HD
ENDBRANCH   3  12
BRANCH   2  14
ATOM     14  O   UNL     1       3.019   5.036   2.251  0.00  0.00    -0.383 OA
ATOM     15  H   UNL     1       3.962   5.243   2.194  0.00  0.00    +0.210 HD
ENDBRANCH   2  14
BRANCH   1  16
ATOM     16  O   UNL     1       4.146   5.251  -0.307  0.00  0.00    -0.461 OA
BRANCH  16  19
ATOM     17  C   UNL     1       4.464   4.117  -3.741  0.00  0.00    +0.012 A 
ATOM     18  C   UNL     1       3.929   4.407  -2.525  0.00  0.00    +0.046 A 
ATOM     19  C   UNL     1       4.709   4.974  -1.513  0.00  0.00    +0.125 A 
ATOM     20  C   UNL     1       6.029   5.257  -1.721  0.00  0.00    +0.054 A 
ATOM     21  C   UNL     1       6.614   4.966  -2.964  0.00  0.00    -0.014 A 
ATOM     22  C   UNL     1       5.820   4.391  -3.989  0.00  0.00    -0.017 A 
ATOM     23  C   UNL     1       6.405   4.105  -5.234  0.00  0.00    +0.023 A 
ATOM     24  C   UNL     1       7.722   4.383  -5.440  0.00  0.00    +0.018 A 
ATOM     25  C   UNL     1       8.502   4.948  -4.432  0.00  0.00    +0.016 A 
ATOM     26  C   UNL     1       7.970   5.238  -3.214  0.00  0.00    +0.010 A 
ATOM     27 BR   UNL     1       8.505   3.997  -7.118  0.00  0.00    -0.050 Br
ENDBRANCH  16  19
ENDBRANCH   1  16
TORSDOF 6
