REMARK  Name = ZINC03011938
REMARK  6 active torsions:
REMARK  status: ('A' for Active; 'I' for Inactive)
REMARK    1  A    between atoms: C_1  and  O_2
REMARK    2  A    between atoms: O_2  and  C_3
REMARK    3  A    between atoms: C_6  and  N_10
REMARK    4  A    between atoms: C_11  and  C_13
REMARK    5  A    between atoms: C_18  and  C_31
REMARK    6  A    between atoms: C_21  and  C_24
REMARK                            x       y       z     vdW  Elec       q    Type
REMARK                         _______ _______ _______ _____ _____    ______ ____
ROOT
ATOM      1  C   UNL     1       3.095  -4.507   5.522  0.00  0.00    +0.149 A 
ATOM      2  C   UNL     1       3.140  -5.900   5.758  0.00  0.00    +0.078 A 
ATOM      3  C   UNL     1       3.748  -6.093   6.944  0.00  0.00    +0.119 A 
ATOM      4  N   UNL     1       4.085  -4.871   7.454  0.00  0.00    -0.238 N 
ATOM      5  N   UNL     1       3.670  -3.898   6.545  0.00  0.00    -0.164 NA
ATOM      6  C   UNL     1       4.771  -4.685   8.736  0.00  0.00    +0.215 C 
ATOM      7  C   UNL     1       5.448  -6.002   9.131  0.00  0.00    +0.063 C 
ATOM      8  C   UNL     1       4.446  -7.157   9.024  0.00  0.00    +0.104 C 
ATOM      9  N   UNL     1       4.028  -7.287   7.614  0.00  0.00    -0.322 N 
ATOM     10  H   UNL     1       3.952  -8.150   7.179  0.00  0.00    +0.148 HD
ENDROOT
BRANCH   8  11
ATOM     11  C   UNL     1       5.097  -8.436   9.483  0.00  0.00    -0.027 A 
ATOM     12  C   UNL     1       5.938  -9.128   8.632  0.00  0.00    +0.007 A 
ATOM     13  C   UNL     1       6.535 -10.301   9.052  0.00  0.00    +0.020 A 
ATOM     14  C   UNL     1       6.292 -10.784  10.326  0.00  0.00    +0.041 A 
ATOM     15  C   UNL     1       5.450 -10.091  11.178  0.00  0.00    +0.020 A 
ATOM     16  C   UNL     1       4.858  -8.915  10.758  0.00  0.00    +0.007 A 
ATOM     17 CL   UNL     1       7.041 -12.258  10.854  0.00  0.00    -0.084 Cl
ENDBRANCH   8  11
BRANCH   1  19
ATOM     18  N   UNL     1       2.540  -2.503   4.232  0.00  0.00    -0.280 N 
ATOM     19  C   UNL     1       2.513  -3.846   4.337  0.00  0.00    +0.268 C 
ATOM     20  O   UNL     1       2.009  -4.514   3.455  0.00  0.00    -0.268 OA
ATOM     21  H   UNL     1       3.009  -1.974   4.897  0.00  0.00    +0.155 HD
BRANCH  18  25
ATOM     22  C   UNL     1       0.612  -0.619   1.051  0.00  0.00    +0.138 A 
ATOM     23  C   UNL     1       1.777  -0.078   1.574  0.00  0.00    +0.049 A 
ATOM     24  C   UNL     1       2.416  -0.701   2.627  0.00  0.00    +0.027 A 
ATOM     25  C   UNL     1       1.892  -1.870   3.164  0.00  0.00    +0.035 A 
ATOM     26  C   UNL     1       0.726  -2.412   2.641  0.00  0.00    +0.047 A 
ATOM     27  C   UNL     1       0.084  -1.784   1.590  0.00  0.00    +0.084 A 
ATOM     28 CL   UNL     1      -1.379  -2.456   0.940  0.00  0.00    -0.080 Cl
BRANCH  22  30
ATOM     29  C   UNL     1       0.582   1.191  -0.492  0.00  0.00    +0.277 C 
ATOM     30  O   UNL     1      -0.017  -0.004   0.013  0.00  0.00    -0.494 OA
ENDBRANCH  22  30
ENDBRANCH  18  25
ENDBRANCH   1  19
BRANCH   6  31
ATOM     31  C   UNL     1       5.825  -3.585   8.598  0.00  0.00    +0.412 C 
ATOM     32  F   UNL     1       5.205  -2.388   8.225  0.00  0.00    -0.168 F 
ATOM     33  F   UNL     1       6.479  -3.410   9.823  0.00  0.00    -0.168 F 
ATOM     34  F   UNL     1       6.757  -3.952   7.621  0.00  0.00    -0.168 F 
ENDBRANCH   6  31
TORSDOF 5
