REMARK  Name = ZINC16569932
REMARK  5 active torsions:
REMARK  status: ('A' for Active; 'I' for Inactive)
REMARK    1  A    between atoms: C_12  and  C_32
REMARK    2  A    between atoms: C_15  and  C_17
REMARK    3  A    between atoms: C_17  and  N_18
REMARK    4  A    between atoms: N_18  and  C_19
REMARK    5  A    between atoms: N_24  and  C_25
REMARK                            x       y       z     vdW  Elec       q    Type
REMARK                         _______ _______ _______ _____ _____    ______ ____
ROOT
ATOM      1  C   UNL     1       0.192   4.492  -1.361  0.00  0.00    +0.002 A 
ATOM      2  C   UNL     1       0.453   3.254  -1.919  0.00  0.00    +0.002 A 
ATOM      3  C   UNL     1      -0.295   2.150  -1.555  0.00  0.00    +0.025 A 
ATOM      4  C   UNL     1      -1.315   2.282  -0.626  0.00  0.00    +0.061 A 
ATOM      5  C   UNL     1      -1.582   3.538  -0.071  0.00  0.00    +0.068 A 
ATOM      6  C   UNL     1      -0.827   4.636  -0.435  0.00  0.00    +0.028 A 
ATOM      7  N   UNL     1      -2.640   3.638   0.844  0.00  0.00    -0.316 N 
ATOM      8  C   UNL     1      -2.970   4.643   1.691  0.00  0.00    +0.092 A 
ATOM      9  C   UNL     1      -4.072   4.268   2.379  0.00  0.00    +0.020 A 
ATOM     10  C   UNL     1      -4.435   2.978   1.933  0.00  0.00    +0.025 A 
ATOM     11  C   UNL     1      -3.551   2.616   0.997  0.00  0.00    +0.049 A 
ATOM     12  C   UNL     1      -3.475   1.342   0.184  0.00  0.00    +0.159 C 
ATOM     13  N   UNL     1      -2.076   1.169  -0.240  0.00  0.00    -0.255 N 
ATOM     14  C   UNL     1      -1.527  -0.061  -0.263  0.00  0.00    +0.238 C 
ATOM     15  O   UNL     1      -0.400  -0.215  -0.684  0.00  0.00    -0.273 OA
ENDROOT
BRANCH  12  16
ATOM     16  C   UNL     1      -4.366   1.451  -1.026  0.00  0.00    -0.021 A 
ATOM     17  C   UNL     1      -3.951   2.178  -2.126  0.00  0.00    +0.008 A 
ATOM     18  C   UNL     1      -4.765   2.274  -3.239  0.00  0.00    +0.038 A 
ATOM     19  C   UNL     1      -6.001   1.650  -3.248  0.00  0.00    +0.123 A 
ATOM     20  C   UNL     1      -6.418   0.927  -2.144  0.00  0.00    +0.038 A 
ATOM     21  C   UNL     1      -5.600   0.828  -1.034  0.00  0.00    +0.008 A 
ATOM     22  F   UNL     1      -6.800   1.748  -4.333  0.00  0.00    -0.205 F 
ENDBRANCH  12  16
BRANCH  14  23
ATOM     23  C   UNL     1      -2.313  -1.246   0.236  0.00  0.00    +0.205 C 
BRANCH  23  24
ATOM     24  N   UNL     1      -1.457  -2.435   0.235  0.00  0.00    -0.274 N 
ATOM     25  C   UNL     1      -1.396  -3.221  -0.858  0.00  0.00    +0.307 C 
ATOM     26  O   UNL     1      -2.124  -3.001  -1.807  0.00  0.00    -0.252 OA
ATOM     27  N   UNL     1      -0.529  -4.252  -0.899  0.00  0.00    -0.269 N 
ATOM     28  H   UNL     1      -0.028  -4.497  -0.105  0.00  0.00    +0.156 HD
BRANCH  27  29
ATOM     29  C   UNL     1      -0.351  -4.970  -2.087  0.00  0.00    +0.036 A 
ATOM     30  C   UNL     1      -0.465  -4.326  -3.313  0.00  0.00    +0.023 A 
ATOM     31  C   UNL     1      -0.284  -5.035  -4.484  0.00  0.00    +0.003 A 
ATOM     32  C   UNL     1      -0.001  -6.388  -4.438  0.00  0.00    +0.020 A 
ATOM     33  C   UNL     1       0.107  -7.034  -3.219  0.00  0.00    +0.043 A 
ATOM     34  C   UNL     1      -0.067  -6.328  -2.044  0.00  0.00    +0.043 A 
ATOM     35 CL   UNL     1       0.462  -8.733  -3.167  0.00  0.00    -0.083 Cl
ENDBRANCH  27  29
BRANCH  24  36
ATOM     36  C   UNL     1      -0.668  -2.770   1.423  0.00  0.00    +0.078 C 
ATOM     37  C   UNL     1      -0.992  -2.026   2.720  0.00  0.00    +0.024 C 
ATOM     38  C   UNL     1       0.294  -1.706   1.955  0.00  0.00    +0.024 C 
ENDBRANCH  24  36
ENDBRANCH  23  24
ENDBRANCH  14  23
TORSDOF 5
