REMARK  Name = ZINC63280025
REMARK  4 active torsions:
REMARK  status: ('A' for Active; 'I' for Inactive)
REMARK    1  A    between atoms: C_6  and  C_11
REMARK    2  A    between atoms: N_13  and  C_14
REMARK    3  A    between atoms: C_14  and  C_15
REMARK    4  A    between atoms: N_17  and  C_18
REMARK                            x       y       z     vdW  Elec       q    Type
REMARK                         _______ _______ _______ _____ _____    ______ ____
ROOT
ATOM      1  C   UNL     1       3.809  -4.725  -2.700  0.00  0.00    +0.200 C 
ENDROOT
BRANCH   1   4
ATOM      2  C   UNL     1       3.631  -2.749  -1.285  0.00  0.00    +0.240 C 
ATOM      3  O   UNL     1       4.291  -2.141  -2.101  0.00  0.00    -0.273 OA
ATOM      4  N   UNL     1       3.335  -4.048  -1.491  0.00  0.00    -0.305 N 
ATOM      5  H   UNL     1       2.807  -4.534  -0.838  0.00  0.00    +0.149 HD
BRANCH   2  11
ATOM      6  C   UNL     1      -0.016   1.348   0.009  0.00  0.00    +0.001 A 
ATOM      7  C   UNL     1       1.166   2.101   0.002  0.00  0.00    +0.002 A 
ATOM      8  C   UNL     1       2.391   1.535  -0.013  0.00  0.00    +0.026 A 
ATOM      9  C   UNL     1       2.529   0.120  -0.022  0.00  0.00    +0.043 A 
ATOM     10  N   UNL     1       3.587  -0.654  -0.037  0.00  0.00    -0.370 N 
ATOM     11  C   UNL     1       3.143  -2.053  -0.041  0.00  0.00    +0.190 C 
ATOM     12  C   UNL     1       1.631  -2.008  -0.025  0.00  0.00    +0.016 C 
ATOM     13  C   UNL     1       1.295  -0.698  -0.014  0.00  0.00    -0.004 A 
ATOM     14  C   UNL     1       0.002  -0.004   0.002  0.00  0.00    +0.010 A 
ATOM     15  H   UNL     1       4.509  -0.353  -0.045  0.00  0.00    +0.161 HD
ENDBRANCH   2  11
ENDBRANCH   1   4
BRANCH   1  16
ATOM     16  C   UNL     1       3.346  -6.158  -2.688  0.00  0.00    +0.232 C 
ATOM     17  O   UNL     1       2.684  -6.574  -1.761  0.00  0.00    -0.274 OA
ATOM     18  N   UNL     1       3.666  -6.979  -3.708  0.00  0.00    -0.287 N 
ATOM     19  H   UNL     1       4.196  -6.647  -4.450  0.00  0.00    +0.151 HD
BRANCH  18  20
ATOM     20  C   UNL     1       3.215  -8.373  -3.697  0.00  0.00    +0.224 C 
ATOM     21  N   UNL     1       3.429  -9.008  -5.004  0.00  0.00    -0.316 N 
ATOM     22  C   UNL     1       4.294 -10.101  -5.055  0.00  0.00    +0.043 A 
ATOM     23  C   UNL     1       4.619 -10.833  -6.211  0.00  0.00    +0.024 A 
ATOM     24  C   UNL     1       5.486 -11.900  -6.158  0.00  0.00    +0.002 A 
ATOM     25  C   UNL     1       6.068 -12.288  -4.965  0.00  0.00    +0.001 A 
ATOM     26  C   UNL     1       5.766 -11.585  -3.811  0.00  0.00    +0.016 A 
ATOM     27  C   UNL     1       4.898 -10.518  -3.865  0.00  0.00    +0.032 A 
ATOM     28  S   UNL     1       4.287  -9.405  -2.618  0.00  0.00    -0.082 S 
ATOM     29  H   UNL     1       2.985  -8.680  -5.801  0.00  0.00    +0.149 HD
ENDBRANCH  18  20
ENDBRANCH   1  16
TORSDOF 4
