REMARK  Name = ZINC37317487
REMARK  7 active torsions:
REMARK  status: ('A' for Active; 'I' for Inactive)
REMARK    1  A    between atoms: C_1  and  C_2
REMARK    2  A    between atoms: C_5  and  S_18
REMARK    3  A    between atoms: C_7  and  N_8
REMARK    4  A    between atoms: N_8  and  C_9
REMARK    5  A    between atoms: N_12  and  C_15
REMARK    6  A    between atoms: C_15  and  C_16
REMARK    7  A    between atoms: S_18  and  N_21
REMARK                            x       y       z     vdW  Elec       q    Type
REMARK                         _______ _______ _______ _____ _____    ______ ____
ROOT
ATOM      1  C   UNL     1      -0.018   1.503   0.010  0.00  0.00    +0.045 C 
ATOM      2  C   UNL     1       0.002  -0.004   0.002  0.00  0.00    -0.030 A 
ATOM      3  C   UNL     1       0.006  -0.689  -1.198  0.00  0.00    +0.007 A 
ATOM      4  C   UNL     1       0.024  -2.071  -1.206  0.00  0.00    +0.029 A 
ATOM      5  C   UNL     1       0.039  -2.773  -0.014  0.00  0.00    +0.107 A 
ATOM      6  C   UNL     1       0.036  -2.095   1.188  0.00  0.00    +0.051 A 
ATOM      7  C   UNL     1       0.023  -0.706   1.200  0.00  0.00    +0.032 A 
ENDROOT
BRANCH   5   8
ATOM      8  S   UNL     1       0.062  -4.535  -0.031  0.00  0.00    +0.056 S 
ATOM      9  O   UNL     1      -0.477  -4.960   1.213  0.00  0.00    -0.153 OA
ATOM     10  O   UNL     1      -0.490  -4.937  -1.277  0.00  0.00    -0.153 OA
BRANCH   8  11
ATOM     11  N   UNL     1       1.650  -5.004  -0.044  0.00  0.00    -0.204 NA
ATOM     12  H   UNL     1       2.353  -4.336  -0.041  0.00  0.00    +0.144 HD
ATOM     13  H   UNL     1       1.877  -5.947  -0.054  0.00  0.00    +0.144 HD
ENDBRANCH   8  11
ENDBRANCH   5   8
BRANCH   7  14
ATOM     14  N   UNL     1       0.025  -0.016   2.415  0.00  0.00    -0.341 N 
ATOM     15  H   UNL     1       0.012   0.954   2.422  0.00  0.00    +0.146 HD
BRANCH  14  16
ATOM     16  C   UNL     1       0.047  -0.758   3.678  0.00  0.00    +0.067 C 
ATOM     17  C   UNL     1       1.494  -1.097   4.048  0.00  0.00    +0.003 C 
ATOM     18  C   UNL     1       1.516  -1.802   5.406  0.00  0.00    -0.076 C 
ATOM     19  N   UNL     1       0.943  -0.918   6.429  0.00  0.00    +0.387 N 
ATOM     20  C   UNL     1      -0.466  -0.646   6.119  0.00  0.00    -0.076 C 
ATOM     21  C   UNL     1      -0.564   0.102   4.788  0.00  0.00    +0.003 C 
ATOM     22  H   UNL     1       1.456  -0.050   6.447  0.00  0.00    -0.080 HD
BRANCH  19  23
ATOM     23  C   UNL     1       1.038  -1.567   7.743  0.00  0.00    +0.012 C 
BRANCH  23  24
ATOM     24  C   UNL     1       0.574  -0.636   8.784  0.00  0.00    -0.124 C 
ATOM     25  C   UNL     1       0.204   0.107   9.615  0.00  0.00    +0.002 C 
ENDBRANCH  23  24
ENDBRANCH  19  23
ENDBRANCH  14  16
ENDBRANCH   7  14
TORSDOF 6
