REMARK  Name = ZINC20433852
REMARK  4 active torsions:
REMARK  status: ('A' for Active; 'I' for Inactive)
REMARK    1  A    between atoms: C_3  and  C_4
REMARK    2  A    between atoms: C_4  and  N_5
REMARK    3  A    between atoms: C_6  and  C_8
REMARK    4  A    between atoms: C_11  and  O_15
REMARK                            x       y       z     vdW  Elec       q    Type
REMARK                         _______ _______ _______ _____ _____    ______ ____
ROOT
ATOM      1  C   UNL     1      -0.669   1.535  -1.214  0.00  0.00    +0.018 C 
ATOM      2  C   UNL     1       0.456   1.470  -2.278  0.00  0.00    +0.023 C 
ATOM      3  C   UNL     1       1.718   1.853  -1.471  0.00  0.00    +0.097 C 
ATOM      4  C   UNL     1       1.362   1.554  -0.003  0.00  0.00    -0.050 C 
ATOM      5  N   UNL     1      -0.012   1.005   0.008  0.00  0.00    +0.388 N 
ATOM      6  H   UNL     1      -0.568   1.338   0.896  0.00  0.00    -0.085 HD
ATOM      7  H   UNL     1      -0.002  -0.095  -0.029  0.00  0.00    -0.085 HD
ENDROOT
BRANCH   1   9
ATOM      8  N   UNL     1      -2.778   1.141  -2.446  0.00  0.00    -0.316 N 
ATOM      9  C   UNL     1      -1.830   0.662  -1.615  0.00  0.00    +0.199 C 
ATOM     10  O   UNL     1      -1.912  -0.470  -1.190  0.00  0.00    -0.278 OA
ATOM     11  H   UNL     1      -2.703   2.169  -2.831  0.00  0.00    +0.149 HD
BRANCH   8  12
ATOM     12  C   UNL     1      -3.907   0.293  -2.835  0.00  0.00    +0.107 C 
BRANCH  12  15
ATOM     13  C   UNL     1      -6.252   1.359  -3.292  0.00  0.00    +0.005 C 
ATOM     14  C   UNL     1      -6.011   0.318  -4.388  0.00  0.00    +0.005 C 
ATOM     15  C   UNL     1      -4.829   1.071  -3.776  0.00  0.00    +0.006 C 
ENDBRANCH  12  15
ENDBRANCH   8  12
ENDBRANCH   1   9
BRANCH   3  16
ATOM     16  O   UNL     1       2.831   1.057  -1.883  0.00  0.00    -0.394 OA
ATOM     17  H   UNL     1       3.814   1.198  -1.410  0.00  0.00    +0.210 HD
ENDBRANCH   3  16
TORSDOF 4
