REMARK  Name = ZINC51169287
REMARK  4 active torsions:
REMARK  status: ('A' for Active; 'I' for Inactive)
REMARK    1  A    between atoms: C_1  and  C_2
REMARK    2  A    between atoms: C_3  and  C_15
REMARK    3  A    between atoms: C_11  and  N_12
REMARK    4  A    between atoms: N_12  and  N_13
REMARK                            x       y       z     vdW  Elec       q    Type
REMARK                         _______ _______ _______ _____ _____    ______ ____
ROOT
ATOM      1  C   UNL     1       0.181   1.498   0.012  0.00  0.00    +0.047 C 
ATOM      2  C   UNL     1       0.097  -0.006   0.003  0.00  0.00    -0.009 A 
ATOM      3  C   UNL     1       0.098  -0.697  -1.201  0.00  0.00    +0.018 A 
ATOM      4  N   UNL     1       0.025  -2.007  -1.248  0.00  0.00    -0.358 N 
ATOM      5  C   UNL     1      -0.054  -2.747  -0.136  0.00  0.00    +0.048 A 
ATOM      6  C   UNL     1      -0.131  -4.149  -0.204  0.00  0.00    +0.027 A 
ATOM      7  C   UNL     1      -0.210  -4.877   0.944  0.00  0.00    +0.016 A 
ATOM      8  C   UNL     1      -0.216  -4.255   2.190  0.00  0.00    +0.014 A 
ATOM      9  C   UNL     1      -0.143  -2.898   2.293  0.00  0.00    +0.026 A 
ATOM     10  C   UNL     1      -0.060  -2.118   1.132  0.00  0.00    +0.022 A 
ATOM     11  C   UNL     1       0.023  -0.707   1.196  0.00  0.00    +0.055 A 
ATOM     12  I   UNL     1      -0.341  -5.420   3.927  0.00  0.00    -0.044 I 
ATOM     13  C   UNL     1       0.184   0.078  -2.490  0.00  0.00    +0.063 C 
ATOM     14  H   UNL     1       0.028  -2.450  -2.111  0.00  0.00    +0.166 HD
ENDROOT
BRANCH  11  15
ATOM     15  N   UNL     1       0.026  -0.045   2.415  0.00  0.00    -0.282 N 
ATOM     16  H   UNL     1      -0.502  -0.387   3.154  0.00  0.00    +0.166 HD
BRANCH  15  17
ATOM     17  N   UNL     1       0.773   1.087   2.576  0.00  0.00    -0.256 NA
ATOM     18  H   UNL     1       0.676   1.454   3.511  0.00  0.00    +0.140 HD
ATOM     19  H   UNL     1       1.742   0.915   2.354  0.00  0.00    +0.140 HD
ENDBRANCH  15  17
ENDBRANCH  11  15
TORSDOF 2
