REMARK  Name = ZINC08651881
REMARK  8 active torsions:
REMARK  status: ('A' for Active; 'I' for Inactive)
REMARK    1  A    between atoms: C_1  and  C_2
REMARK    2  A    between atoms: C_4  and  S_15
REMARK    3  A    between atoms: C_5  and  S_9
REMARK    4  A    between atoms: S_9  and  C_10
REMARK    5  A    between atoms: C_10  and  C_11
REMARK    6  A    between atoms: C_11  and  O_13
REMARK    7  A    between atoms: O_13  and  C_14
REMARK    8  A    between atoms: S_15  and  N_18
REMARK                            x       y       z     vdW  Elec       q    Type
REMARK                         _______ _______ _______ _____ _____    ______ ____
ROOT
ATOM      1  S   UNL     1       1.793  -0.308   0.180  0.00  0.00    +0.076 S 
ATOM      2  O   UNL     1       0.572  -0.995  -0.055  0.00  0.00    -0.150 OA
ATOM      3  O   UNL     1       2.958  -0.537  -0.600  0.00  0.00    -0.150 OA
ENDROOT
BRANCH   1   4
ATOM      4  N   UNL     1       2.211  -0.610   1.754  0.00  0.00    -0.184 N 
ATOM      5  C   UNL     1       1.282  -0.418   2.767  0.00  0.00    +0.233 A 
ATOM      6  N   UNL     1       1.571  -0.348   4.112  0.00  0.00    -0.297 N 
ATOM      7  H   UNL     1       2.452  -0.423   4.510  0.00  0.00    +0.171 HD
ATOM      8  C   UNL     1       0.393  -0.150   4.788  0.00  0.00    +0.196 A 
ATOM      9  N   UNL     1      -0.602  -0.111   3.851  0.00  0.00    -0.245 N 
ATOM     10  H   UNL     1      -1.548   0.013   4.021  0.00  0.00    +0.192 HD
ATOM     11  N   UNL     1       0.001  -0.283   2.598  0.00  0.00    -0.135 NA
ATOM     12  H   UNL     1       3.104  -0.920   1.968  0.00  0.00    +0.177 HD
ATOM     13  H   UNL     1      -0.593   0.108   6.559  0.00  0.00    +0.159 HD
ATOM     14  N   UNL     1       0.313  -0.034   6.113  0.00  0.00    -0.370 N 
ATOM     15  H   UNL     1       1.164  -0.086   6.685  0.00  0.00    +0.159 HD
ENDBRANCH   1   4
BRANCH   1  19
ATOM     16  C   UNL     1      -1.519   3.636  -0.703  0.00  0.00    +0.045 C 
ATOM     17  C   UNL     1      -0.124   3.183  -0.357  0.00  0.00    -0.030 A 
ATOM     18  C   UNL     1       0.160   1.832  -0.265  0.00  0.00    +0.034 A 
ATOM     19  C   UNL     1       1.435   1.413   0.057  0.00  0.00    +0.122 A 
ATOM     20  C   UNL     1       2.438   2.350   0.278  0.00  0.00    +0.036 A 
ATOM     21  C   UNL     1       2.152   3.706   0.179  0.00  0.00    +0.037 A 
ATOM     22  C   UNL     1       0.872   4.119  -0.138  0.00  0.00    +0.045 A 
ATOM     23 CL   UNL     1       0.512   5.812  -0.262  0.00  0.00    -0.083 Cl
BRANCH  20  24
ATOM     24  S   UNL     1       4.069   1.819   0.682  0.00  0.00    -0.112 S 
BRANCH  24  25
ATOM     25  C   UNL     1       5.036   3.353   0.712  0.00  0.00    +0.194 C 
BRANCH  25  26
ATOM     26  C   UNL     1       6.490   3.026   0.930  0.00  0.00    +0.317 C 
ATOM     27  O   UNL     1       6.853   1.874   0.960  0.00  0.00    -0.250 OA
BRANCH  26  28
ATOM     28  O   UNL     1       7.383   4.015   1.093  0.00  0.00    -0.467 OA
ATOM     29  C   UNL     1       8.767   3.627   1.298  0.00  0.00    +0.280 C 
ENDBRANCH  26  28
ENDBRANCH  25  26
ENDBRANCH  24  25
ENDBRANCH  20  24
ENDBRANCH   1  19
TORSDOF 6
