REMARK  Name = ZINC39142927
REMARK  10 active torsions:
REMARK  status: ('A' for Active; 'I' for Inactive)
REMARK    1  A    between atoms: C_1  and  C_2
REMARK    2  A    between atoms: C_2  and  C_3
REMARK    3  A    between atoms: C_3  and  C_4
REMARK    4  A    between atoms: C_4  and  N_5
REMARK    5  A    between atoms: C_12  and  O_37
REMARK    6  A    between atoms: C_14  and  C_18
REMARK    7  A    between atoms: N_20  and  N_21
REMARK    8  A    between atoms: C_22  and  C_23
REMARK    9  A    between atoms: C_22  and  C_24
REMARK   10  A    between atoms: C_26  and  O_36
REMARK                            x       y       z     vdW  Elec       q    Type
REMARK                         _______ _______ _______ _____ _____    ______ ____
ROOT
ATOM      1  C   UNL     1      -4.789  -4.841  -1.058  0.00  0.00    +0.247 C 
ATOM      2  O   UNL     1      -5.338  -5.398  -0.131  0.00  0.00    -0.273 OA
ATOM      3  N   UNL     1      -4.143  -5.565  -1.994  0.00  0.00    -0.206 N 
ATOM      4  H   UNL     1      -3.704  -5.119  -2.735  0.00  0.00    +0.177 HD
ENDROOT
BRANCH   1  13
ATOM      5  N   UNL     1      -2.787  -2.571   0.015  0.00  0.00    -0.270 N 
ATOM      6  C   UNL     1      -3.429  -2.812   1.233  0.00  0.00    +0.042 A 
ATOM      7  C   UNL     1      -2.686  -2.949   2.399  0.00  0.00    +0.024 A 
ATOM      8  C   UNL     1      -3.326  -3.188   3.599  0.00  0.00    +0.002 A 
ATOM      9  C   UNL     1      -4.705  -3.291   3.641  0.00  0.00    +0.000 A 
ATOM     10  C   UNL     1      -5.447  -3.154   2.482  0.00  0.00    +0.008 A 
ATOM     11  C   UNL     1      -4.813  -2.916   1.279  0.00  0.00    +0.003 A 
ATOM     12  C   UNL     1      -5.618  -2.767   0.015  0.00  0.00    +0.167 C 
ATOM     13  C   UNL     1      -4.829  -3.338  -1.164  0.00  0.00    +0.195 C 
ATOM     14  C   UNL     1      -3.425  -2.796  -1.148  0.00  0.00    +0.235 C 
ATOM     15  O   UNL     1      -2.861  -2.562  -2.196  0.00  0.00    -0.274 OA
BRANCH  12  16
ATOM     16  O   UNL     1      -5.886  -1.383  -0.219  0.00  0.00    -0.386 OA
ATOM     17  H   UNL     1      -6.386  -0.954   0.490  0.00  0.00    +0.210 HD
ENDBRANCH  12  16
BRANCH   5  18
ATOM     18  C   UNL     1      -1.413  -2.063   0.004  0.00  0.00    +0.114 C 
BRANCH  18  19
ATOM     19  C   UNL     1      -1.433  -0.534   0.013  0.00  0.00    +0.019 C 
BRANCH  19  21
ATOM     20  C   UNL     1      -0.019   1.526   0.010  0.00  0.00    +0.004 C 
ATOM     21  C   UNL     1       0.002  -0.004   0.002  0.00  0.00    -0.002 C 
ENDBRANCH  19  21
ENDBRANCH  18  19
ENDBRANCH   5  18
ENDBRANCH   1  13
BRANCH   3  22
ATOM     22  N   UNL     1      -4.106  -6.962  -1.895  0.00  0.00    -0.188 NA
ATOM     23  C   UNL     1      -3.492  -7.650  -2.783  0.00  0.00    +0.053 C 
ATOM     24  C   UNL     1      -2.811  -6.958  -3.935  0.00  0.00    +0.063 C 
BRANCH  23  25
ATOM     25  C   UNL     1      -3.452  -9.153  -2.678  0.00  0.00    +0.186 C 
ATOM     26  C   UNL     1      -4.393  -9.566  -1.562  0.00  0.00    +0.120 C 
ATOM     27  C   UNL     1      -3.845 -10.302  -0.509  0.00  0.00    +0.035 A 
ATOM     28  C   UNL     1      -4.650 -10.727   0.568  0.00  0.00    +0.013 A 
ATOM     29  C   UNL     1      -4.091 -11.443   1.581  0.00  0.00    +0.001 A 
ATOM     30  C   UNL     1      -2.737 -11.766   1.577  0.00  0.00    +0.002 A 
ATOM     31  C   UNL     1      -1.910 -11.383   0.565  0.00  0.00    +0.024 A 
ATOM     32  C   UNL     1      -2.420 -10.641  -0.515  0.00  0.00    +0.044 A 
ATOM     33  N   UNL     1      -1.605 -10.267  -1.510  0.00  0.00    -0.284 N 
ATOM     34  C   UNL     1      -2.005  -9.571  -2.554  0.00  0.00    +0.233 C 
ATOM     35  O   UNL     1      -1.207  -9.265  -3.421  0.00  0.00    -0.274 OA
ATOM     36  H   UNL     1      -0.670 -10.521  -1.458  0.00  0.00    +0.155 HD
BRANCH  26  37
ATOM     37  O   UNL     1      -5.690  -9.241  -1.586  0.00  0.00    -0.509 OA
ATOM     38  H   UNL     1      -6.190  -9.559  -0.822  0.00  0.00    +0.292 HD
ENDBRANCH  26  37
ENDBRANCH  23  25
ENDBRANCH   3  22
TORSDOF 8
