REMARK  Name = ZINC04788241
REMARK  9 active torsions:
REMARK  status: ('A' for Active; 'I' for Inactive)
REMARK    1  A    between atoms: C_1  and  C_2
REMARK    2  A    between atoms: C_4  and  N_32
REMARK    3  A    between atoms: C_9  and  N_12
REMARK    4  A    between atoms: C_13  and  C_15
REMARK    5  A    between atoms: C_15  and  C_16
REMARK    6  A    between atoms: C_16  and  C_17
REMARK    7  A    between atoms: N_22  and  C_25
REMARK    8  A    between atoms: C_34  and  C_41
REMARK    9  A    between atoms: C_37  and  C_40
REMARK                            x       y       z     vdW  Elec       q    Type
REMARK                         _______ _______ _______ _____ _____    ______ ____
ROOT
ATOM      1  N   UNL     1       0.030  -0.241   4.713  0.00  0.00    -0.285 N 
ATOM      2  C   UNL     1       0.764  -0.914   5.621  0.00  0.00    +0.218 C 
ATOM      3  O   UNL     1       1.379  -1.905   5.290  0.00  0.00    -0.275 OA
ATOM      4  H   UNL     1      -0.397   0.595   4.958  0.00  0.00    +0.155 HD
ENDROOT
BRANCH   1  13
ATOM      5  C   UNL     1      -0.343   1.957   0.096  0.00  0.00    +0.044 C 
ATOM      6  C   UNL     1      -0.413   0.460  -0.068  0.00  0.00    -0.038 A 
ATOM      7  C   UNL     1      -0.550  -0.102  -1.302  0.00  0.00    +0.045 A 
ATOM      8  C   UNL     1      -0.613  -1.496  -1.431  0.00  0.00    +0.099 A 
ATOM      9  N   UNL     1      -0.543  -2.289  -0.382  0.00  0.00    -0.343 N 
ATOM     10  C   UNL     1      -0.409  -1.795   0.855  0.00  0.00    +0.048 A 
ATOM     11  C   UNL     1      -0.334  -0.395   1.051  0.00  0.00    +0.003 A 
ATOM     12  C   UNL     1      -0.189   0.119   2.348  0.00  0.00    +0.033 A 
ATOM     13  C   UNL     1      -0.115  -0.748   3.416  0.00  0.00    +0.034 A 
ATOM     14  C   UNL     1      -0.185  -2.131   3.216  0.00  0.00    +0.025 A 
ATOM     15  C   UNL     1      -0.337  -2.650   1.969  0.00  0.00    +0.028 A 
ATOM     16  H   UNL     1      -0.591  -3.250  -0.507  0.00  0.00    +0.167 HD
BRANCH   8  17
ATOM     17  N   UNL     1      -0.751  -2.054  -2.694  0.00  0.00    -0.316 N 
ATOM     18  C   UNL     1      -0.947  -1.199  -3.872  0.00  0.00    +0.109 C 
ATOM     19  C   UNL     1       0.111  -1.556  -4.921  0.00  0.00    +0.004 C 
ATOM     20  C   UNL     1       0.048  -3.056  -5.215  0.00  0.00    +0.009 C 
ATOM     21  C   UNL     1       0.350  -3.841  -3.937  0.00  0.00    +0.004 C 
ATOM     22  C   UNL     1      -0.699  -3.511  -2.878  0.00  0.00    +0.109 C 
ATOM     23  C   UNL     1       1.736  -3.455  -3.416  0.00  0.00    +0.009 C 
ATOM     24  C   UNL     1      -0.159  -0.770  -6.206  0.00  0.00    +0.009 C 
ENDBRANCH   8  17
ENDBRANCH   1  13
BRANCH   2  25
ATOM     25  C   UNL     1       0.820  -0.435   7.049  0.00  0.00    +0.105 C 
BRANCH  25  26
ATOM     26  C   UNL     1       1.714  -1.370   7.866  0.00  0.00    +0.105 C 
BRANCH  26  27
ATOM     27  C   UNL     1       1.770  -0.891   9.294  0.00  0.00    +0.216 C 
ATOM     28  O   UNL     1       1.155   0.101   9.625  0.00  0.00    -0.276 OA
ATOM     29  N   UNL     1       2.504  -1.564  10.202  0.00  0.00    -0.298 N 
ATOM     30  C   UNL     1       3.259  -2.763   9.813  0.00  0.00    +0.126 C 
ATOM     31  C   UNL     1       4.729  -2.564  10.202  0.00  0.00    +0.124 C 
ATOM     32  N   UNL     1       4.789  -2.111  11.599  0.00  0.00    -0.325 N 
ATOM     33  C   UNL     1       4.033  -0.912  11.988  0.00  0.00    +0.124 C 
ATOM     34  C   UNL     1       2.568  -1.108  11.598  0.00  0.00    +0.126 C 
BRANCH  32  35
ATOM     35  C   UNL     1       5.550  -2.810  12.541  0.00  0.00    +0.065 A 
ATOM     36  C   UNL     1       6.879  -2.470  12.752  0.00  0.00    +0.026 A 
ATOM     37  C   UNL     1       7.628  -3.161  13.685  0.00  0.00    +0.002 A 
ATOM     38  C   UNL     1       7.057  -4.192  14.407  0.00  0.00    +0.003 A 
ATOM     39  C   UNL     1       5.733  -4.535  14.200  0.00  0.00    +0.040 A 
ATOM     40  C   UNL     1       4.975  -3.844  13.274  0.00  0.00    +0.144 A 
ATOM     41  F   UNL     1       3.681  -4.175  13.075  0.00  0.00    -0.204 F 
ENDBRANCH  32  35
ENDBRANCH  26  27
ENDBRANCH  25  26
ENDBRANCH   2  25
TORSDOF 6
