REMARK  Name = ZINC61690213
REMARK  10 active torsions:
REMARK  status: ('A' for Active; 'I' for Inactive)
REMARK    1  A    between atoms: C_1  and  C_2
REMARK    2  A    between atoms: C_2  and  N_3
REMARK    3  A    between atoms: N_3  and  C_4
REMARK    4  A    between atoms: C_4  and  C_5
REMARK    5  A    between atoms: C_5  and  C_6
REMARK    6  A    between atoms: C_6  and  N_7
REMARK    7  A    between atoms: N_7  and  C_8
REMARK    8  A    between atoms: C_8  and  C_9
REMARK    9  A    between atoms: C_8  and  C_10
REMARK   10  A    between atoms: C_8  and  C_18
REMARK                            x       y       z     vdW  Elec       q    Type
REMARK                         _______ _______ _______ _____ _____    ______ ____
ROOT
ATOM      1  C   UNL     1      -4.132  -6.013  -0.112  0.00  0.00    +0.058 C 
ATOM      2  C   UNL     1      -3.650  -6.848   1.076  0.00  0.00    +0.006 C 
ENDROOT
BRANCH   1   3
ATOM      3  C   UNL     1      -5.600  -6.264  -0.340  0.00  0.00    -0.047 A 
ATOM      4  C   UNL     1      -6.500  -5.217  -0.267  0.00  0.00    +0.005 A 
ATOM      5  C   UNL     1      -7.847  -5.446  -0.477  0.00  0.00    +0.040 A 
ATOM      6  C   UNL     1      -8.295  -6.726  -0.760  0.00  0.00    +0.137 A 
ATOM      7  C   UNL     1      -7.393  -7.774  -0.832  0.00  0.00    +0.053 A 
ATOM      8  C   UNL     1      -6.045  -7.541  -0.627  0.00  0.00    +0.021 A 
ATOM      9 BR   UNL     1      -8.003  -9.522  -1.218  0.00  0.00    -0.047 Br
ATOM     10  F   UNL     1      -9.611  -6.951  -0.964  0.00  0.00    -0.204 F 
ENDBRANCH   1   3
BRANCH   1  11
ATOM     11  N   UNL     1      -3.918  -4.587   0.174  0.00  0.00    +0.392 N 
ATOM     12  H   UNL     1      -4.486  -4.313   0.962  0.00  0.00    -0.084 HD
ATOM     13  H   UNL     1      -4.176  -4.040  -0.634  0.00  0.00    -0.084 HD
BRANCH  11  14
ATOM     14  C   UNL     1      -2.502  -4.358   0.488  0.00  0.00    -0.082 C 
BRANCH  14  15
ATOM     15  C   UNL     1      -2.252  -2.857   0.652  0.00  0.00    -0.038 C 
BRANCH  15  16
ATOM     16  C   UNL     1      -0.777  -2.619   0.980  0.00  0.00    -0.084 C 
BRANCH  16  17
ATOM     17  N   UNL     1      -0.537  -1.178   1.137  0.00  0.00    +0.379 N 
ATOM     18  H   UNL     1      -1.110  -0.822   1.887  0.00  0.00    -0.086 HD
ATOM     19  H   UNL     1      -0.773  -0.702   0.279  0.00  0.00    -0.086 HD
BRANCH  17  21
ATOM     20  C   UNL     1       1.129   0.552   1.616  0.00  0.00    -0.017 C 
ATOM     21  C   UNL     1       0.879  -0.948   1.452  0.00  0.00    -0.086 C 
ENDBRANCH  17  21
ENDBRANCH  16  17
ENDBRANCH  15  16
ENDBRANCH  14  15
ENDBRANCH  11  14
ENDBRANCH   1  11
BRANCH   1  22
ATOM     22  C   UNL     1      -3.358  -6.399  -1.345  0.00  0.00    +0.349 C 
ATOM     23  O   UNL     1      -2.790  -5.543  -2.002  0.00  0.00    -0.248 OA
ATOM     24  O   UNL     1      -3.301  -7.568  -1.688  0.00  0.00    -0.248 OA
ENDBRANCH   1  22
TORSDOF 8
