REMARK  Name = ZINC37673291
REMARK  8 active torsions:
REMARK  status: ('A' for Active; 'I' for Inactive)
REMARK    1  A    between atoms: C_1  and  C_2
REMARK    2  A    between atoms: C_2  and  C_4
REMARK    3  A    between atoms: C_2  and  N_11
REMARK    4  A    between atoms: C_7  and  N_10
REMARK    5  A    between atoms: N_11  and  C_12
REMARK    6  A    between atoms: C_15  and  S_18
REMARK    7  A    between atoms: S_18  and  N_21
REMARK    8  A    between atoms: N_21  and  C_22
REMARK                            x       y       z     vdW  Elec       q    Type
REMARK                         _______ _______ _______ _____ _____    ______ ____
ROOT
ATOM      1  N   UNL     1       0.711  -0.489   1.189  0.00  0.00    -0.337 N 
ATOM      2  H   UNL     1       0.213  -0.731   1.986  0.00  0.00    +0.147 HD
ENDROOT
BRANCH   1   3
ATOM      3  C   UNL     1       2.103  -0.604   1.173  0.00  0.00    +0.028 A 
ATOM      4  C   UNL     1       2.817  -0.253   0.035  0.00  0.00    +0.025 A 
ATOM      5  C   UNL     1       4.193  -0.366   0.023  0.00  0.00    +0.030 A 
ATOM      6  C   UNL     1       4.860  -0.830   1.142  0.00  0.00    +0.105 A 
ATOM      7  C   UNL     1       4.152  -1.181   2.277  0.00  0.00    +0.030 A 
ATOM      8  C   UNL     1       2.776  -1.064   2.298  0.00  0.00    +0.025 A 
BRANCH   6   9
ATOM      9  S   UNL     1       6.616  -0.975   1.122  0.00  0.00    +0.058 S 
ATOM     10  O   UNL     1       6.955  -1.947   2.101  0.00  0.00    -0.153 OA
ATOM     11  O   UNL     1       6.998  -1.102  -0.241  0.00  0.00    -0.153 OA
BRANCH   9  12
ATOM     12  N   UNL     1       7.232   0.467   1.654  0.00  0.00    -0.193 NA
ATOM     13  C   UNL     1       6.988   0.905   3.030  0.00  0.00    +0.127 C 
ATOM     14  H   UNL     1       7.756   1.022   1.054  0.00  0.00    +0.148 HD
ENDBRANCH   9  12
ENDBRANCH   6   9
ENDBRANCH   1   3
BRANCH   1  16
ATOM     15  C   UNL     1      -0.019   1.526   0.010  0.00  0.00    +0.033 C 
ATOM     16  C   UNL     1       0.002  -0.004   0.002  0.00  0.00    +0.098 C 
BRANCH  16  17
ATOM     17  C   UNL     1      -1.412  -0.526   0.013  0.00  0.00    -0.027 A 
ATOM     18  C   UNL     1      -2.122  -0.570   1.199  0.00  0.00    +0.007 A 
ATOM     19  C   UNL     1      -3.417  -1.048   1.212  0.00  0.00    +0.023 A 
ATOM     20  C   UNL     1      -4.008  -1.483   0.032  0.00  0.00    +0.025 A 
ATOM     21  C   UNL     1      -3.292  -1.437  -1.157  0.00  0.00    +0.023 A 
ATOM     22  C   UNL     1      -1.998  -0.953  -1.164  0.00  0.00    +0.007 A 
BRANCH  20  23
ATOM     23  N   UNL     1      -5.318  -1.967   0.042  0.00  0.00    -0.358 N 
ATOM     24  H   UNL     1      -5.817  -1.999   0.874  0.00  0.00    +0.142 HD
ATOM     25  H   UNL     1      -5.729  -2.271  -0.782  0.00  0.00    +0.142 HD
ENDBRANCH  20  23
ENDBRANCH  16  17
ENDBRANCH   1  16
TORSDOF 6
