REMARK  Name = ZINC19985955
REMARK  6 active torsions:
REMARK  status: ('A' for Active; 'I' for Inactive)
REMARK    1  A    between atoms: C_1  and  C_2
REMARK    2  A    between atoms: N_7  and  C_10
REMARK    3  A    between atoms: C_10  and  C_12
REMARK    4  A    between atoms: C_10  and  C_13
REMARK    5  A    between atoms: N_15  and  C_16
REMARK    6  A    between atoms: C_24  and  C_25
REMARK                            x       y       z     vdW  Elec       q    Type
REMARK                         _______ _______ _______ _____ _____    ______ ____
ROOT
ATOM      1  C   UNL     1       5.510   0.844  -3.147  0.00  0.00    +0.046 C 
ATOM      2  C   UNL     1       5.449  -0.037  -1.926  0.00  0.00    -0.017 A 
ATOM      3  C   UNL     1       4.416   0.122  -0.999  0.00  0.00    +0.076 A 
ATOM      4  C   UNL     1       4.446  -0.751   0.112  0.00  0.00    +0.116 A 
ATOM      5  N   UNL     1       3.524  -0.704   1.065  0.00  0.00    -0.230 NA
ATOM      6  C   UNL     1       2.541   0.154   1.024  0.00  0.00    +0.204 A 
ATOM      7  N   UNL     1       2.406   1.042   0.008  0.00  0.00    -0.287 N 
ATOM      8  C   UNL     1       3.284   1.076  -1.014  0.00  0.00    +0.263 A 
ATOM      9  O   UNL     1       3.151   1.874  -1.925  0.00  0.00    -0.267 OA
ATOM     10  S   UNL     1       5.892  -1.738  -0.184  0.00  0.00    -0.064 S 
ATOM     11  C   UNL     1       6.402  -0.991  -1.723  0.00  0.00    +0.079 A 
ENDROOT
BRANCH  11  12
ATOM     12  C   UNL     1       7.558  -1.323  -2.562  0.00  0.00    +0.248 C 
ATOM     13  O   UNL     1       7.760  -0.706  -3.591  0.00  0.00    -0.270 OA
ATOM     14  N   UNL     1       8.398  -2.310  -2.192  0.00  0.00    -0.325 N 
ATOM     15  H   UNL     1       9.266  -2.558  -2.821  0.00  0.00    +0.145 HD
ATOM     16  H   UNL     1       8.216  -2.867  -1.261  0.00  0.00    +0.145 HD
ENDBRANCH  11  12
BRANCH   7  17
ATOM     17  C   UNL     1       1.280   1.979   0.019  0.00  0.00    +0.174 C 
ATOM     18  C   UNL     1       1.353   2.849   1.276  0.00  0.00    +0.041 C 
BRANCH  17  19
ATOM     19  C   UNL     1      -0.015   1.208   0.015  0.00  0.00    +0.240 C 
ATOM     20  O   UNL     1       0.001  -0.004   0.004  0.00  0.00    -0.273 OA
ATOM     21  N   UNL     1      -1.191   1.867   0.018  0.00  0.00    -0.283 N 
ATOM     22  H   UNL     1      -1.207   2.963   0.102  0.00  0.00    +0.155 HD
BRANCH  21  23
ATOM     23  C   UNL     1      -2.392   1.155  -0.086  0.00  0.00    +0.052 A 
ATOM     24  C   UNL     1      -2.510  -0.099   0.499  0.00  0.00    +0.025 A 
ATOM     25  C   UNL     1      -3.698  -0.796   0.399  0.00  0.00    +0.002 A 
ATOM     26  C   UNL     1      -4.766  -0.253  -0.291  0.00  0.00    +0.002 A 
ATOM     27  C   UNL     1      -4.650   0.993  -0.880  0.00  0.00    +0.022 A 
ATOM     28  C   UNL     1      -3.466   1.699  -0.779  0.00  0.00    +0.062 A 
ATOM     29 CL   UNL     1      -3.320   3.263  -1.519  0.00  0.00    -0.082 Cl
ENDBRANCH  21  23
ENDBRANCH  17  19
ENDBRANCH   7  17
TORSDOF 4
