REMARK  Name = ZINC22322531
REMARK  12 active torsions:
REMARK  status: ('A' for Active; 'I' for Inactive)
REMARK    1  A    between atoms: C_1  and  C_2
REMARK    2  A    between atoms: C_2  and  O_3
REMARK    3  A    between atoms: O_3  and  C_4
REMARK    4  A    between atoms: C_7  and  N_10
REMARK    5  A    between atoms: N_10  and  C_11
REMARK    6  A    between atoms: N_10  and  S_28
REMARK    7  A    between atoms: C_11  and  C_12
REMARK    8  A    between atoms: N_14  and  C_15
REMARK    9  A    between atoms: C_18  and  C_27
REMARK   10  A    between atoms: C_19  and  N_21
REMARK   11  A    between atoms: S_28  and  C_31
REMARK   12  A    between atoms: C_34  and  C_37
REMARK                            x       y       z     vdW  Elec       q    Type
REMARK                         _______ _______ _______ _____ _____    ______ ____
ROOT
ATOM      1  N   UNL     1       3.749  -4.734  -0.343  0.00  0.00    -0.194 N 
ENDROOT
BRANCH   1   5
ATOM      2  C   UNL     1       5.840  -5.074  -3.933  0.00  0.00    +0.121 A 
ATOM      3  C   UNL     1       4.723  -4.255  -3.857  0.00  0.00    +0.047 A 
ATOM      4  C   UNL     1       4.030  -4.142  -2.667  0.00  0.00    +0.028 A 
ATOM      5  C   UNL     1       4.451  -4.848  -1.548  0.00  0.00    +0.052 A 
ATOM      6  C   UNL     1       5.572  -5.664  -1.625  0.00  0.00    +0.028 A 
ATOM      7  C   UNL     1       6.261  -5.781  -2.817  0.00  0.00    +0.047 A 
BRANCH   2   8
ATOM      8  O   UNL     1       6.522  -5.185  -5.105  0.00  0.00    -0.492 OA
BRANCH   8  10
ATOM      9  C   UNL     1       8.294  -6.043  -6.506  0.00  0.00    +0.048 C 
ATOM     10  C   UNL     1       7.662  -6.046  -5.112  0.00  0.00    +0.225 C 
ENDBRANCH   8  10
ENDBRANCH   2   8
ENDBRANCH   1   5
BRANCH   1  11
ATOM     11  S   UNL     1       4.526  -4.997   1.095  0.00  0.00    +0.075 S 
ATOM     12  O   UNL     1       5.897  -4.691   0.879  0.00  0.00    -0.150 OA
ATOM     13  O   UNL     1       3.752  -4.355   2.099  0.00  0.00    -0.150 OA
BRANCH  11  14
ATOM     14  C   UNL     1       4.442  -6.726   1.424  0.00  0.00    +0.109 A 
ATOM     15  C   UNL     1       3.313  -7.264   2.013  0.00  0.00    +0.029 A 
ATOM     16  C   UNL     1       3.245  -8.621   2.267  0.00  0.00    +0.005 A 
ATOM     17  C   UNL     1       4.310  -9.439   1.940  0.00  0.00    -0.050 A 
ATOM     18  C   UNL     1       5.441  -8.901   1.355  0.00  0.00    +0.005 A 
ATOM     19  C   UNL     1       5.507  -7.545   1.097  0.00  0.00    +0.029 A 
ATOM     20  C   UNL     1       4.237 -10.918   2.221  0.00  0.00    +0.044 C 
ENDBRANCH  11  14
ENDBRANCH   1  11
BRANCH   1  21
ATOM     21  C   UNL     1       2.328  -4.380  -0.354  0.00  0.00    +0.227 C 
BRANCH  21  22
ATOM     22  C   UNL     1       2.183  -2.882  -0.413  0.00  0.00    +0.236 C 
ATOM     23  O   UNL     1       3.170  -2.178  -0.444  0.00  0.00    -0.274 OA
ATOM     24  N   UNL     1       0.956  -2.323  -0.433  0.00  0.00    -0.284 N 
ATOM     25  H   UNL     1       0.062  -2.955  -0.324  0.00  0.00    +0.155 HD
BRANCH  24  26
ATOM     26  C   UNL     1       0.820  -0.940  -0.591  0.00  0.00    +0.035 A 
ATOM     27  C   UNL     1       1.754  -0.080  -0.028  0.00  0.00    +0.024 A 
ATOM     28  C   UNL     1       1.620   1.286  -0.183  0.00  0.00    +0.007 A 
ATOM     29  C   UNL     1       0.556   1.802  -0.899  0.00  0.00    -0.029 A 
ATOM     30  C   UNL     1      -0.381   0.947  -1.465  0.00  0.00    +0.041 A 
ATOM     31  C   UNL     1      -0.249  -0.425  -1.310  0.00  0.00    +0.047 A 
ATOM     32  C   UNL     1       0.413   3.293  -1.066  0.00  0.00    +0.045 C 
BRANCH  30  33
ATOM     33  N   UNL     1      -1.455   1.470  -2.194  0.00  0.00    -0.271 N 
ATOM     34  C   UNL     1      -1.424   1.735  -3.638  0.00  0.00    +0.114 C 
ATOM     35  C   UNL     1      -2.906   1.870  -4.061  0.00  0.00    +0.029 C 
ATOM     36  C   UNL     1      -3.569   2.322  -2.740  0.00  0.00    +0.098 C 
ATOM     37  C   UNL     1      -2.645   1.799  -1.663  0.00  0.00    +0.220 C 
ATOM     38  O   UNL     1      -2.935   1.692  -0.490  0.00  0.00    -0.275 OA
ENDBRANCH  30  33
ENDBRANCH  24  26
ENDBRANCH  21  22
ENDBRANCH   1  21
TORSDOF 9
