REMARK  Name = ZINC49237242
REMARK  6 active torsions:
REMARK  status: ('A' for Active; 'I' for Inactive)
REMARK    1  A    between atoms: C_1  and  C_2
REMARK    2  A    between atoms: C_2  and  C_4
REMARK    3  A    between atoms: C_2  and  N_15
REMARK    4  A    between atoms: C_9  and  C_12
REMARK    5  A    between atoms: C_12  and  C_13
REMARK    6  A    between atoms: C_12  and  C_14
REMARK                            x       y       z     vdW  Elec       q    Type
REMARK                         _______ _______ _______ _____ _____    ______ ____
ROOT
ATOM      1  C   UNL     1      -1.412  -0.526   0.013  0.00  0.00    +0.204 C 
ATOM      2  O   UNL     1      -1.808  -1.223  -0.897  0.00  0.00    -0.277 OA
ATOM      3  N   UNL     1      -2.236  -0.217   1.033  0.00  0.00    -0.266 N 
ATOM      4  C   UNL     1      -3.540  -0.698   1.043  0.00  0.00    +0.165 A 
ATOM      5  N   UNL     1      -4.479  -0.498   1.943  0.00  0.00    -0.229 NA
ATOM      6  C   UNL     1      -5.679  -1.030   1.807  0.00  0.00    +0.053 A 
ATOM      7  C   UNL     1      -5.896  -1.786   0.703  0.00  0.00    +0.072 A 
ATOM      8  S   UNL     1      -4.304  -1.672  -0.097  0.00  0.00    -0.060 S 
ATOM      9  H   UNL     1      -1.920   0.341   1.761  0.00  0.00    +0.157 HD
ENDROOT
BRANCH   6  10
ATOM     10  C   UNL     1      -6.760  -0.806   2.833  0.00  0.00    +0.032 C 
ATOM     11  C   UNL     1      -7.641   0.366   2.398  0.00  0.00    +0.014 C 
ATOM     12  C   UNL     1      -7.615  -2.069   2.956  0.00  0.00    +0.014 C 
ENDBRANCH   6  10
BRANCH   1  14
ATOM     13  C   UNL     1      -0.019   1.526   0.010  0.00  0.00    -0.005 C 
ATOM     14  C   UNL     1       0.002  -0.004   0.002  0.00  0.00    +0.010 C 
BRANCH  14  15
ATOM     15  N   UNL     1       0.690  -0.478  -1.207  0.00  0.00    +0.385 N 
ATOM     16  H   UNL     1       1.636  -0.129  -1.214  0.00  0.00    -0.089 HD
ATOM     17  H   UNL     1       0.703  -1.487  -1.212  0.00  0.00    -0.089 HD
ATOM     18  H   UNL     1       0.202  -0.144  -2.024  0.00  0.00    -0.089 HD
ENDBRANCH  14  15
ENDBRANCH   1  14
TORSDOF 3
