REMARK  Name = ZINC65529987
REMARK  6 active torsions:
REMARK  status: ('A' for Active; 'I' for Inactive)
REMARK    1  A    between atoms: C_1  and  C_2
REMARK    2  A    between atoms: C_2  and  C_3
REMARK    3  A    between atoms: C_5  and  C_28
REMARK    4  A    between atoms: C_7  and  C_9
REMARK    5  A    between atoms: C_9  and  N_10
REMARK    6  A    between atoms: C_13  and  C_16
REMARK                            x       y       z     vdW  Elec       q    Type
REMARK                         _______ _______ _______ _____ _____    ______ ____
ROOT
ATOM      1  N   UNL     1       4.419  -1.777   2.948  0.00  0.00    +0.383 N 
ATOM      2  C   UNL     1       3.962  -3.112   3.354  0.00  0.00    -0.078 C 
ATOM      3  C   UNL     1       4.897  -4.174   2.773  0.00  0.00    -0.012 C 
ATOM      4  C   UNL     1       6.317  -3.938   3.297  0.00  0.00    +0.018 C 
ATOM      5  C   UNL     1       6.755  -2.516   2.932  0.00  0.00    -0.012 C 
ATOM      6  C   UNL     1       5.750  -1.515   3.507  0.00  0.00    -0.078 C 
ATOM      7  H   UNL     1       4.463  -1.731   1.941  0.00  0.00    -0.081 HD
ENDROOT
BRANCH   4   8
ATOM      8  C   UNL     1       7.272  -4.947   2.659  0.00  0.00    +0.143 C 
ATOM      9  N   UNL     1       7.351  -4.732   1.197  0.00  0.00    -0.238 NA
ATOM     10  N   UNL     1       8.746  -4.949   0.815  0.00  0.00    -0.238 NA
ATOM     11  C   UNL     1       9.495  -5.216   2.069  0.00  0.00    +0.140 C 
ATOM     12  N   UNL     1       8.665  -4.726   3.143  0.00  0.00    -0.269 NA
ATOM     13  C   UNL     1       8.828  -5.308   4.457  0.00  0.00    +0.087 C 
ATOM     14  C   UNL     1      10.225  -5.695   4.862  0.00  0.00    +0.015 C 
ATOM     15  C   UNL     1      11.329  -4.809   4.404  0.00  0.00    +0.001 C 
ATOM     16  C   UNL     1      11.816  -5.104   2.994  0.00  0.00    +0.003 C 
ATOM     17  C   UNL     1      10.852  -4.542   1.976  0.00  0.00    +0.036 C 
ATOM     18  H   UNL     1       6.739  -5.365   0.704  0.00  0.00    +0.142 HD
ATOM     19  H   UNL     1       8.829  -5.722   0.173  0.00  0.00    +0.142 HD
ENDBRANCH   4   8
BRANCH   1  20
ATOM     20  C   UNL     1       3.474  -0.766   3.443  0.00  0.00    -0.021 C 
BRANCH  20  25
ATOM     21  C   UNL     1       0.525  -0.780   1.352  0.00  0.00    +0.107 A 
ATOM     22  N   UNL     1       0.110  -1.621   2.323  0.00  0.00    -0.346 N 
ATOM     23  C   UNL     1       1.132  -1.735   3.226  0.00  0.00    +0.034 A 
ATOM     24  H   UNL     1      -0.753  -2.063   2.373  0.00  0.00    +0.167 HD
ATOM     25  C   UNL     1       2.137  -0.959   2.775  0.00  0.00    +0.046 A 
ATOM     26  N   UNL     1       1.740  -0.392   1.626  0.00  0.00    -0.239 NA
ATOM     27  C   UNL     1       1.134  -2.567   4.482  0.00  0.00    +0.065 C 
BRANCH  21  29
ATOM     28  C   UNL     1      -0.350   1.164   0.086  0.00  0.00    +0.012 C 
ATOM     29  C   UNL     1      -0.280  -0.363   0.148  0.00  0.00    +0.071 C 
ENDBRANCH  21  29
ENDBRANCH  20  25
ENDBRANCH   1  20
TORSDOF 4
