REMARK  Name = ZINC40742936
REMARK  12 active torsions:
REMARK  status: ('A' for Active; 'I' for Inactive)
REMARK    1  A    between atoms: C_1  and  C_2
REMARK    2  A    between atoms: C_6  and  C_8
REMARK    3  A    between atoms: C_8  and  O_9
REMARK    4  A    between atoms: O_9  and  C_10
REMARK    5  A    between atoms: C_15  and  C_16
REMARK    6  A    between atoms: C_16  and  N_17
REMARK    7  A    between atoms: N_17  and  C_18
REMARK    8  A    between atoms: C_18  and  C_19
REMARK    9  A    between atoms: C_19  and  C_20
REMARK   10  A    between atoms: C_20  and  S_21
REMARK   11  A    between atoms: S_21  and  C_22
REMARK   12  A    between atoms: N_26  and  C_27
REMARK                            x       y       z     vdW  Elec       q    Type
REMARK                         _______ _______ _______ _____ _____    ______ ____
ROOT
ATOM      1  N   UNL     1       4.298  -2.092   3.974  0.00  0.00    +0.382 N 
ATOM      2  H   UNL     1       3.479  -1.567   3.706  0.00  0.00    -0.085 HD
ATOM      3  H   UNL     1       4.477  -1.956   4.958  0.00  0.00    -0.085 HD
ENDROOT
BRANCH   1   4
ATOM      4  C   UNL     1       4.072  -3.519   3.709  0.00  0.00    -0.043 C 
BRANCH   4  10
ATOM      5  C   UNL     1       1.599  -3.745   4.055  0.00  0.00    +0.122 A 
ATOM      6  C   UNL     1       0.509  -4.191   4.788  0.00  0.00    +0.047 A 
ATOM      7  C   UNL     1       0.707  -4.880   5.969  0.00  0.00    +0.023 A 
ATOM      8  C   UNL     1       1.991  -5.124   6.421  0.00  0.00    +0.041 A 
ATOM      9  C   UNL     1       3.080  -4.680   5.692  0.00  0.00    +0.025 A 
ATOM     10  C   UNL     1       2.886  -3.997   4.507  0.00  0.00    -0.021 A 
ATOM     11 CL   UNL     1       2.238  -5.989   7.906  0.00  0.00    -0.084 Cl
BRANCH   5  12
ATOM     12  O   UNL     1       1.406  -3.067   2.893  0.00  0.00    -0.487 OA
BRANCH  12  13
ATOM     13  C   UNL     1       0.054  -2.845   2.489  0.00  0.00    +0.264 C 
BRANCH  13  19
ATOM     14  C   UNL     1      -0.018   1.503   0.010  0.00  0.00    +0.044 C 
ATOM     15  C   UNL     1       0.002  -0.004   0.002  0.00  0.00    -0.050 A 
ATOM     16  C   UNL     1       0.006  -0.689  -1.199  0.00  0.00    +0.003 A 
ATOM     17  C   UNL     1       0.025  -2.071  -1.207  0.00  0.00    +0.001 A 
ATOM     18  C   UNL     1       0.040  -2.768  -0.013  0.00  0.00    +0.007 A 
ATOM     19  C   UNL     1       0.037  -2.084   1.188  0.00  0.00    -0.010 A 
ATOM     20  C   UNL     1       0.023  -0.702   1.195  0.00  0.00    +0.010 A 
ENDBRANCH  13  19
ENDBRANCH  12  13
ENDBRANCH   5  12
ENDBRANCH   4  10
ENDBRANCH   1   4
BRANCH   1  21
ATOM     21  C   UNL     1       5.454  -1.626   3.196  0.00  0.00    -0.081 C 
BRANCH  21  22
ATOM     22  C   UNL     1       5.688  -0.140   3.472  0.00  0.00    -0.008 C 
BRANCH  22  23
ATOM     23  C   UNL     1       6.893   0.345   2.662  0.00  0.00    +0.075 C 
BRANCH  23  24
ATOM     24  S   UNL     1       7.171   2.108   2.989  0.00  0.00    -0.084 S 
BRANCH  24  25
ATOM     25  C   UNL     1       8.571   2.509   1.997  0.00  0.00    +0.214 A 
ATOM     26  N   UNL     1       9.231   1.690   1.207  0.00  0.00    -0.101 NA
ATOM     27  N   UNL     1      10.198   2.304   0.628  0.00  0.00    -0.022 NA
ATOM     28  N   UNL     1      10.230   3.539   0.996  0.00  0.00    -0.038 NA
ATOM     29  N   UNL     1       9.168   3.724   1.899  0.00  0.00    -0.187 N 
BRANCH  29  30
ATOM     30  C   UNL     1       8.805   4.907   2.557  0.00  0.00    +0.070 A 
ATOM     31  C   UNL     1       7.468   5.181   2.808  0.00  0.00    +0.028 A 
ATOM     32  C   UNL     1       7.114   6.348   3.458  0.00  0.00    +0.002 A 
ATOM     33  C   UNL     1       8.089   7.242   3.856  0.00  0.00    +0.000 A 
ATOM     34  C   UNL     1       9.422   6.972   3.607  0.00  0.00    +0.002 A 
ATOM     35  C   UNL     1       9.783   5.805   2.964  0.00  0.00    +0.028 A 
ENDBRANCH  29  30
ENDBRANCH  24  25
ENDBRANCH  23  24
ENDBRANCH  22  23
ENDBRANCH  21  22
ENDBRANCH   1  21
TORSDOF 11
