REMARK  Name = ZINC37306036
REMARK  3 active torsions:
REMARK  status: ('A' for Active; 'I' for Inactive)
REMARK    1  A    between atoms: C_4  and  N_13
REMARK    2  A    between atoms: C_6  and  C_9
REMARK    3  A    between atoms: N_13  and  C_14
REMARK                            x       y       z     vdW  Elec       q    Type
REMARK                         _______ _______ _______ _____ _____    ______ ____
ROOT
ATOM      1  N   UNL     1       2.929  -0.273  -0.080  0.00  0.00    +0.383 N 
ATOM      2  H   UNL     1       2.549   0.225   0.711  0.00  0.00    -0.085 HD
ATOM      3  H   UNL     1       2.846  -1.266   0.077  0.00  0.00    -0.085 HD
ENDROOT
BRANCH   1   4
ATOM      4  C   UNL     1       4.345   0.081  -0.247  0.00  0.00    -0.069 C 
ATOM      5  C   UNL     1       4.953  -0.766  -1.368  0.00  0.00    +0.003 C 
ATOM      6  C   UNL     1       6.420  -0.370  -1.562  0.00  0.00    +0.108 C 
ATOM      7  N   UNL     1       7.116  -0.486  -0.273  0.00  0.00    -0.286 N 
ATOM      8  C   UNL     1       6.563   0.215   0.894  0.00  0.00    +0.108 C 
ATOM      9  C   UNL     1       5.094  -0.187   1.060  0.00  0.00    +0.003 C 
ATOM     10  C   UNL     1       8.239  -1.223  -0.163  0.00  0.00    +0.300 C 
ATOM     11  O   UNL     1       8.738  -1.723  -1.153  0.00  0.00    -0.253 OA
ATOM     12  N   UNL     1       8.811  -1.404   1.044  0.00  0.00    -0.313 N 
ATOM     13  H   UNL     1       8.457  -0.945   1.822  0.00  0.00    +0.146 HD
ATOM     14  H   UNL     1       9.576  -1.993   1.135  0.00  0.00    +0.146 HD
ENDBRANCH   1   4
BRANCH   1  18
ATOM     15  C   UNL     1       0.123   1.816  -0.126  0.00  0.00    +0.000 C 
ATOM     16  C   UNL     1       1.574   2.284  -0.255  0.00  0.00    -0.002 C 
ATOM     17  C   UNL     1       2.219   1.614  -1.471  0.00  0.00    -0.015 C 
ATOM     18  C   UNL     1       2.186   0.095  -1.293  0.00  0.00    -0.060 C 
ATOM     19  C   UNL     1       0.735  -0.372  -1.164  0.00  0.00    +0.079 C 
ATOM     20  C   UNL     1       0.090   0.297   0.051  0.00  0.00    +0.010 C 
BRANCH  19  21
ATOM     21  C   UNL     1       0.702  -1.892  -0.987  0.00  0.00    +0.391 C 
ATOM     22  F   UNL     1       1.284  -2.231   0.239  0.00  0.00    -0.171 F 
ATOM     23  F   UNL     1      -0.624  -2.336  -1.013  0.00  0.00    -0.171 F 
ATOM     24  F   UNL     1       1.417  -2.498  -2.026  0.00  0.00    -0.171 F 
ENDBRANCH  19  21
ENDBRANCH   1  18
TORSDOF 3
