REMARK  Name = ZINC04154623
REMARK  9 active torsions:
REMARK  status: ('A' for Active; 'I' for Inactive)
REMARK    1  A    between atoms: C_1  and  C_2
REMARK    2  A    between atoms: C_2  and  C_25
REMARK    3  A    between atoms: C_4  and  O_24
REMARK    4  A    between atoms: C_6  and  C_12
REMARK    5  A    between atoms: C_8  and  C_10
REMARK    6  A    between atoms: C_8  and  C_11
REMARK    7  A    between atoms: C_12  and  C_14
REMARK    8  A    between atoms: C_12  and  O_23
REMARK    9  A    between atoms: C_18  and  N_20
REMARK                            x       y       z     vdW  Elec       q    Type
REMARK                         _______ _______ _______ _____ _____    ______ ____
ROOT
ATOM      1  C   UNL     1      -0.235   1.999   0.485  0.00  0.00    -0.010 C 
ATOM      2  C   UNL     1       0.068   0.533   0.162  0.00  0.00    -0.071 C 
ATOM      3  C   UNL     1      -1.207  -0.193  -0.248  0.00  0.00    +0.019 C 
ATOM      4  C   UNL     1      -2.077  -0.538   0.954  0.00  0.00    +0.118 C 
ATOM      5  C   UNL     1      -1.268  -1.338   1.968  0.00  0.00    +0.039 C 
ATOM      6  C   UNL     1       0.012  -0.618   2.372  0.00  0.00    -0.065 C 
ATOM      7  N   UNL     1       0.779  -0.114   1.249  0.00  0.00    +0.386 N 
ATOM      8  C   UNL     1       0.900  -1.648   3.113  0.00  0.00    -0.010 C 
ATOM      9  C   UNL     1      -0.302   0.495   3.378  0.00  0.00    -0.010 C 
ATOM     10  C   UNL     1       1.007   0.534  -1.070  0.00  0.00    -0.010 C 
ATOM     11  H   UNL     1       1.324  -0.889   0.859  0.00  0.00    -0.084 HD
ATOM     12  H   UNL     1       1.482   0.541   1.607  0.00  0.00    -0.084 HD
ENDROOT
BRANCH   4  13
ATOM     13  O   UNL     1      -2.646   0.626   1.542  0.00  0.00    -0.392 OA
ATOM     14  H   UNL     1      -3.210   1.134   0.942  0.00  0.00    +0.210 HD
ENDBRANCH   4  13
BRANCH   5  15
ATOM     15  C   UNL     1      -2.124  -1.592   3.215  0.00  0.00    +0.149 C 
BRANCH  15  16
ATOM     16  C   UNL     1      -3.421  -2.243   2.809  0.00  0.00    -0.017 A 
ATOM     17  C   UNL     1      -3.486  -3.616   2.654  0.00  0.00    +0.006 A 
ATOM     18  C   UNL     1      -4.676  -4.213   2.281  0.00  0.00    +0.003 A 
ATOM     19  C   UNL     1      -5.801  -3.438   2.066  0.00  0.00    +0.033 A 
ATOM     20  C   UNL     1      -5.735  -2.066   2.223  0.00  0.00    +0.127 A 
ATOM     21  C   UNL     1      -4.546  -1.469   2.599  0.00  0.00    +0.039 A 
BRANCH  20  22
ATOM     22  N   UNL     1      -6.939  -1.237   1.991  0.00  0.00    +0.056 N 
ATOM     23  O   UNL     1      -7.980  -1.759   1.665  0.00  0.00    -0.126 OA
ATOM     24  O   UNL     1      -6.882  -0.037   2.128  0.00  0.00    -0.126 OA
ENDBRANCH  20  22
ENDBRANCH  15  16
BRANCH  15  25
ATOM     25  O   UNL     1      -1.418  -2.454   4.110  0.00  0.00    -0.387 OA
ATOM     26  H   UNL     1      -1.198  -3.317   3.734  0.00  0.00    +0.210 HD
ENDBRANCH  15  25
ENDBRANCH   5  15
TORSDOF 5
