REMARK  Name = ZINC02735279
REMARK  10 active torsions:
REMARK  status: ('A' for Active; 'I' for Inactive)
REMARK    1  A    between atoms: C_1  and  C_2
REMARK    2  A    between atoms: C_3  and  C_30
REMARK    3  A    between atoms: C_4  and  C_21
REMARK    4  A    between atoms: C_10  and  C_15
REMARK    5  A    between atoms: C_25  and  N_27
REMARK    6  A    between atoms: C_30  and  O_32
REMARK    7  A    between atoms: O_32  and  C_33
REMARK    8  A    between atoms: C_33  and  C_34
REMARK    9  A    between atoms: C_34  and  O_35
REMARK   10  A    between atoms: O_35  and  C_36
REMARK                            x       y       z     vdW  Elec       q    Type
REMARK                         _______ _______ _______ _____ _____    ______ ____
ROOT
ATOM      1  C   UNL     1      -2.703   6.489  -2.496  0.00  0.00    +0.061 C 
ATOM      2  C   UNL     1      -2.033   6.158  -1.187  0.00  0.00    +0.016 C 
ATOM      3  C   UNL     1      -0.777   5.678  -1.182  0.00  0.00    +0.065 C 
ATOM      4  C   UNL     1      -0.082   5.329   0.101  0.00  0.00    +0.092 C 
ATOM      5  C   UNL     1      -0.769   5.971   1.280  0.00  0.00    +0.024 C 
ATOM      6  C   UNL     1      -2.027   6.443   1.173  0.00  0.00    +0.016 C 
ATOM      7  N   UNL     1      -2.706   6.348  -0.013  0.00  0.00    -0.321 N 
ATOM      8  C   UNL     1      -2.718   7.091   2.347  0.00  0.00    +0.059 C 
ATOM      9  C   UNL     1      -2.208   6.475   3.648  0.00  0.00    +0.032 C 
ATOM     10  C   UNL     1      -0.690   6.671   3.716  0.00  0.00    +0.088 C 
ATOM     11  C   UNL     1      -0.063   6.061   2.493  0.00  0.00    +0.162 C 
ATOM     12  O   UNL     1       1.075   5.638   2.553  0.00  0.00    -0.292 OA
ATOM     13  H   UNL     1      -3.803   6.425  -0.014  0.00  0.00    +0.152 HD
ENDROOT
BRANCH   9  14
ATOM     14  C   UNL     1      -2.861   7.158   4.822  0.00  0.00    -0.044 A 
ATOM     15  C   UNL     1      -2.706   8.519   5.003  0.00  0.00    +0.004 A 
ATOM     16  C   UNL     1      -3.308   9.147   6.078  0.00  0.00    +0.000 A 
ATOM     17  C   UNL     1      -4.057   8.411   6.977  0.00  0.00    +0.000 A 
ATOM     18  C   UNL     1      -4.208   7.048   6.798  0.00  0.00    +0.000 A 
ATOM     19  C   UNL     1      -3.610   6.422   5.721  0.00  0.00    +0.004 A 
ENDBRANCH   9  14
BRANCH   4  20
ATOM     20  C   UNL     1      -0.091   3.832   0.278  0.00  0.00    -0.033 A 
ATOM     21  C   UNL     1      -1.293   3.154   0.363  0.00  0.00    +0.005 A 
ATOM     22  C   UNL     1      -1.302   1.781   0.520  0.00  0.00    +0.003 A 
ATOM     23  C   UNL     1      -0.109   1.087   0.601  0.00  0.00    +0.033 A 
ATOM     24  C   UNL     1       1.093   1.765   0.516  0.00  0.00    +0.126 A 
ATOM     25  C   UNL     1       1.101   3.138   0.354  0.00  0.00    +0.037 A 
BRANCH  24  26
ATOM     26  N   UNL     1       2.370   1.021   0.597  0.00  0.00    +0.056 N 
ATOM     27  O   UNL     1       2.362  -0.189   0.739  0.00  0.00    -0.126 OA
ATOM     28  O   UNL     1       3.429   1.619   0.522  0.00  0.00    -0.126 OA
ENDBRANCH  24  26
ENDBRANCH   4  20
BRANCH   3  29
ATOM     29  C   UNL     1      -0.099   5.497  -2.410  0.00  0.00    +0.338 C 
ATOM     30  O   UNL     1       0.783   6.269  -2.737  0.00  0.00    -0.245 OA
BRANCH  29  31
ATOM     31  O   UNL     1      -0.430   4.469  -3.219  0.00  0.00    -0.458 OA
BRANCH  31  32
ATOM     32  C   UNL     1       0.297   4.347  -4.444  0.00  0.00    +0.273 C 
BRANCH  32  33
ATOM     33  C   UNL     1      -0.214   3.133  -5.221  0.00  0.00    +0.270 C 
BRANCH  33  34
ATOM     34  O   UNL     1      -1.573   3.352  -5.607  0.00  0.00    -0.489 OA
BRANCH  34  35
ATOM     35  C   UNL     1      -2.181   2.361  -6.311  0.00  0.00    +0.121 A 
ATOM     36  C   UNL     1      -1.484   1.205  -6.629  0.00  0.00    +0.045 A 
ATOM     37  C   UNL     1      -2.107   0.197  -7.339  0.00  0.00    +0.004 A 
ATOM     38  C   UNL     1      -3.420   0.345  -7.744  0.00  0.00    +0.000 A 
ATOM     39  C   UNL     1      -4.116   1.499  -7.434  0.00  0.00    +0.004 A 
ATOM     40  C   UNL     1      -3.499   2.508  -6.719  0.00  0.00    +0.045 A 
ENDBRANCH  34  35
ENDBRANCH  33  34
ENDBRANCH  32  33
ENDBRANCH  31  32
ENDBRANCH  29  31
ENDBRANCH   3  29
TORSDOF 9
