REMARK  Name = ZINC53400059
REMARK  11 active torsions:
REMARK  status: ('A' for Active; 'I' for Inactive)
REMARK    1  A    between atoms: C_1  and  C_2
REMARK    2  A    between atoms: C_4  and  O_12
REMARK    3  A    between atoms: C_5  and  C_9
REMARK    4  A    between atoms: C_9  and  C_10
REMARK    5  A    between atoms: C_9  and  C_11
REMARK    6  A    between atoms: O_12  and  C_13
REMARK    7  A    between atoms: C_13  and  C_14
REMARK    8  A    between atoms: C_14  and  C_16
REMARK    9  A    between atoms: C_14  and  O_26
REMARK   10  A    between atoms: C_16  and  N_17
REMARK   11  A    between atoms: C_21  and  C_23
REMARK                            x       y       z     vdW  Elec       q    Type
REMARK                         _______ _______ _______ _____ _____    ______ ____
ROOT
ATOM      1  C   UNL     1       0.017  -2.893  -4.798  0.00  0.00    +0.135 C 
ENDROOT
BRANCH   1   2
ATOM      2  O   UNL     1       1.248  -3.617  -4.839  0.00  0.00    -0.390 OA
ATOM      3  H   UNL     1       2.033  -3.056  -4.903  0.00  0.00    +0.210 HD
ENDBRANCH   1   2
BRANCH   1   4
ATOM      4  C   UNL     1       0.011  -1.966  -3.581  0.00  0.00    +0.258 C 
BRANCH   4   5
ATOM      5  O   UNL     1       0.028  -2.749  -2.386  0.00  0.00    -0.489 OA
BRANCH   5   9
ATOM      6  C   UNL     1      -0.018   1.503   0.010  0.00  0.00    +0.045 C 
ATOM      7  C   UNL     1       0.002  -0.004   0.002  0.00  0.00    -0.029 A 
ATOM      8  C   UNL     1       0.006  -0.688  -1.199  0.00  0.00    +0.050 A 
ATOM      9  C   UNL     1       0.025  -2.075  -1.206  0.00  0.00    +0.124 A 
ATOM     10  C   UNL     1       0.040  -2.773  -0.007  0.00  0.00    -0.002 A 
ATOM     11  C   UNL     1       0.036  -2.086   1.192  0.00  0.00    +0.027 A 
ATOM     12  C   UNL     1       0.023  -0.702   1.196  0.00  0.00    +0.044 A 
ATOM     13 CL   UNL     1       0.025   0.160   2.704  0.00  0.00    -0.083 Cl
BRANCH  10  14
ATOM     14  C   UNL     1       0.060  -4.279  -0.012  0.00  0.00    +0.016 C 
ATOM     15  C   UNL     1       1.319  -4.775   0.702  0.00  0.00    +0.012 C 
ATOM     16  C   UNL     1      -1.179  -4.808   0.714  0.00  0.00    +0.012 C 
ENDBRANCH  10  14
ENDBRANCH   5   9
ENDBRANCH   4   5
ENDBRANCH   1   4
BRANCH   1  17
ATOM     17  C   UNL     1      -0.126  -2.060  -6.074  0.00  0.00    -0.043 C 
BRANCH  17  18
ATOM     18  N   UNL     1      -0.240  -2.955  -7.233  0.00  0.00    +0.389 N 
ATOM     19  C   UNL     1      -1.534  -3.683  -7.192  0.00  0.00    -0.078 C 
ATOM     20  C   UNL     1      -1.751  -4.104  -8.667  0.00  0.00    -0.020 C 
ATOM     21  C   UNL     1      -1.213  -2.889  -9.456  0.00  0.00    -0.008 C 
ATOM     22  C   UNL     1      -0.259  -2.168  -8.485  0.00  0.00    +0.019 C 
ATOM     23  H   UNL     1       0.528  -3.609  -7.244  0.00  0.00    -0.081 HD
BRANCH  22  24
ATOM     24  C   UNL     1       1.126  -2.109  -9.075  0.00  0.00    +0.197 C 
ATOM     25  O   UNL     1       2.048  -2.664  -8.515  0.00  0.00    -0.278 OA
ATOM     26  N   UNL     1       1.341  -1.439 -10.224  0.00  0.00    -0.331 N 
ATOM     27  H   UNL     1       0.604  -0.995 -10.672  0.00  0.00    +0.145 HD
ATOM     28  H   UNL     1       2.233  -1.401 -10.604  0.00  0.00    +0.145 HD
ENDBRANCH  22  24
ENDBRANCH  17  18
ENDBRANCH   1  17
TORSDOF 8
