REMARK  Name = ZINC13567596
REMARK  7 active torsions:
REMARK  status: ('A' for Active; 'I' for Inactive)
REMARK    1  A    between atoms: C_1  and  C_2
REMARK    2  A    between atoms: C_7  and  N_8
REMARK    3  A    between atoms: C_14  and  C_16
REMARK    4  A    between atoms: C_14  and  C_17
REMARK    5  A    between atoms: N_25  and  C_28
REMARK    6  A    between atoms: C_29  and  C_32
REMARK    7  A    between atoms: C_30  and  N_31
REMARK                            x       y       z     vdW  Elec       q    Type
REMARK                         _______ _______ _______ _____ _____    ______ ____
ROOT
ATOM      1  N   UNL     1       1.177  -2.054  -0.037  0.00  0.00    -0.260 N 
ATOM      2  C   UNL     1       1.168  -0.684  -0.029  0.00  0.00    +0.026 C 
ATOM      3  C   UNL     1       0.002  -0.004   0.002  0.00  0.00    +0.037 C 
ATOM      4  C   UNL     1      -0.017   1.401   0.010  0.00  0.00    +0.163 C 
ATOM      5  O   UNL     1      -1.084   1.984   0.018  0.00  0.00    -0.292 OA
ATOM      6  C   UNL     1       1.259   2.199   0.002  0.00  0.00    +0.086 C 
ATOM      7  C   UNL     1       2.363   1.377   0.675  0.00  0.00    -0.023 C 
ATOM      8  C   UNL     1       2.491   0.042  -0.061  0.00  0.00    +0.058 C 
ATOM      9  C   UNL     1       1.996   1.125   2.139  0.00  0.00    +0.011 C 
ATOM     10  C   UNL     1       3.689   2.136   0.597  0.00  0.00    +0.011 C 
ATOM     11  C   UNL     1      -1.315  -0.734   0.031  0.00  0.00    +0.141 C 
ATOM     12  C   UNL     1      -1.937  -0.646   1.391  0.00  0.00    -0.001 A 
ATOM     13  C   UNL     1      -1.513  -1.109   2.618  0.00  0.00    +0.007 A 
ATOM     14  C   UNL     1      -2.341  -0.858   3.707  0.00  0.00    +0.000 A 
ATOM     15  C   UNL     1      -3.532  -0.176   3.562  0.00  0.00    +0.002 A 
ATOM     16  C   UNL     1      -3.965   0.291   2.331  0.00  0.00    +0.024 A 
ATOM     17  C   UNL     1      -3.143   0.045   1.230  0.00  0.00    +0.041 A 
ATOM     18  N   UNL     1      -3.325   0.392  -0.097  0.00  0.00    -0.273 N 
ATOM     19  C   UNL     1      -2.305  -0.026  -0.874  0.00  0.00    +0.240 C 
ATOM     20  O   UNL     1      -2.199   0.135  -2.072  0.00  0.00    -0.274 OA
ATOM     21  C   UNL     1      -4.489   1.125  -0.600  0.00  0.00    +0.138 C 
ATOM     22  C   UNL     1      -1.163  -2.163  -0.397  0.00  0.00    +0.089 C 
ATOM     23  C   UNL     1       0.057  -2.762  -0.412  0.00  0.00    +0.108 C 
ENDROOT
BRANCH   1  30
ATOM     24  C   UNL     1       3.069  -2.707  -2.060  0.00  0.00    +0.045 C 
ATOM     25  C   UNL     1       3.285  -3.080  -0.616  0.00  0.00    -0.029 A 
ATOM     26  C   UNL     1       4.431  -3.754  -0.241  0.00  0.00    +0.005 A 
ATOM     27  C   UNL     1       4.628  -4.102   1.083  0.00  0.00    +0.000 A 
ATOM     28  C   UNL     1       3.682  -3.772   2.036  0.00  0.00    +0.002 A 
ATOM     29  C   UNL     1       2.537  -3.093   1.668  0.00  0.00    +0.024 A 
ATOM     30  C   UNL     1       2.336  -2.742   0.339  0.00  0.00    +0.043 A 
ENDBRANCH   1  30
BRANCH  23  31
ATOM     31  N   UNL     1       0.172  -4.074  -0.802  0.00  0.00    -0.345 N 
ATOM     32  H   UNL     1       1.043  -4.502  -0.813  0.00  0.00    +0.144 HD
ATOM     33  H   UNL     1      -0.617  -4.573  -1.066  0.00  0.00    +0.144 HD
ENDBRANCH  23  31
BRANCH  22  34
ATOM     34  C   UNL     1      -2.320  -2.907  -0.796  0.00  0.00    +0.100 C 
ATOM     35  N   UNL     1      -3.237  -3.498  -1.112  0.00  0.00    -0.191 NA
ENDBRANCH  22  34
TORSDOF 3
