REMARK  Name = ZINC39695979
REMARK  9 active torsions:
REMARK  status: ('A' for Active; 'I' for Inactive)
REMARK    1  A    between atoms: C_1  and  C_2
REMARK    2  A    between atoms: C_2  and  C_3
REMARK    3  A    between atoms: C_6  and  C_9
REMARK    4  A    between atoms: C_9  and  C_11
REMARK    5  A    between atoms: C_9  and  N_12
REMARK    6  A    between atoms: C_13  and  C_15
REMARK    7  A    between atoms: C_26  and  C_28
REMARK    8  A    between atoms: C_31  and  C_34
REMARK    9  A    between atoms: C_34  and  C_35
REMARK                            x       y       z     vdW  Elec       q    Type
REMARK                         _______ _______ _______ _____ _____    ______ ____
ROOT
ATOM      1  C   UNL     1       2.897  -0.151   7.834  0.00  0.00    +0.100 C 
ATOM      2  C   UNL     1       2.385   1.305   7.753  0.00  0.00    +0.121 C 
ATOM      3  N   UNL     1       2.742   1.900   9.062  0.00  0.00    -0.296 N 
ATOM      4  C   UNL     1       4.083   1.346   9.366  0.00  0.00    +0.115 C 
ATOM      5  C   UNL     1       4.012  -0.119   8.893  0.00  0.00    -0.004 C 
ATOM      6  C   UNL     1       5.342  -0.538   8.273  0.00  0.00    -0.010 C 
ATOM      7  C   UNL     1       6.423  -0.555   9.357  0.00  0.00    -0.082 C 
ATOM      8  N   UNL     1       6.038  -1.493  10.419  0.00  0.00    +0.379 N 
ATOM      9  C   UNL     1       4.808  -1.031  11.072  0.00  0.00    -0.082 C 
ATOM     10  C   UNL     1       3.658  -1.034  10.061  0.00  0.00    -0.010 C 
ATOM     11  C   UNL     1       2.012   2.753   9.809  0.00  0.00    +0.247 C 
ATOM     12  O   UNL     1       0.877   3.032   9.477  0.00  0.00    -0.270 OA
ATOM     13  H   UNL     1       5.883  -2.406  10.020  0.00  0.00    -0.086 HD
ATOM     14  H   UNL     1       6.779  -1.548  11.101  0.00  0.00    -0.086 HD
ENDROOT
BRANCH  11  15
ATOM     15  C   UNL     1       2.593   3.349  11.030  0.00  0.00    +0.037 A 
ATOM     16  C   UNL     1       3.978   3.413  11.189  0.00  0.00    +0.013 A 
ATOM     17  C   UNL     1       4.514   3.971  12.332  0.00  0.00    +0.004 A 
ATOM     18  C   UNL     1       3.681   4.466  13.319  0.00  0.00    -0.048 A 
ATOM     19  C   UNL     1       2.307   4.405  13.169  0.00  0.00    +0.004 A 
ATOM     20  C   UNL     1       1.759   3.855  12.028  0.00  0.00    +0.013 A 
BRANCH  18  21
ATOM     21  C   UNL     1       4.273   5.073  14.565  0.00  0.00    +0.032 C 
ATOM     22  C   UNL     1       4.486   6.573  14.349  0.00  0.00    +0.009 C 
ENDBRANCH  18  21
ENDBRANCH  11  15
BRANCH   1  24
ATOM     23  N   UNL     1       3.414  -1.888   6.151  0.00  0.00    -0.308 N 
ATOM     24  C   UNL     1       3.450  -0.587   6.502  0.00  0.00    +0.219 C 
ATOM     25  O   UNL     1       3.928   0.232   5.746  0.00  0.00    -0.275 OA
ATOM     26  H   UNL     1       3.033  -2.543   6.756  0.00  0.00    +0.149 HD
BRANCH  23  27
ATOM     27  C   UNL     1       3.952  -2.312   4.856  0.00  0.00    +0.100 C 
ATOM     28  C   UNL     1       5.461  -2.538   4.979  0.00  0.00    +0.033 C 
BRANCH  27  32
ATOM     29  C   UNL     1       2.063  -5.949   3.650  0.00  0.00    -0.048 A 
ATOM     30  C   UNL     1       2.321  -4.962   2.717  0.00  0.00    +0.004 A 
ATOM     31  C   UNL     1       2.933  -3.785   3.108  0.00  0.00    +0.006 A 
ATOM     32  C   UNL     1       3.285  -3.595   4.431  0.00  0.00    -0.027 A 
ATOM     33  C   UNL     1       3.026  -4.582   5.364  0.00  0.00    +0.006 A 
ATOM     34  C   UNL     1       2.411  -5.757   4.974  0.00  0.00    +0.004 A 
BRANCH  29  36
ATOM     35  C   UNL     1      -0.121  -7.079   3.335  0.00  0.00    +0.009 C 
ATOM     36  C   UNL     1       1.397  -7.232   3.225  0.00  0.00    +0.032 C 
ENDBRANCH  29  36
ENDBRANCH  27  32
ENDBRANCH  23  27
ENDBRANCH   1  24
TORSDOF 6
