REMARK  Name = ZINC43527351
REMARK  9 active torsions:
REMARK  status: ('A' for Active; 'I' for Inactive)
REMARK    1  A    between atoms: C_1  and  O_2
REMARK    2  A    between atoms: O_2  and  C_3
REMARK    3  A    between atoms: C_8  and  N_9
REMARK    4  A    between atoms: N_12  and  C_15
REMARK    5  A    between atoms: C_15  and  C_16
REMARK    6  A    between atoms: C_25  and  C_27
REMARK    7  A    between atoms: C_27  and  N_28
REMARK    8  A    between atoms: N_28  and  S_29
REMARK    9  A    between atoms: S_29  and  C_32
REMARK                            x       y       z     vdW  Elec       q    Type
REMARK                         _______ _______ _______ _____ _____    ______ ____
ROOT
ATOM      1  C   UNL     1      -0.256  -6.763   3.013  0.00  0.00    -0.041 C 
ATOM      2  C   UNL     1      -1.086  -6.051   4.084  0.00  0.00    -0.077 C 
ATOM      3  N   UNL     1      -1.656  -7.032   5.011  0.00  0.00    +0.383 N 
ATOM      4  C   UNL     1      -2.549  -7.952   4.303  0.00  0.00    -0.078 C 
ATOM      5  C   UNL     1      -1.767  -8.727   3.240  0.00  0.00    -0.015 C 
ATOM      6  C   UNL     1      -0.298  -8.274   3.273  0.00  0.00    -0.015 C 
ATOM      7  C   UNL     1       0.256  -8.539   4.680  0.00  0.00    -0.011 C 
ATOM      8  C   UNL     1      -0.594  -7.770   5.698  0.00  0.00    -0.053 C 
ATOM      9  H   UNL     1      -2.201  -6.539   5.702  0.00  0.00    -0.081 HD
ENDROOT
BRANCH   1  10
ATOM     10  C   UNL     1      -0.838  -6.464   1.630  0.00  0.00    -0.077 C 
BRANCH  10  14
ATOM     11  N   UNL     1       0.097  -2.777  -0.113  0.00  0.00    -0.331 N 
ATOM     12  C   UNL     1      -1.306  -3.215  -0.187  0.00  0.00    +0.086 C 
ATOM     13  C   UNL     1      -1.357  -4.725   0.064  0.00  0.00    -0.060 C 
ATOM     14  N   UNL     1      -0.693  -5.032   1.337  0.00  0.00    +0.382 N 
ATOM     15  C   UNL     1       0.734  -4.694   1.250  0.00  0.00    -0.060 C 
ATOM     16  C   UNL     1       0.890  -3.186   1.056  0.00  0.00    +0.086 C 
ATOM     17  H   UNL     1      -1.120  -4.495   2.076  0.00  0.00    -0.082 HD
BRANCH  11  23
ATOM     18  C   UNL     1       0.606  -0.608  -1.057  0.00  0.00    +0.141 A 
ATOM     19  C   UNL     1       1.173   0.158  -2.062  0.00  0.00    +0.047 A 
ATOM     20  C   UNL     1       1.786  -0.457  -3.138  0.00  0.00    +0.004 A 
ATOM     21  C   UNL     1       1.837  -1.836  -3.214  0.00  0.00    +0.002 A 
ATOM     22  C   UNL     1       1.274  -2.608  -2.214  0.00  0.00    +0.027 A 
ATOM     23  C   UNL     1       0.662  -1.998  -1.129  0.00  0.00    +0.072 A 
BRANCH  18  25
ATOM     24  C   UNL     1      -0.017   1.425   0.010  0.00  0.00    +0.277 C 
ATOM     25  O   UNL     1       0.002  -0.004   0.002  0.00  0.00    -0.493 OA
ENDBRANCH  18  25
ENDBRANCH  11  23
ENDBRANCH  10  14
ENDBRANCH   1  10
BRANCH   8  26
ATOM     26  C   UNL     1      -1.218  -8.755   6.687  0.00  0.00    +0.091 C 
BRANCH  26  27
ATOM     27  N   UNL     1      -2.112  -8.034   7.596  0.00  0.00    -0.191 NA
ATOM     28  H   UNL     1      -2.067  -7.067   7.656  0.00  0.00    +0.148 HD
BRANCH  27  29
ATOM     29  S   UNL     1      -3.201  -8.870   8.522  0.00  0.00    +0.065 S 
ATOM     30  O   UNL     1      -3.893  -7.907   9.305  0.00  0.00    -0.153 OA
ATOM     31  O   UNL     1      -3.874  -9.767   7.649  0.00  0.00    -0.153 OA
BRANCH  29  32
ATOM     32  C   UNL     1      -2.276  -9.863   9.647  0.00  0.00    +0.142 A 
ATOM     33  C   UNL     1      -1.840  -9.559  10.894  0.00  0.00    +0.036 A 
ATOM     34  C   UNL     1      -1.123 -10.505  11.602  0.00  0.00    +0.010 A 
ATOM     35  C   UNL     1      -0.877 -11.708  11.029  0.00  0.00    +0.047 A 
ATOM     36  S   UNL     1      -1.676 -11.531   9.442  0.00  0.00    -0.077 S 
ENDBRANCH  29  32
ENDBRANCH  27  29
ENDBRANCH  26  27
ENDBRANCH   8  26
TORSDOF 8
