REMARK  Name = ZINC33051349
REMARK  6 active torsions:
REMARK  status: ('A' for Active; 'I' for Inactive)
REMARK    1  A    between atoms: C_1  and  C_2
REMARK    2  A    between atoms: C_2  and  C_3
REMARK    3  A    between atoms: N_6  and  C_8
REMARK    4  A    between atoms: C_19  and  C_34
REMARK    5  A    between atoms: N_25  and  C_26
REMARK    6  A    between atoms: C_29  and  C_33
REMARK                            x       y       z     vdW  Elec       q    Type
REMARK                         _______ _______ _______ _____ _____    ______ ____
ROOT
ATOM      1  C   UNL     1      -3.307   1.939   0.574  0.00  0.00    +0.070 A 
ATOM      2  C   UNL     1      -2.734   0.699   0.839  0.00  0.00    +0.036 A 
ATOM      3  C   UNL     1      -2.174   0.761   2.083  0.00  0.00    +0.146 A 
ATOM      4  N   UNL     1      -2.433   1.977   2.599  0.00  0.00    -0.215 N 
ATOM      5  N   UNL     1      -3.130   2.708   1.622  0.00  0.00    -0.169 NA
ATOM      6  N   UNL     1      -1.425  -0.311   2.580  0.00  0.00    -0.303 N 
ATOM      7  C   UNL     1      -1.433  -0.898   3.799  0.00  0.00    +0.093 A 
ATOM      8  C   UNL     1      -0.600  -1.963   3.752  0.00  0.00    +0.020 A 
ATOM      9  C   UNL     1      -0.041  -2.009   2.457  0.00  0.00    +0.025 A 
ATOM     10  C   UNL     1      -0.532  -0.966   1.769  0.00  0.00    +0.050 A 
ATOM     11  C   UNL     1      -0.213  -0.522   0.371  0.00  0.00    +0.155 C 
ATOM     12  N   UNL     1      -1.340  -0.782  -0.555  0.00  0.00    -0.268 N 
ATOM     13  C   UNL     1      -2.698  -0.532  -0.018  0.00  0.00    +0.151 C 
ATOM     14  C   UNL     1      -1.141  -1.221  -1.813  0.00  0.00    +0.308 C 
ATOM     15  O   UNL     1      -0.011  -1.415  -2.218  0.00  0.00    -0.252 OA
ATOM     16  N   UNL     1      -2.194  -1.445  -2.624  0.00  0.00    -0.269 N 
ATOM     17  H   UNL     1      -3.212  -1.208  -2.281  0.00  0.00    +0.156 HD
ENDROOT
BRANCH  16  18
ATOM     18  C   UNL     1      -1.993  -1.980  -3.901  0.00  0.00    +0.036 A 
ATOM     19  C   UNL     1      -0.852  -1.651  -4.622  0.00  0.00    +0.024 A 
ATOM     20  C   UNL     1      -0.653  -2.185  -5.880  0.00  0.00    +0.006 A 
ATOM     21  C   UNL     1      -1.594  -3.037  -6.428  0.00  0.00    -0.032 A 
ATOM     22  C   UNL     1      -2.735  -3.364  -5.715  0.00  0.00    +0.046 A 
ATOM     23  C   UNL     1      -2.936  -2.837  -4.453  0.00  0.00    +0.043 A 
ATOM     24 CL   UNL     1      -3.913  -4.435  -6.406  0.00  0.00    -0.083 Cl
ATOM     25  C   UNL     1      -1.377  -3.612  -7.804  0.00  0.00    +0.045 C 
ENDBRANCH  16  18
BRANCH   4  26
ATOM     26  C   UNL     1      -2.073   2.430   3.876  0.00  0.00    +0.068 A 
ATOM     27  C   UNL     1      -2.951   3.220   4.606  0.00  0.00    +0.028 A 
ATOM     28  C   UNL     1      -2.596   3.661   5.866  0.00  0.00    +0.002 A 
ATOM     29  C   UNL     1      -1.363   3.325   6.396  0.00  0.00    +0.000 A 
ATOM     30  C   UNL     1      -0.485   2.543   5.668  0.00  0.00    +0.002 A 
ATOM     31  C   UNL     1      -0.837   2.095   4.410  0.00  0.00    +0.028 A 
ENDBRANCH   4  26
BRANCH  11  32
ATOM     32  C   UNL     1       0.085   0.955   0.381  0.00  0.00    -0.021 A 
ATOM     33  C   UNL     1      -0.301   1.745  -0.686  0.00  0.00    +0.006 A 
ATOM     34  C   UNL     1      -0.032   3.101  -0.675  0.00  0.00    +0.000 A 
ATOM     35  C   UNL     1       0.632   3.665   0.398  0.00  0.00    +0.000 A 
ATOM     36  C   UNL     1       1.021   2.875   1.463  0.00  0.00    +0.000 A 
ATOM     37  C   UNL     1       0.748   1.520   1.454  0.00  0.00    +0.006 A 
ENDBRANCH  11  32
BRANCH   1  39
ATOM     38  C   UNL     1      -5.499   2.003  -0.582  0.00  0.00    +0.010 C 
ATOM     39  C   UNL     1      -4.010   2.331  -0.700  0.00  0.00    +0.054 C 
ENDBRANCH   1  39
TORSDOF 4
