REMARK  Name = ZINC41585920
REMARK  7 active torsions:
REMARK  status: ('A' for Active; 'I' for Inactive)
REMARK    1  A    between atoms: C_1  and  N_2
REMARK    2  A    between atoms: C_4  and  C_13
REMARK    3  A    between atoms: C_9  and  O_11
REMARK    4  A    between atoms: O_11  and  C_12
REMARK    5  A    between atoms: C_20  and  O_37
REMARK    6  A    between atoms: C_21  and  C_24
REMARK    7  A    between atoms: C_24  and  N_25
REMARK                            x       y       z     vdW  Elec       q    Type
REMARK                         _______ _______ _______ _____ _____    ______ ____
ROOT
ATOM      1  C   UNL     1       0.138  -3.170  -1.676  0.00  0.00    +0.060 C 
ATOM      2  C   UNL     1       0.010  -2.995  -3.021  0.00  0.00    +0.176 C 
ATOM      3  C   UNL     1      -0.015  -1.746  -3.696  0.00  0.00    +0.231 C 
ATOM      4  O   UNL     1       0.070  -0.634  -3.201  0.00  0.00    -0.283 OA
ATOM      5  C   UNL     1      -0.168  -2.081  -5.123  0.00  0.00    +0.068 A 
ATOM      6  C   UNL     1      -0.258  -1.315  -6.285  0.00  0.00    +0.019 A 
ATOM      7  C   UNL     1      -0.398  -1.931  -7.496  0.00  0.00    +0.046 A 
ATOM      8  C   UNL     1      -0.452  -3.320  -7.574  0.00  0.00    +0.125 A 
ATOM      9  C   UNL     1      -0.364  -4.094  -6.428  0.00  0.00    +0.051 A 
ATOM     10  C   UNL     1      -0.221  -3.482  -5.190  0.00  0.00    +0.147 A 
ATOM     11  O   UNL     1      -0.108  -3.982  -3.940  0.00  0.00    -0.451 OA
ENDROOT
BRANCH   1  15
ATOM     12  C   UNL     1      -1.096   1.265   0.276  0.00  0.00    +0.149 C 
ATOM     13  N   UNL     1      -0.450  -0.038   0.103  0.00  0.00    -0.349 N 
ATOM     14  C   UNL     1      -0.682  -0.885  -0.930  0.00  0.00    +0.094 A 
ATOM     15  C   UNL     1       0.091  -2.016  -0.781  0.00  0.00    +0.004 A 
ATOM     16  C   UNL     1       0.862  -1.830   0.464  0.00  0.00    +0.011 A 
ATOM     17  C   UNL     1       0.486  -0.575   0.968  0.00  0.00    +0.050 A 
ATOM     18  C   UNL     1       1.058  -0.113   2.149  0.00  0.00    +0.030 A 
ATOM     19  C   UNL     1       1.988  -0.883   2.812  0.00  0.00    +0.047 A 
ATOM     20  C   UNL     1       2.363  -2.126   2.311  0.00  0.00    +0.121 A 
ATOM     21  C   UNL     1       1.799  -2.604   1.143  0.00  0.00    +0.056 A 
BRANCH  20  22
ATOM     22  O   UNL     1       3.282  -2.875   2.977  0.00  0.00    -0.495 OA
ATOM     23  C   UNL     1       3.819  -2.325   4.181  0.00  0.00    +0.277 C 
ENDBRANCH  20  22
ENDBRANCH   1  15
BRANCH   8  24
ATOM     24  O   UNL     1      -0.592  -3.922  -8.783  0.00  0.00    -0.506 OA
ATOM     25  H   UNL     1       0.246  -4.126  -9.221  0.00  0.00    +0.292 HD
ENDBRANCH   8  24
BRANCH   9  26
ATOM     26  C   UNL     1      -0.424  -5.596  -6.525  0.00  0.00    +0.127 C 
BRANCH  26  27
ATOM     27  N   UNL     1       0.934  -6.131  -6.694  0.00  0.00    -0.295 NA
ATOM     28  C   UNL     1       1.749  -5.883  -5.497  0.00  0.00    +0.103 C 
ATOM     29  C   UNL     1       3.200  -6.290  -5.779  0.00  0.00    +0.122 C 
ATOM     30  N   UNL     1       3.210  -7.679  -6.262  0.00  0.00    -0.314 N 
ATOM     31  C   UNL     1       2.314  -8.036  -7.372  0.00  0.00    +0.122 C 
ATOM     32  C   UNL     1       0.899  -7.561  -7.028  0.00  0.00    +0.103 C 
ATOM     33  C   UNL     1       4.044  -8.629  -5.684  0.00  0.00    +0.099 A 
ATOM     34  C   UNL     1       4.133  -9.900  -6.244  0.00  0.00    +0.042 A 
ATOM     35  C   UNL     1       4.967 -10.836  -5.659  0.00  0.00    +0.005 A 
ATOM     36  C   UNL     1       5.686 -10.468  -4.529  0.00  0.00    +0.018 A 
ATOM     37  C   UNL     1       5.549  -9.190  -4.026  0.00  0.00    +0.084 A 
ATOM     38  N   UNL     1       4.750  -8.316  -4.609  0.00  0.00    -0.350 N 
ATOM     39  H   UNL     1       4.675  -7.423  -4.238  0.00  0.00    +0.166 HD
ENDBRANCH  26  27
ENDBRANCH   9  26
TORSDOF 5
