REMARK  Name = ZINC14161158
REMARK  10 active torsions:
REMARK  status: ('A' for Active; 'I' for Inactive)
REMARK    1  A    between atoms: C_1  and  C_2
REMARK    2  A    between atoms: C_5  and  C_37
REMARK    3  A    between atoms: C_6  and  N_8
REMARK    4  A    between atoms: N_8  and  C_9
REMARK    5  A    between atoms: C_9  and  N_11
REMARK    6  A    between atoms: N_13  and  C_14
REMARK    7  A    between atoms: C_16  and  C_21
REMARK    8  A    between atoms: C_18  and  C_20
REMARK    9  A    between atoms: C_25  and  C_28
REMARK   10  A    between atoms: C_25  and  N_31
REMARK                            x       y       z     vdW  Elec       q    Type
REMARK                         _______ _______ _______ _____ _____    ______ ____
ROOT
ATOM      1  N   UNL     1      -0.224  -3.023   4.690  0.00  0.00    -0.269 N 
ATOM      2  C   UNL     1      -0.243  -2.338   5.882  0.00  0.00    +0.192 C 
ATOM      3  N   UNL     1      -0.605  -1.074   5.907  0.00  0.00    -0.181 NA
ATOM      4  N   UNL     1       0.115  -2.971   7.041  0.00  0.00    -0.303 N 
ATOM      5  C   UNL     1      -0.860  -3.785   7.781  0.00  0.00    +0.107 C 
ATOM      6  C   UNL     1      -0.267  -5.179   8.007  0.00  0.00    +0.016 C 
ATOM      7  C   UNL     1       1.093  -5.045   8.697  0.00  0.00    +0.015 C 
ATOM      8  C   UNL     1       2.047  -4.255   7.798  0.00  0.00    +0.016 C 
ATOM      9  C   UNL     1       1.482  -2.855   7.566  0.00  0.00    +0.107 C 
ATOM     10  H   UNL     1      -0.005  -3.968   4.678  0.00  0.00    +0.156 HD
ENDROOT
BRANCH   3  11
ATOM     11  C   UNL     1      -0.673  -0.409   7.094  0.00  0.00    +0.253 A 
ATOM     12  N   UNL     1      -0.274  -1.020   8.206  0.00  0.00    -0.216 NA
ATOM     13  C   UNL     1      -0.328  -0.401   9.372  0.00  0.00    +0.044 A 
ATOM     14  C   UNL     1      -0.807   0.899   9.428  0.00  0.00    +0.046 A 
ATOM     15  C   UNL     1      -1.216   1.508   8.252  0.00  0.00    +0.044 A 
ATOM     16  N   UNL     1      -1.133   0.839   7.115  0.00  0.00    -0.216 NA
ATOM     17  C   UNL     1      -1.743   2.920   8.268  0.00  0.00    +0.066 C 
ATOM     18  C   UNL     1       0.126  -1.101  10.628  0.00  0.00    +0.066 C 
ENDBRANCH   3  11
BRANCH   7  19
ATOM     19  N   UNL     1       1.649  -6.382   8.945  0.00  0.00    +0.389 N 
ATOM     20  C   UNL     1       0.707  -7.159   9.760  0.00  0.00    -0.077 C 
ATOM     21  C   UNL     1       1.245  -8.578   9.954  0.00  0.00    -0.019 C 
ATOM     22  C   UNL     1       2.601  -8.512  10.662  0.00  0.00    -0.004 C 
ATOM     23  C   UNL     1       3.553  -7.638   9.841  0.00  0.00    -0.019 C 
ATOM     24  C   UNL     1       2.930  -6.253   9.652  0.00  0.00    -0.077 C 
ATOM     25  H   UNL     1       1.798  -6.852   8.065  0.00  0.00    -0.080 HD
ENDBRANCH   7  19
BRANCH   7  26
ATOM     26  C   UNL     1       0.922  -4.321  10.008  0.00  0.00    +0.200 C 
ATOM     27  O   UNL     1      -0.159  -4.311  10.558  0.00  0.00    -0.278 OA
ATOM     28  N   UNL     1       1.970  -3.686  10.568  0.00  0.00    -0.330 N 
ATOM     29  H   UNL     1       2.813  -3.629  10.092  0.00  0.00    +0.145 HD
ATOM     30  H   UNL     1       1.881  -3.285  11.447  0.00  0.00    +0.145 HD
ENDBRANCH   7  26
BRANCH   1  31
ATOM     31  C   UNL     1      -0.510  -2.382   3.540  0.00  0.00    +0.141 C 
ATOM     32  S   UNL     1      -0.897  -0.715   3.562  0.00  0.00    -0.018 S 
BRANCH  31  33
ATOM     33  N   UNL     1      -0.491  -3.054   2.371  0.00  0.00    -0.296 N 
ATOM     34  H   UNL     1      -0.307  -4.007   2.363  0.00  0.00    +0.154 HD
BRANCH  33  40
ATOM     35  C   UNL     1       0.107   0.937  -0.436  0.00  0.00    +0.044 C 
ATOM     36  C   UNL     1      -0.460  -0.442  -0.215  0.00  0.00    -0.049 A 
ATOM     37  C   UNL     1      -1.223  -1.041  -1.201  0.00  0.00    +0.004 A 
ATOM     38  C   UNL     1      -1.744  -2.306  -1.003  0.00  0.00    +0.005 A 
ATOM     39  C   UNL     1      -1.503  -2.977   0.180  0.00  0.00    -0.029 A 
ATOM     40  C   UNL     1      -0.737  -2.378   1.172  0.00  0.00    +0.036 A 
ATOM     41  C   UNL     1      -0.210  -1.109   0.968  0.00  0.00    +0.027 A 
ATOM     42  C   UNL     1      -2.072  -4.356   0.395  0.00  0.00    +0.045 C 
ENDBRANCH  33  40
ENDBRANCH  31  33
ENDBRANCH   1  31
TORSDOF 6
