REMARK  Name = ZINC05273647
REMARK  15 active torsions:
REMARK  status: ('A' for Active; 'I' for Inactive)
REMARK    1  A    between atoms: C_1  and  C_2
REMARK    2  A    between atoms: C_2  and  C_3
REMARK    3  A    between atoms: C_3  and  O_4
REMARK    4  A    between atoms: O_4  and  C_5
REMARK    5  A    between atoms: C_7  and  O_36
REMARK    6  A    between atoms: C_9  and  O_35
REMARK    7  A    between atoms: C_11  and  O_18
REMARK    8  A    between atoms: C_13  and  C_16
REMARK    9  A    between atoms: C_16  and  O_17
REMARK   10  A    between atoms: O_18  and  C_19
REMARK   11  A    between atoms: C_21  and  O_34
REMARK   12  A    between atoms: C_23  and  O_33
REMARK   13  A    between atoms: C_25  and  O_32
REMARK   14  A    between atoms: C_27  and  C_30
REMARK   15  A    between atoms: C_30  and  O_31
REMARK                            x       y       z     vdW  Elec       q    Type
REMARK                         _______ _______ _______ _____ _____    ______ ____
ROOT
ATOM      1  C   UNL     1      -0.068   1.127   2.404  0.00  0.00    +0.282 C 
ATOM      2  C   UNL     1      -0.789   1.776   3.588  0.00  0.00    +0.201 C 
ATOM      3  C   UNL     1      -2.245   1.299   3.612  0.00  0.00    +0.179 C 
ATOM      4  C   UNL     1      -2.269  -0.231   3.684  0.00  0.00    +0.183 C 
ATOM      5  C   UNL     1      -1.490  -0.802   2.496  0.00  0.00    +0.178 C 
ATOM      6  O   UNL     1      -0.154  -0.295   2.516  0.00  0.00    -0.341 OA
ENDROOT
BRANCH   3   7
ATOM      7  O   UNL     1      -2.907   1.842   4.756  0.00  0.00    -0.386 OA
ATOM      8  H   UNL     1      -2.929   2.808   4.776  0.00  0.00    +0.210 HD
ENDBRANCH   3   7
BRANCH   2   9
ATOM      9  O   UNL     1      -0.143   1.398   4.806  0.00  0.00    -0.384 OA
ATOM     10  H   UNL     1       0.785   1.664   4.857  0.00  0.00    +0.210 HD
ENDBRANCH   2   9
BRANCH   1  11
ATOM     11  O   UNL     1      -0.682   1.547   1.184  0.00  0.00    -0.349 OA
BRANCH  11  12
ATOM     12  C   UNL     1      -0.013   1.086   0.008  0.00  0.00    +0.163 C 
BRANCH  12  14
ATOM     13  C   UNL     1      -0.037   1.099  -2.490  0.00  0.00    +0.006 C 
ATOM     14  C   UNL     1      -0.753   1.593  -1.232  0.00  0.00    +0.025 C 
ENDBRANCH  12  14
ENDBRANCH  11  12
ENDBRANCH   1  11
BRANCH   5  15
ATOM     15  C   UNL     1      -1.459  -2.329   2.593  0.00  0.00    +0.190 C 
BRANCH  15  16
ATOM     16  O   UNL     1      -0.833  -2.867   1.427  0.00  0.00    -0.392 OA
ATOM     17  H   UNL     1      -0.778  -3.833   1.420  0.00  0.00    +0.210 HD
ENDBRANCH  15  16
ENDBRANCH   5  15
BRANCH   4  18
ATOM     18  O   UNL     1      -1.663  -0.661   4.904  0.00  0.00    -0.340 OA
BRANCH  18  19
ATOM     19  C   UNL     1      -2.579  -0.797   5.992  0.00  0.00    +0.282 C 
ATOM     20  C   UNL     1      -1.799  -1.016   7.292  0.00  0.00    +0.201 C 
ATOM     21  C   UNL     1      -2.788  -1.220   8.443  0.00  0.00    +0.179 C 
ATOM     22  C   UNL     1      -3.706  -2.401   8.110  0.00  0.00    +0.177 C 
ATOM     23  C   UNL     1      -4.412  -2.128   6.779  0.00  0.00    +0.178 C 
ATOM     24  O   UNL     1      -3.435  -1.917   5.758  0.00  0.00    -0.341 OA
BRANCH  22  25
ATOM     25  O   UNL     1      -2.930  -3.595   8.002  0.00  0.00    -0.386 OA
ATOM     26  H   UNL     1      -2.454  -3.829   8.811  0.00  0.00    +0.210 HD
ENDBRANCH  22  25
BRANCH  21  27
ATOM     27  O   UNL     1      -2.070  -1.498   9.647  0.00  0.00    -0.386 OA
ATOM     28  H   UNL     1      -1.468  -0.792   9.918  0.00  0.00    +0.210 HD
ENDBRANCH  21  27
BRANCH  20  29
ATOM     29  O   UNL     1      -0.971  -2.173   7.162  0.00  0.00    -0.384 OA
ATOM     30  H   UNL     1      -0.322  -2.115   6.447  0.00  0.00    +0.210 HD
ENDBRANCH  20  29
BRANCH  23  31
ATOM     31  C   UNL     1      -5.285  -3.329   6.409  0.00  0.00    +0.190 C 
BRANCH  31  32
ATOM     32  O   UNL     1      -6.032  -3.030   5.228  0.00  0.00    -0.392 OA
ATOM     33  H   UNL     1      -6.608  -3.748   4.934  0.00  0.00    +0.210 HD
ENDBRANCH  31  32
ENDBRANCH  23  31
ENDBRANCH  18  19
ENDBRANCH   4  18
TORSDOF 14
