REMARK  Name = ZINC39446141
REMARK  8 active torsions:
REMARK  status: ('A' for Active; 'I' for Inactive)
REMARK    1  A    between atoms: C_1  and  O_2
REMARK    2  A    between atoms: O_2  and  C_3
REMARK    3  A    between atoms: C_6  and  C_10
REMARK    4  A    between atoms: C_10  and  C_11
REMARK    5  A    between atoms: C_11  and  C_14
REMARK    6  A    between atoms: N_12  and  O_13
REMARK    7  A    between atoms: N_16  and  C_17
REMARK    8  A    between atoms: C_17  and  C_18
REMARK                            x       y       z     vdW  Elec       q    Type
REMARK                         _______ _______ _______ _____ _____    ______ ____
ROOT
ATOM      1  C   UNL     1       3.132  -1.504   5.285  0.00  0.00    +0.145 C 
ATOM      2  N   UNL     1       2.939  -0.259   4.995  0.00  0.00    -0.087 NA
ENDROOT
BRANCH   1   3
ATOM      3  C   UNL     1       3.867  -1.871   6.511  0.00  0.00    +0.262 C 
ATOM      4  O   UNL     1       4.209  -1.008   7.296  0.00  0.00    -0.269 OA
ATOM      5  N   UNL     1       4.159  -3.163   6.761  0.00  0.00    -0.307 N 
ATOM      6  H   UNL     1       3.952  -3.843   6.101  0.00  0.00    +0.149 HD
BRANCH   5   7
ATOM      7  C   UNL     1       4.789  -3.539   8.029  0.00  0.00    +0.134 C 
BRANCH   7   8
ATOM      8  C   UNL     1       5.008  -5.030   8.058  0.00  0.00    +0.016 C 
ATOM      9  C   UNL     1       6.236  -5.525   8.287  0.00  0.00    +0.047 C 
ATOM     10  N   UNL     1       7.414  -4.802   8.522  0.00  0.00    -0.285 N 
ATOM     11  C   UNL     1       8.415  -5.731   8.701  0.00  0.00    +0.190 C 
ATOM     12  N   UNL     1       9.669  -5.446   8.946  0.00  0.00    -0.270 NA
ATOM     13  N   UNL     1       7.914  -6.975   8.588  0.00  0.00    -0.333 N 
ATOM     14  C   UNL     1       6.630  -6.938   8.350  0.00  0.00    +0.108 C 
ATOM     15  H   UNL     1       9.952  -4.520   9.012  0.00  0.00    +0.190 HD
ATOM     16  H   UNL     1       7.506  -3.837   8.552  0.00  0.00    +0.155 HD
ATOM     17  H   UNL     1       8.434  -7.789   8.677  0.00  0.00    +0.168 HD
ENDBRANCH   7   8
ENDBRANCH   5   7
ENDBRANCH   1   3
BRANCH   2  18
ATOM     18  O   UNL     1       3.336   0.750   5.906  0.00  0.00    -0.409 OA
ATOM     19  H   UNL     1       3.151   1.649   5.602  0.00  0.00    +0.328 HD
ENDBRANCH   2  18
BRANCH   1  20
ATOM     20  C   UNL     1       2.605  -2.581   4.372  0.00  0.00    +0.099 C 
BRANCH  20  24
ATOM     21  C   UNL     1       0.602  -0.781   1.052  0.00  0.00    +0.148 A 
ATOM     22  C   UNL     1       1.960  -1.057   0.978  0.00  0.00    +0.061 A 
ATOM     23  C   UNL     1       2.605  -1.639   2.053  0.00  0.00    +0.023 A 
ATOM     24  C   UNL     1       1.899  -1.946   3.202  0.00  0.00    -0.039 A 
ATOM     25  C   UNL     1       0.546  -1.672   3.278  0.00  0.00    +0.023 A 
ATOM     26  C   UNL     1      -0.103  -1.085   2.208  0.00  0.00    +0.061 A 
ATOM     27 BR   UNL     1      -1.952  -0.703   2.317  0.00  0.00    -0.046 Br
ATOM     28 BR   UNL     1       2.926  -0.639  -0.593  0.00  0.00    -0.046 Br
BRANCH  21  30
ATOM     29  C   UNL     1      -0.073   1.220  -0.041  0.00  0.00    +0.277 C 
ATOM     30  O   UNL     1      -0.035  -0.208  -0.003  0.00  0.00    -0.493 OA
ENDBRANCH  21  30
ENDBRANCH  20  24
ENDBRANCH   1  20
TORSDOF 7
