REMARK  Name = ZINC39491149
REMARK  13 active torsions:
REMARK  status: ('A' for Active; 'I' for Inactive)
REMARK    1  A    between atoms: C_1  and  C_2
REMARK    2  A    between atoms: C_2  and  N_3
REMARK    3  A    between atoms: N_3  and  C_4
REMARK    4  A    between atoms: C_4  and  C_5
REMARK    5  A    between atoms: N_7  and  C_18
REMARK    6  A    between atoms: C_11  and  C_14
REMARK    7  A    between atoms: C_14  and  O_16
REMARK    8  A    between atoms: O_16  and  C_17
REMARK    9  A    between atoms: C_18  and  C_19
REMARK   10  A    between atoms: C_19  and  C_21
REMARK   11  A    between atoms: C_19  and  C_28
REMARK   12  A    between atoms: C_21  and  C_22
REMARK   13  A    between atoms: C_33  and  O_34
REMARK                            x       y       z     vdW  Elec       q    Type
REMARK                         _______ _______ _______ _____ _____    ______ ____
ROOT
ATOM      1  C   UNL     1      -2.770  -2.503   0.015  0.00  0.00    -0.039 A 
ATOM      2  C   UNL     1      -3.447  -2.955   1.082  0.00  0.00    +0.088 A 
ATOM      3  N   UNL     1      -4.704  -3.346   0.707  0.00  0.00    -0.346 N 
ATOM      4  C   UNL     1      -4.873  -3.150  -0.642  0.00  0.00    +0.049 A 
ATOM      5  C   UNL     1      -3.671  -2.607  -1.137  0.00  0.00    +0.002 A 
ATOM      6  C   UNL     1      -3.550  -2.297  -2.489  0.00  0.00    +0.025 A 
ATOM      7  C   UNL     1      -4.628  -2.526  -3.340  0.00  0.00    +0.060 A 
ATOM      8  C   UNL     1      -5.821  -3.063  -2.835  0.00  0.00    +0.017 A 
ATOM      9  C   UNL     1      -5.937  -3.376  -1.513  0.00  0.00    +0.027 A 
ENDROOT
BRANCH   7  10
ATOM     10  C   UNL     1      -4.515  -2.201  -4.775  0.00  0.00    +0.339 C 
ATOM     11  O   UNL     1      -3.482  -1.735  -5.213  0.00  0.00    -0.245 OA
BRANCH  10  12
ATOM     12  O   UNL     1      -5.558  -2.422  -5.600  0.00  0.00    -0.464 OA
ATOM     13  C   UNL     1      -5.378  -2.085  -6.977  0.00  0.00    +0.280 C 
ENDBRANCH  10  12
ENDBRANCH   7  10
BRANCH   1  14
ATOM     14  C   UNL     1      -1.356  -1.981   0.004  0.00  0.00    -0.045 C 
BRANCH  14  15
ATOM     15  N   UNL     1      -1.376  -0.512   0.012  0.00  0.00    +0.382 N 
ATOM     16  H   UNL     1      -1.848  -0.187   0.843  0.00  0.00    -0.085 HD
ATOM     17  H   UNL     1      -1.864  -0.178  -0.805  0.00  0.00    -0.085 HD
BRANCH  15  19
ATOM     18  C   UNL     1      -0.019   1.526   0.010  0.00  0.00    -0.017 C 
ATOM     19  C   UNL     1       0.002  -0.004   0.002  0.00  0.00    -0.086 C 
ENDBRANCH  15  19
ENDBRANCH  14  15
ENDBRANCH   1  14
BRANCH   3  20
ATOM     20  C   UNL     1      -5.719  -3.892   1.611  0.00  0.00    +0.130 C 
BRANCH  20  21
ATOM     21  C   UNL     1      -5.663  -5.421   1.575  0.00  0.00    +0.047 C 
BRANCH  21  22
ATOM     22  C   UNL     1      -4.342  -5.889   2.129  0.00  0.00    -0.001 A 
ATOM     23  C   UNL     1      -3.988  -5.577   3.428  0.00  0.00    +0.007 A 
ATOM     24  C   UNL     1      -2.776  -6.006   3.937  0.00  0.00    +0.001 A 
ATOM     25  C   UNL     1      -1.916  -6.748   3.148  0.00  0.00    +0.004 A 
ATOM     26  C   UNL     1      -2.266  -7.062   1.849  0.00  0.00    +0.046 A 
ATOM     27  C   UNL     1      -3.484  -6.638   1.338  0.00  0.00    +0.120 A 
BRANCH  27  28
ATOM     28  O   UNL     1      -3.833  -6.951   0.062  0.00  0.00    -0.506 OA
ATOM     29  H   UNL     1      -3.551  -6.299  -0.594  0.00  0.00    +0.292 HD
ENDBRANCH  27  28
ENDBRANCH  21  22
BRANCH  21  30
ATOM     30  C   UNL     1      -6.803  -5.992   2.422  0.00  0.00    +0.045 C 
BRANCH  30  31
ATOM     31  C   UNL     1      -6.824  -7.493   2.288  0.00  0.00    -0.047 A 
ATOM     32  C   UNL     1      -7.571  -8.088   1.289  0.00  0.00    +0.003 A 
ATOM     33  C   UNL     1      -7.590  -9.465   1.166  0.00  0.00    +0.000 A 
ATOM     34  C   UNL     1      -6.862 -10.247   2.043  0.00  0.00    +0.000 A 
ATOM     35  C   UNL     1      -6.114  -9.652   3.042  0.00  0.00    +0.000 A 
ATOM     36  C   UNL     1      -6.092  -8.275   3.162  0.00  0.00    +0.003 A 
ENDBRANCH  30  31
ENDBRANCH  21  30
ENDBRANCH  20  21
ENDBRANCH   3  20
TORSDOF 11
