REMARK  Name = ZINC03682911
REMARK  3 active torsions:
REMARK  status: ('A' for Active; 'I' for Inactive)
REMARK    1  A    between atoms: C_1  and  C_2
REMARK    2  A    between atoms: C_21  and  C_25
REMARK    3  A    between atoms: C_22  and  N_24
REMARK                            x       y       z     vdW  Elec       q    Type
REMARK                         _______ _______ _______ _____ _____    ______ ____
ROOT
ATOM      1  C   UNL     1       1.423   3.544  -0.092  0.00  0.00    +0.008 C 
ATOM      2  C   UNL     1       1.424   2.017  -0.001  0.00  0.00    +0.001 C 
ATOM      3  C   UNL     1       2.140   1.430  -1.218  0.00  0.00    +0.078 C 
ATOM      4  C   UNL     1       2.108  -0.079  -1.148  0.00  0.00    +0.116 C 
ATOM      5  C   UNL     1       1.071  -0.717  -0.573  0.00  0.00    +0.058 C 
ATOM      6  C   UNL     1       0.002  -0.004   0.002  0.00  0.00    +0.164 C 
ATOM      7  O   UNL     1      -0.921  -0.615   0.501  0.00  0.00    -0.292 OA
ATOM      8  C   UNL     1      -0.018   1.500   0.010  0.00  0.00    +0.083 C 
ATOM      9  C   UNL     1       1.029  -2.223  -0.538  0.00  0.00    +0.144 C 
ATOM     10  C   UNL     1       1.317  -2.730   0.841  0.00  0.00    -0.000 A 
ATOM     11  C   UNL     1       2.432  -2.611   1.642  0.00  0.00    +0.022 A 
ATOM     12  C   UNL     1       2.375  -3.212   2.896  0.00  0.00    +0.018 A 
ATOM     13  C   UNL     1       1.250  -3.897   3.314  0.00  0.00    +0.017 A 
ATOM     14  C   UNL     1       0.126  -4.019   2.513  0.00  0.00    +0.025 A 
ATOM     15  C   UNL     1       0.171  -3.420   1.253  0.00  0.00    +0.038 A 
ATOM     16  N   UNL     1      -0.794  -3.385   0.262  0.00  0.00    -0.284 N 
ATOM     17  C   UNL     1      -0.379  -2.703  -0.825  0.00  0.00    +0.238 C 
ATOM     18  O   UNL     1      -1.012  -2.510  -1.841  0.00  0.00    -0.274 OA
ATOM     19 BR   UNL     1       3.867  -3.090   4.051  0.00  0.00    -0.050 Br
ATOM     20  C   UNL     1       1.986  -2.804  -1.537  0.00  0.00    +0.110 C 
ATOM     21  C   UNL     1       2.982  -2.039  -2.050  0.00  0.00    +0.199 C 
ATOM     22  O   UNL     1       3.140  -0.759  -1.681  0.00  0.00    -0.445 OA
ATOM     23  H   UNL     1      -1.666  -3.803   0.339  0.00  0.00    +0.155 HD
ENDROOT
BRANCH  21  24
ATOM     24  N   UNL     1       3.845  -2.586  -2.967  0.00  0.00    -0.328 N 
ATOM     25  H   UNL     1       3.740  -3.511  -3.241  0.00  0.00    +0.145 HD
ATOM     26  H   UNL     1       4.561  -2.049  -3.340  0.00  0.00    +0.145 HD
ENDBRANCH  21  24
BRANCH  20  27
ATOM     27  C   UNL     1       1.847  -4.168  -1.949  0.00  0.00    +0.102 C 
ATOM     28  N   UNL     1       1.737  -5.250  -2.277  0.00  0.00    -0.191 NA
ENDBRANCH  20  27
TORSDOF 2
