REMARK  Name = ZINC52540515
REMARK  6 active torsions:
REMARK  status: ('A' for Active; 'I' for Inactive)
REMARK    1  A    between atoms: C_1  and  N_2
REMARK    2  A    between atoms: N_2  and  C_3
REMARK    3  A    between atoms: N_2  and  C_15
REMARK    4  A    between atoms: C_3  and  C_4
REMARK    5  A    between atoms: C_5  and  C_13
REMARK    6  A    between atoms: C_13  and  N_14
REMARK                            x       y       z     vdW  Elec       q    Type
REMARK                         _______ _______ _______ _____ _____    ______ ____
ROOT
ATOM      1  C   UNL     1      -1.338  -1.146   1.568  0.00  0.00    +0.125 A 
ATOM      2  C   UNL     1      -2.061  -2.224   1.233  0.00  0.00    -0.015 A 
ATOM      3  C   UNL     1      -3.353  -2.077   1.913  0.00  0.00    +0.022 A 
ATOM      4  C   UNL     1      -4.517  -2.843   1.970  0.00  0.00    +0.012 A 
ATOM      5  C   UNL     1      -5.576  -2.411   2.719  0.00  0.00    +0.001 A 
ATOM      6  C   UNL     1      -5.500  -1.216   3.419  0.00  0.00    +0.004 A 
ATOM      7  C   UNL     1      -4.359  -0.445   3.374  0.00  0.00    +0.047 A 
ATOM      8  C   UNL     1      -3.270  -0.866   2.620  0.00  0.00    +0.135 A 
ATOM      9  O   UNL     1      -2.047  -0.350   2.387  0.00  0.00    -0.458 OA
ENDROOT
BRANCH   1  10
ATOM     10  C   UNL     1       0.067  -0.870   1.099  0.00  0.00    +0.179 C 
BRANCH  10  12
ATOM     11  C   UNL     1       0.074  -0.587  -1.423  0.00  0.00    +0.129 C 
ATOM     12  N   UNL     1       0.026  -0.002  -0.081  0.00  0.00    -0.326 N 
BRANCH  12  13
ATOM     13  C   UNL     1      -0.059   1.385   0.074  0.00  0.00    +0.030 A 
ATOM     14  C   UNL     1       0.017   1.949   1.341  0.00  0.00    +0.026 A 
ATOM     15  C   UNL     1      -0.067   3.320   1.492  0.00  0.00    +0.040 A 
ATOM     16  C   UNL     1      -0.226   4.131   0.381  0.00  0.00    +0.124 A 
ATOM     17  C   UNL     1      -0.302   3.571  -0.883  0.00  0.00    +0.040 A 
ATOM     18  C   UNL     1      -0.213   2.201  -1.039  0.00  0.00    +0.026 A 
ATOM     19  F   UNL     1      -0.308   5.471   0.531  0.00  0.00    -0.205 F 
ENDBRANCH  12  13
ENDBRANCH  10  12
ENDBRANCH   1  10
BRANCH   2  20
ATOM     20  C   UNL     1      -1.632  -3.359   0.339  0.00  0.00    -0.046 C 
BRANCH  20  21
ATOM     21  N   UNL     1      -0.888  -4.350   1.129  0.00  0.00    +0.381 N 
ATOM     22  H   UNL     1      -0.073  -3.914   1.534  0.00  0.00    -0.090 HD
ATOM     23  H   UNL     1      -1.480  -4.706   1.865  0.00  0.00    -0.090 HD
ATOM     24  H   UNL     1      -0.601  -5.110   0.530  0.00  0.00    -0.090 HD
ENDBRANCH  20  21
ENDBRANCH   2  20
TORSDOF 5
