REMARK  Name = ZINC61645048
REMARK  10 active torsions:
REMARK  status: ('A' for Active; 'I' for Inactive)
REMARK    1  A    between atoms: C_1  and  N_2
REMARK    2  A    between atoms: N_2  and  C_3
REMARK    3  A    between atoms: N_2  and  C_4
REMARK    4  A    between atoms: C_4  and  C_5
REMARK    5  A    between atoms: C_11  and  C_13
REMARK    6  A    between atoms: C_13  and  C_15
REMARK    7  A    between atoms: C_13  and  N_21
REMARK    8  A    between atoms: C_15  and  C_16
REMARK    9  A    between atoms: C_16  and  S_17
REMARK   10  A    between atoms: S_17  and  C_20
REMARK                            x       y       z     vdW  Elec       q    Type
REMARK                         _______ _______ _______ _____ _____    ______ ____
ROOT
ATOM      1  C   UNL     1      -1.917  -0.198  -1.275  0.00  0.00    +0.059 C 
ATOM      2  C   UNL     1      -3.380  -0.680  -1.377  0.00  0.00    +0.022 C 
ATOM      3  C   UNL     1      -3.487  -1.154  -2.851  0.00  0.00    +0.021 C 
ATOM      4  C   UNL     1      -2.078  -1.749  -3.090  0.00  0.00    +0.108 C 
ATOM      5  N   UNL     1      -1.160  -0.860  -2.348  0.00  0.00    -0.302 N 
ATOM      6  C   UNL     1       0.150  -0.683  -2.609  0.00  0.00    +0.201 C 
ATOM      7  O   UNL     1       0.787   0.139  -1.985  0.00  0.00    -0.277 OA
ENDROOT
BRANCH   1   8
ATOM      8  C   UNL     1      -1.336  -0.585   0.086  0.00  0.00    -0.057 C 
BRANCH   8  10
ATOM      9  C   UNL     1      -3.368  -0.094   1.263  0.00  0.00    -0.097 C 
ATOM     10  N   UNL     1      -1.945   0.247   1.133  0.00  0.00    +0.377 N 
ATOM     11  C   UNL     1      -1.264   0.002   2.411  0.00  0.00    -0.097 C 
ATOM     12  H   UNL     1      -1.854   1.221   0.884  0.00  0.00    -0.083 HD
ENDBRANCH   8  10
ENDBRANCH   1   8
BRANCH   6  13
ATOM     13  C   UNL     1       0.824  -1.506  -3.676  0.00  0.00    +0.014 C 
BRANCH  13  14
ATOM     14  N   UNL     1       2.277  -1.495  -3.458  0.00  0.00    +0.386 N 
ATOM     15  H   UNL     1       2.616  -0.546  -3.502  0.00  0.00    -0.089 HD
ATOM     16  H   UNL     1       2.484  -1.886  -2.551  0.00  0.00    -0.089 HD
ATOM     17  H   UNL     1       2.728  -2.047  -4.173  0.00  0.00    -0.089 HD
ENDBRANCH  13  14
BRANCH  13  18
ATOM     18  C   UNL     1       0.509  -0.915  -5.051  0.00  0.00    +0.015 C 
BRANCH  18  19
ATOM     19  C   UNL     1       1.089  -1.820  -6.140  0.00  0.00    +0.164 C 
BRANCH  19  20
ATOM     20  S   UNL     1       0.716  -1.118  -7.771  0.00  0.00    -0.034 S 
ATOM     21  O   UNL     1      -0.692  -1.147  -7.962  0.00  0.00    -0.175 OA
ATOM     22  O   UNL     1       1.406   0.118  -7.897  0.00  0.00    -0.175 OA
ATOM     23  C   UNL     1       1.472  -2.316  -8.905  0.00  0.00    +0.194 C 
ENDBRANCH  19  20
ENDBRANCH  18  19
ENDBRANCH  13  18
ENDBRANCH   6  13
TORSDOF 7
