REMARK  Name = ZINC58848074
REMARK  6 active torsions:
REMARK  status: ('A' for Active; 'I' for Inactive)
REMARK    1  A    between atoms: C_1  and  C_2
REMARK    2  A    between atoms: C_7  and  N_8
REMARK    3  A    between atoms: N_8  and  S_9
REMARK    4  A    between atoms: S_9  and  C_12
REMARK    5  A    between atoms: C_25  and  C_28
REMARK    6  A    between atoms: C_31  and  N_34
REMARK                            x       y       z     vdW  Elec       q    Type
REMARK                         _______ _______ _______ _____ _____    ______ ____
ROOT
ATOM      1  C   UNL     1       2.500  -0.639   3.444  0.00  0.00    +0.109 A 
ATOM      2  C   UNL     1       3.115  -1.708   2.817  0.00  0.00    +0.030 A 
ATOM      3  C   UNL     1       4.476  -1.678   2.591  0.00  0.00    +0.025 A 
ATOM      4  C   UNL     1       5.227  -0.578   2.990  0.00  0.00    +0.031 A 
ATOM      5  C   UNL     1       4.610   0.500   3.608  0.00  0.00    -0.018 A 
ATOM      6  C   UNL     1       3.241   0.458   3.832  0.00  0.00    +0.034 A 
ATOM      7  C   UNL     1       5.375   1.714   4.014  0.00  0.00    +0.049 C 
ATOM      8  C   UNL     1       5.619   1.760   5.501  0.00  0.00    -0.023 C 
ATOM      9  C   UNL     1       6.797   2.275   5.750  0.00  0.00    -0.030 C 
ATOM     10  C   UNL     1       7.510   2.641   4.467  0.00  0.00    +0.033 C 
ATOM     11  C   UNL     1       6.761   1.830   3.384  0.00  0.00    +0.029 C 
ATOM     12  C   UNL     1       7.468   0.501   3.215  0.00  0.00    +0.105 C 
ATOM     13  N   UNL     1       6.600  -0.571   2.773  0.00  0.00    -0.336 N 
ATOM     14  H   UNL     1       6.999  -1.332   2.324  0.00  0.00    +0.147 HD
ENDROOT
BRANCH  12  15
ATOM     15  C   UNL     1       8.106   0.128   4.529  0.00  0.00    -0.027 A 
ATOM     16  C   UNL     1       7.341  -0.438   5.532  0.00  0.00    +0.008 A 
ATOM     17  C   UNL     1       7.926  -0.780   6.737  0.00  0.00    +0.033 A 
ATOM     18  C   UNL     1       9.276  -0.557   6.938  0.00  0.00    +0.126 A 
ATOM     19  C   UNL     1      10.040   0.008   5.934  0.00  0.00    +0.033 A 
ATOM     20  C   UNL     1       9.456   0.346   4.728  0.00  0.00    +0.008 A 
BRANCH  18  21
ATOM     21  N   UNL     1       9.902  -0.922   8.229  0.00  0.00    +0.056 N 
ATOM     22  O   UNL     1       9.233  -1.416   9.107  0.00  0.00    -0.126 OA
ATOM     23  O   UNL     1      11.082  -0.728   8.405  0.00  0.00    -0.126 OA
ENDBRANCH  18  21
ENDBRANCH  12  15
BRANCH   1  24
ATOM     24  S   UNL     1       0.764  -0.676   3.742  0.00  0.00    +0.072 S 
ATOM     25  O   UNL     1       0.519   0.208   4.827  0.00  0.00    -0.150 OA
ATOM     26  O   UNL     1       0.387  -2.046   3.776  0.00  0.00    -0.150 OA
BRANCH  24  27
ATOM     27  N   UNL     1       0.025  -0.015   2.416  0.00  0.00    -0.216 N 
ATOM     28  H   UNL     1      -0.522   0.780   2.511  0.00  0.00    +0.174 HD
BRANCH  27  35
ATOM     29  C   UNL     1       0.153   1.691   0.143  0.00  0.00    +0.046 C 
ATOM     30  C   UNL     1       0.258   0.193   0.022  0.00  0.00    -0.027 A 
ATOM     31  C   UNL     1       0.427  -0.390  -1.219  0.00  0.00    +0.025 A 
ATOM     32  C   UNL     1       0.523  -1.766  -1.331  0.00  0.00    +0.041 A 
ATOM     33  C   UNL     1       0.451  -2.562  -0.200  0.00  0.00    +0.022 A 
ATOM     34  C   UNL     1       0.282  -1.984   1.042  0.00  0.00    +0.026 A 
ATOM     35  C   UNL     1       0.190  -0.603   1.158  0.00  0.00    +0.051 A 
ATOM     36 CL   UNL     1       0.736  -2.495  -2.891  0.00  0.00    -0.084 Cl
ENDBRANCH  27  35
ENDBRANCH  24  27
ENDBRANCH   1  24
TORSDOF 5
