REMARK  Name = ZINC09489952
REMARK  6 active torsions:
REMARK  status: ('A' for Active; 'I' for Inactive)
REMARK    1  A    between atoms: C_1  and  C_2
REMARK    2  A    between atoms: C_9  and  N_13
REMARK    3  A    between atoms: C_10  and  C_11
REMARK    4  A    between atoms: C_14  and  C_16
REMARK    5  A    between atoms: C_21  and  C_34
REMARK    6  A    between atoms: C_24  and  C_27
REMARK                            x       y       z     vdW  Elec       q    Type
REMARK                         _______ _______ _______ _____ _____    ______ ____
ROOT
ATOM      1  C   UNL     1       1.893  -7.471   3.817  0.00  0.00    +0.149 A 
ATOM      2  C   UNL     1       2.877  -7.871   4.750  0.00  0.00    +0.078 A 
ATOM      3  C   UNL     1       2.744  -9.199   4.938  0.00  0.00    +0.119 A 
ATOM      4  N   UNL     1       1.715  -9.638   4.154  0.00  0.00    -0.238 N 
ATOM      5  N   UNL     1       1.197  -8.539   3.470  0.00  0.00    -0.164 NA
ATOM      6  C   UNL     1       1.279 -11.037   4.092  0.00  0.00    +0.215 C 
ATOM      7  C   UNL     1       2.408 -11.931   4.618  0.00  0.00    +0.063 C 
ATOM      8  C   UNL     1       2.907 -11.403   5.968  0.00  0.00    +0.104 C 
ATOM      9  N   UNL     1       3.476 -10.056   5.763  0.00  0.00    -0.322 N 
ATOM     10  H   UNL     1       4.309  -9.783   6.178  0.00  0.00    +0.148 HD
ENDROOT
BRANCH   8  11
ATOM     11  C   UNL     1       1.757 -11.329   6.939  0.00  0.00    -0.027 A 
ATOM     12  C   UNL     1       0.874 -10.266   6.884  0.00  0.00    +0.007 A 
ATOM     13  C   UNL     1      -0.181 -10.197   7.774  0.00  0.00    +0.020 A 
ATOM     14  C   UNL     1      -0.353 -11.192   8.720  0.00  0.00    +0.041 A 
ATOM     15  C   UNL     1       0.530 -12.255   8.774  0.00  0.00    +0.020 A 
ATOM     16  C   UNL     1       1.581 -12.326   7.880  0.00  0.00    +0.007 A 
ATOM     17 CL   UNL     1      -1.678 -11.106   9.839  0.00  0.00    -0.084 Cl
ENDBRANCH   8  11
BRANCH   1  19
ATOM     18  N   UNL     1       0.695  -5.848   2.432  0.00  0.00    -0.274 N 
ATOM     19  C   UNL     1       1.677  -6.097   3.321  0.00  0.00    +0.269 C 
ATOM     20  O   UNL     1       2.384  -5.190   3.716  0.00  0.00    -0.268 OA
ATOM     21  H   UNL     1       0.131  -6.571   2.118  0.00  0.00    +0.156 HD
BRANCH  18  29
ATOM     22  C   UNL     1      -0.019   1.526   0.010  0.00  0.00    +0.008 C 
ATOM     23  C   UNL     1       0.002  -0.004   0.002  0.00  0.00    -0.009 C 
ATOM     24  C   UNL     1      -1.434  -0.537   0.019  0.00  0.00    +0.008 C 
ATOM     25  C   UNL     1      -1.433  -2.045  -0.237  0.00  0.00    +0.037 C 
ATOM     26  C   UNL     1      -0.464  -2.704   0.734  0.00  0.00    -0.018 A 
ATOM     27  C   UNL     1       0.485  -1.986   1.374  0.00  0.00    -0.004 A 
ATOM     28  S   UNL     1       1.343  -3.168   2.372  0.00  0.00    -0.077 S 
ATOM     29  C   UNL     1       0.492  -4.557   1.967  0.00  0.00    +0.090 A 
ATOM     30  C   UNL     1      -0.459  -4.119   1.060  0.00  0.00    +0.084 A 
ATOM     31  C   UNL     1       0.739  -0.515   1.248  0.00  0.00    +0.046 C 
BRANCH  30  32
ATOM     32  C   UNL     1      -1.399  -5.024   0.469  0.00  0.00    +0.102 C 
ATOM     33  N   UNL     1      -2.144  -5.741  -0.001  0.00  0.00    -0.191 NA
ENDBRANCH  30  32
ENDBRANCH  18  29
ENDBRANCH   1  19
BRANCH   6  34
ATOM     34  C   UNL     1       0.958 -11.410   2.644  0.00  0.00    +0.412 C 
ATOM     35  F   UNL     1       2.102 -11.244   1.855  0.00  0.00    -0.168 F 
ATOM     36  F   UNL     1       0.543 -12.745   2.587  0.00  0.00    -0.168 F 
ATOM     37  F   UNL     1      -0.063 -10.583   2.164  0.00  0.00    -0.168 F 
ENDBRANCH   6  34
TORSDOF 5
