REMARK  Name = ZINC36221355
REMARK  5 active torsions:
REMARK  status: ('A' for Active; 'I' for Inactive)
REMARK    1  A    between atoms: C_1  and  C_2
REMARK    2  A    between atoms: C_6  and  N_9
REMARK    3  A    between atoms: C_7  and  C_8
REMARK    4  A    between atoms: N_12  and  C_15
REMARK    5  A    between atoms: N_21  and  N_22
REMARK                            x       y       z     vdW  Elec       q    Type
REMARK                         _______ _______ _______ _____ _____    ______ ____
ROOT
ATOM      1  N   UNL     1       0.035  -2.797   2.390  0.00  0.00    -0.327 N 
ATOM      2  C   UNL     1      -1.221  -3.212   3.030  0.00  0.00    +0.124 C 
ATOM      3  C   UNL     1      -1.178  -4.729   3.255  0.00  0.00    +0.124 C 
ATOM      4  N   UNL     1       0.094  -5.071   3.905  0.00  0.00    -0.326 N 
ATOM      5  C   UNL     1       1.351  -4.656   3.265  0.00  0.00    +0.124 C 
ATOM      6  C   UNL     1       1.308  -3.144   3.038  0.00  0.00    +0.124 C 
ENDROOT
BRANCH   4   7
ATOM      7  C   UNL     1       0.110  -5.780   5.113  0.00  0.00    +0.046 A 
ATOM      8  C   UNL     1      -1.082  -6.073   5.774  0.00  0.00    +0.028 A 
ATOM      9  C   UNL     1      -1.020  -6.775   6.964  0.00  0.00    +0.044 A 
ATOM     10  C   UNL     1       0.221  -7.164   7.457  0.00  0.00    +0.110 A 
ATOM     11  N   UNL     1       1.333  -6.869   6.803  0.00  0.00    -0.347 N 
ATOM     12  C   UNL     1       1.310  -6.205   5.662  0.00  0.00    +0.107 A 
ATOM     13  N   UNL     1       0.295  -7.872   8.655  0.00  0.00    -0.269 N 
ATOM     14  H   UNL     1      -0.516  -8.091   9.140  0.00  0.00    +0.167 HD
ATOM     15  H   UNL     1       2.186  -7.151   7.168  0.00  0.00    +0.167 HD
BRANCH  13  16
ATOM     16  N   UNL     1       1.510  -8.257   9.147  0.00  0.00    -0.255 NA
ATOM     17  H   UNL     1       1.405  -8.759  10.016  0.00  0.00    +0.140 HD
ATOM     18  H   UNL     1       2.015  -8.809   8.470  0.00  0.00    +0.140 HD
ENDBRANCH  13  16
ENDBRANCH   4   7
BRANCH   1  24
ATOM     19  C   UNL     1      -0.067   1.502   0.010  0.00  0.00    +0.044 C 
ATOM     20  C   UNL     1      -0.030  -0.005   0.002  0.00  0.00    -0.046 A 
ATOM     21  C   UNL     1      -0.010  -0.689  -1.200  0.00  0.00    +0.004 A 
ATOM     22  C   UNL     1       0.024  -2.071  -1.212  0.00  0.00    +0.002 A 
ATOM     23  C   UNL     1       0.039  -2.773  -0.023  0.00  0.00    +0.023 A 
ATOM     24  C   UNL     1       0.020  -2.090   1.186  0.00  0.00    +0.033 A 
ATOM     25  C   UNL     1      -0.009  -0.701   1.194  0.00  0.00    -0.027 A 
ATOM     26  C   UNL     1      -0.024   0.045   2.504  0.00  0.00    +0.046 C 
ENDBRANCH   1  24
TORSDOF 3
