REMARK  Name = ZINC30499092
REMARK  11 active torsions:
REMARK  status: ('A' for Active; 'I' for Inactive)
REMARK    1  A    between atoms: C_1  and  C_2
REMARK    2  A    between atoms: C_2  and  C_3
REMARK    3  A    between atoms: N_5  and  C_6
REMARK    4  A    between atoms: C_9  and  C_12
REMARK    5  A    between atoms: C_12  and  C_14
REMARK    6  A    between atoms: C_12  and  N_15
REMARK    7  A    between atoms: N_15  and  C_16
REMARK    8  A    between atoms: C_16  and  C_18
REMARK    9  A    between atoms: C_16  and  C_19
REMARK   10  A    between atoms: N_21  and  C_22
REMARK   11  A    between atoms: C_27  and  C_28
REMARK                            x       y       z     vdW  Elec       q    Type
REMARK                         _______ _______ _______ _____ _____    ______ ____
ROOT
ATOM      1  N   UNL     1       0.003  -1.162   5.764  0.00  0.00    +0.391 N 
ATOM      2  H   UNL     1       0.574  -2.033   5.411  0.00  0.00    -0.084 HD
ATOM      3  H   UNL     1      -1.040  -1.456   5.949  0.00  0.00    -0.084 HD
ENDROOT
BRANCH   1   4
ATOM      4  C   UNL     1       0.599  -0.659   7.010  0.00  0.00    -0.043 C 
ATOM      5  C   UNL     1      -0.489  -0.016   7.872  0.00  0.00    -0.009 C 
BRANCH   4   9
ATOM      6  C   UNL     1       2.379  -3.903   9.148  0.00  0.00    +0.033 A 
ATOM      7  C   UNL     1       3.017  -2.671   9.096  0.00  0.00    +0.023 A 
ATOM      8  C   UNL     1       2.439  -1.625   8.404  0.00  0.00    +0.004 A 
ATOM      9  C   UNL     1       1.227  -1.803   7.763  0.00  0.00    -0.062 A 
ATOM     10  C   UNL     1       0.586  -3.028   7.818  0.00  0.00    +0.004 A 
ATOM     11  C   UNL     1       1.161  -4.080   8.504  0.00  0.00    +0.023 A 
BRANCH   6  14
ATOM     12  C   UNL     1       3.664  -4.726  10.973  0.00  0.00    +0.217 C 
ATOM     13  O   UNL     1       3.708  -3.605  11.434  0.00  0.00    -0.275 OA
ATOM     14  N   UNL     1       2.962  -4.965   9.848  0.00  0.00    -0.286 N 
ATOM     15  H   UNL     1       2.846  -5.996   9.481  0.00  0.00    +0.155 HD
BRANCH  12  17
ATOM     16  C   UNL     1       5.106  -5.315  12.903  0.00  0.00    +0.013 C 
ATOM     17  C   UNL     1       4.395  -5.852  11.659  0.00  0.00    +0.093 C 
ENDBRANCH  12  17
ENDBRANCH   6  14
ENDBRANCH   4   9
ENDBRANCH   1   4
BRANCH   1  18
ATOM     18  C   UNL     1       0.023  -0.130   4.718  0.00  0.00    +0.014 C 
ATOM     19  C   UNL     1      -1.016  -0.471   3.647  0.00  0.00    -0.004 C 
BRANCH  18  20
ATOM     20  C   UNL     1       1.392  -0.076   4.091  0.00  0.00    +0.203 C 
ATOM     21  O   UNL     1       2.266  -0.824   4.477  0.00  0.00    -0.277 OA
ATOM     22  N   UNL     1       1.645   0.802   3.101  0.00  0.00    -0.287 N 
ATOM     23  H   UNL     1       0.877   1.530   2.801  0.00  0.00    +0.155 HD
BRANCH  22  24
ATOM     24  C   UNL     1       2.886   0.788   2.454  0.00  0.00    +0.036 A 
ATOM     25  C   UNL     1       4.038   0.478   3.165  0.00  0.00    +0.023 A 
ATOM     26  C   UNL     1       5.261   0.465   2.524  0.00  0.00    +0.002 A 
ATOM     27  C   UNL     1       5.339   0.759   1.175  0.00  0.00    +0.000 A 
ATOM     28  C   UNL     1       4.194   1.063   0.463  0.00  0.00    +0.005 A 
ATOM     29  C   UNL     1       2.968   1.083   1.100  0.00  0.00    -0.029 A 
ATOM     30  C   UNL     1       1.721   1.420   0.324  0.00  0.00    +0.045 C 
ENDBRANCH  22  24
ENDBRANCH  18  20
ENDBRANCH   1  18
TORSDOF 7
