REMARK  Name = ZINC14927517
REMARK  12 active torsions:
REMARK  status: ('A' for Active; 'I' for Inactive)
REMARK    1  A    between atoms: C_1  and  C_2
REMARK    2  A    between atoms: C_5  and  C_30
REMARK    3  A    between atoms: N_8  and  S_10
REMARK    4  A    between atoms: S_10  and  C_13
REMARK    5  A    between atoms: C_16  and  N_19
REMARK    6  A    between atoms: C_20  and  C_22
REMARK    7  A    between atoms: C_22  and  N_61
REMARK    8  A    between atoms: C_23  and  C_24
REMARK    9  A    between atoms: C_23  and  N_61
REMARK   10  A    between atoms: C_27  and  C_28
REMARK   11  A    between atoms: C_27  and  C_29
REMARK   12  A    between atoms: C_27  and  N_61
REMARK                            x       y       z     vdW  Elec       q    Type
REMARK                         _______ _______ _______ _____ _____    ______ ____
ROOT
ATOM      1  C   UNL     1      -3.895   3.433   0.146  0.00  0.00    +0.106 A 
ATOM      2  C   UNL     1      -4.445   2.939  -1.023  0.00  0.00    +0.030 A 
ATOM      3  C   UNL     1      -5.601   2.186  -0.979  0.00  0.00    +0.025 A 
ATOM      4  C   UNL     1      -6.218   1.933   0.239  0.00  0.00    +0.033 A 
ATOM      5  C   UNL     1      -5.666   2.434   1.411  0.00  0.00    +0.025 A 
ATOM      6  C   UNL     1      -4.506   3.183   1.361  0.00  0.00    +0.030 A 
ENDROOT
BRANCH   4   7
ATOM      7  N   UNL     1      -7.392   1.173   0.286  0.00  0.00    -0.287 N 
ATOM      8  C   UNL     1      -8.329   1.438   1.219  0.00  0.00    +0.201 C 
ATOM      9  O   UNL     1      -8.197   2.391   1.957  0.00  0.00    -0.278 OA
ATOM     10  H   UNL     1      -7.532   0.457  -0.352  0.00  0.00    +0.155 HD
BRANCH   8  11
ATOM     11  C   UNL     1      -9.540   0.550   1.344  0.00  0.00    +0.020 C 
BRANCH  11  12
ATOM     12  N   UNL     1     -10.415   1.087   2.406  0.00  0.00    +0.393 N 
ATOM     13  H   UNL     1     -10.503   2.103   2.284  0.00  0.00    -0.080 HD
BRANCH  12  14
ATOM     14  C   UNL     1     -11.757   0.475   2.314  0.00  0.00    -0.074 C 
ATOM     15  C   UNL     1     -12.471   1.038   1.083  0.00  0.00    -0.013 C 
ATOM     16  C   UNL     1     -11.645  -1.046   2.187  0.00  0.00    -0.013 C 
ENDBRANCH  12  14
BRANCH  12  17
ATOM     17  C   UNL     1      -9.825   0.813   3.734  0.00  0.00    +0.019 C 
BRANCH  17  18
ATOM     18  C   UNL     1     -10.615   1.556   4.780  0.00  0.00    +0.194 C 
ATOM     19  O   UNL     1     -11.573   2.226   4.455  0.00  0.00    -0.278 OA
ATOM     20  N   UNL     1     -10.257   1.478   6.077  0.00  0.00    -0.331 N 
ATOM     21  H   UNL     1      -9.491   0.943   6.337  0.00  0.00    +0.145 HD
ATOM     22  H   UNL     1     -10.765   1.957   6.750  0.00  0.00    +0.145 HD
ENDBRANCH  17  18
ENDBRANCH  12  17
ENDBRANCH  11  12
ENDBRANCH   8  11
ENDBRANCH   4   7
BRANCH   1  23
ATOM     23  S   UNL     1      -2.416   4.388   0.086  0.00  0.00    +0.061 S 
ATOM     24  O   UNL     1      -2.407   5.197   1.255  0.00  0.00    -0.153 OA
ATOM     25  O   UNL     1      -2.340   4.938  -1.222  0.00  0.00    -0.153 OA
BRANCH  23  31
ATOM     26  C   UNL     1      -1.965   0.684  -0.755  0.00  0.00    +0.009 C 
ATOM     27  C   UNL     1      -0.527   1.205  -0.787  0.00  0.00    +0.002 C 
ATOM     28  C   UNL     1       0.174   0.851   0.526  0.00  0.00    +0.009 C 
ATOM     29  C   UNL     1      -0.594   1.465   1.698  0.00  0.00    +0.002 C 
ATOM     30  C   UNL     1      -0.606   2.990   1.553  0.00  0.00    +0.112 C 
ATOM     31  N   UNL     1      -1.146   3.335   0.231  0.00  0.00    -0.176 NA
ATOM     32  C   UNL     1      -0.538   2.727  -0.961  0.00  0.00    +0.112 C 
ATOM     33  C   UNL     1       0.089   1.083   3.013  0.00  0.00    +0.009 C 
ENDBRANCH  23  31
ENDBRANCH   1  23
TORSDOF 8
