REMARK  Name = ZINC63270623
REMARK  7 active torsions:
REMARK  status: ('A' for Active; 'I' for Inactive)
REMARK    1  A    between atoms: C_1  and  C_2
REMARK    2  A    between atoms: C_5  and  O_34
REMARK    3  A    between atoms: C_13  and  C_15
REMARK    4  A    between atoms: C_15  and  C_16
REMARK    5  A    between atoms: C_30  and  C_32
REMARK    6  A    between atoms: C_30  and  C_33
REMARK    7  A    between atoms: O_34  and  C_35
REMARK                            x       y       z     vdW  Elec       q    Type
REMARK                         _______ _______ _______ _____ _____    ______ ____
ROOT
ATOM      1  C   UNL     1      -0.019   1.526   0.010  0.00  0.00    +0.013 C 
ATOM      2  C   UNL     1       0.002  -0.004   0.002  0.00  0.00    +0.037 C 
ATOM      3  C   UNL     1      -1.413  -0.524   0.009  0.00  0.00    +0.041 A 
ATOM      4  C   UNL     1      -2.117  -0.548  -1.191  0.00  0.00    +0.131 A 
ATOM      5  C   UNL     1      -3.420  -1.010  -1.225  0.00  0.00    +0.092 A 
ATOM      6  C   UNL     1      -4.035  -1.454  -0.059  0.00  0.00    +0.131 A 
ATOM      7  C   UNL     1      -3.335  -1.437   1.132  0.00  0.00    +0.037 A 
ATOM      8  C   UNL     1      -2.021  -0.973   1.166  0.00  0.00    +0.145 A 
ATOM      9  O   UNL     1      -1.367  -0.990   2.360  0.00  0.00    -0.425 OA
ATOM     10  C   UNL     1      -0.180  -0.355   2.429  0.00  0.00    +0.317 C 
ATOM     11  O   UNL     1       0.130   0.305   3.393  0.00  0.00    -0.250 OA
ATOM     12  C   UNL     1       0.746  -0.510   1.242  0.00  0.00    +0.114 C 
ATOM     13  C   UNL     1      -3.959  -1.920   2.418  0.00  0.00    +0.046 C 
ATOM     14  C   UNL     1      -5.482  -1.963   2.267  0.00  0.00    +0.052 C 
ATOM     15  C   UNL     1      -5.816  -2.681   0.953  0.00  0.00    +0.105 C 
ATOM     16  O   UNL     1      -5.319  -1.893  -0.130  0.00  0.00    -0.486 OA
ATOM     17  C   UNL     1      -7.332  -2.839   0.823  0.00  0.00    +0.055 C 
ATOM     18  C   UNL     1      -5.150  -4.059   0.935  0.00  0.00    +0.055 C 
ENDROOT
BRANCH   4  19
ATOM     19  O   UNL     1      -1.522  -0.115  -2.333  0.00  0.00    -0.495 OA
ATOM     20  C   UNL     1      -2.301  -0.166  -3.530  0.00  0.00    +0.277 C 
ENDBRANCH   4  19
BRANCH  12  21
ATOM     21  C   UNL     1       1.116  -1.984   1.060  0.00  0.00    +0.111 C 
BRANCH  21  22
ATOM     22  C   UNL     1       1.953  -2.439   2.227  0.00  0.00    +0.217 C 
ATOM     23  O   UNL     1       2.227  -1.662   3.117  0.00  0.00    -0.276 OA
ATOM     24  N   UNL     1       2.397  -3.710   2.283  0.00  0.00    -0.295 N 
ATOM     25  C   UNL     1       3.210  -4.175   3.417  0.00  0.00    +0.114 C 
ATOM     26  C   UNL     1       2.435  -5.258   4.179  0.00  0.00    +0.074 C 
ATOM     27  C   UNL     1       1.839  -6.220   3.184  0.00  0.00    +0.039 A 
ATOM     28  N   UNL     1       1.370  -7.479   3.406  0.00  0.00    -0.349 N 
ATOM     29  C   UNL     1       0.929  -7.954   2.219  0.00  0.00    +0.171 A 
ATOM     30  N   UNL     1       1.116  -7.038   1.304  0.00  0.00    -0.348 N 
ATOM     31  C   UNL     1       1.674  -5.965   1.868  0.00  0.00    +0.054 A 
ATOM     32  H   UNL     1       1.356  -7.947   4.256  0.00  0.00    +0.166 HD
ATOM     33  C   UNL     1       2.075  -4.670   1.211  0.00  0.00    +0.162 C 
ATOM     34  H   UNL     1       0.885  -7.124   0.366  0.00  0.00    +0.166 HD
ENDBRANCH  21  22
ENDBRANCH  12  21
TORSDOF 3
