REMARK  Name = ZINC06530519
REMARK  9 active torsions:
REMARK  status: ('A' for Active; 'I' for Inactive)
REMARK    1  A    between atoms: C_4  and  C_7
REMARK    2  A    between atoms: C_7  and  C_8
REMARK    3  A    between atoms: C_14  and  C_16
REMARK    4  A    between atoms: C_16  and  N_17
REMARK    5  A    between atoms: N_17  and  C_18
REMARK    6  A    between atoms: C_18  and  C_19
REMARK    7  A    between atoms: C_19  and  C_20
REMARK    8  A    between atoms: C_23  and  S_26
REMARK    9  A    between atoms: S_26  and  N_29
REMARK                            x       y       z     vdW  Elec       q    Type
REMARK                         _______ _______ _______ _____ _____    ______ ____
ROOT
ATOM      1  N   UNL     1       6.899  -5.469   4.930  0.00  0.00    +0.385 N 
ATOM      2  H   UNL     1       6.605  -5.309   5.882  0.00  0.00    -0.085 HD
ATOM      3  H   UNL     1       6.310  -6.172   4.509  0.00  0.00    -0.085 HD
ENDROOT
BRANCH   1   4
ATOM      4  C   UNL     1       6.791  -4.218   4.167  0.00  0.00    +0.015 C 
BRANCH   4  11
ATOM      5  C   UNL     1       4.171  -0.963   1.399  0.00  0.00    -0.004 C 
ATOM      6  C   UNL     1       3.186  -1.909   2.089  0.00  0.00    +0.023 C 
ATOM      7  C   UNL     1       3.631  -2.136   3.537  0.00  0.00    +0.108 C 
ATOM      8  N   UNL     1       5.021  -2.610   3.536  0.00  0.00    -0.303 N 
ATOM      9  C   UNL     1       6.036  -1.821   2.823  0.00  0.00    +0.108 C 
ATOM     10  C   UNL     1       5.564  -1.598   1.383  0.00  0.00    +0.023 C 
ATOM     11  C   UNL     1       5.360  -3.745   4.177  0.00  0.00    +0.199 C 
ATOM     12  O   UNL     1       4.514  -4.387   4.763  0.00  0.00    -0.278 OA
BRANCH   5  13
ATOM     13  C   UNL     1       3.711  -0.707  -0.038  0.00  0.00    +0.038 C 
BRANCH  13  17
ATOM     14  C   UNL     1      -0.017   1.378   0.010  0.00  0.00    +0.000 A 
ATOM     15  C   UNL     1       1.171   2.086   0.002  0.00  0.00    +0.000 A 
ATOM     16  C   UNL     1       2.377   1.411  -0.013  0.00  0.00    +0.003 A 
ATOM     17  C   UNL     1       2.396   0.029  -0.020  0.00  0.00    -0.047 A 
ATOM     18  C   UNL     1       1.208  -0.679  -0.012  0.00  0.00    +0.003 A 
ATOM     19  C   UNL     1       0.002  -0.004   0.002  0.00  0.00    +0.000 A 
ENDBRANCH  13  17
ENDBRANCH   5  13
ENDBRANCH   4  11
ENDBRANCH   1   4
BRANCH   1  20
ATOM     20  C   UNL     1       8.294  -5.930   4.920  0.00  0.00    -0.077 C 
BRANCH  20  21
ATOM     21  C   UNL     1       8.406  -7.232   5.715  0.00  0.00    +0.016 C 
BRANCH  21  22
ATOM     22  C   UNL     1       9.837  -7.705   5.704  0.00  0.00    -0.049 A 
ATOM     23  C   UNL     1      10.280  -8.545   4.699  0.00  0.00    +0.005 A 
ATOM     24  C   UNL     1      11.593  -8.978   4.689  0.00  0.00    +0.029 A 
ATOM     25  C   UNL     1      12.462  -8.573   5.685  0.00  0.00    +0.105 A 
ATOM     26  C   UNL     1      12.019  -7.733   6.689  0.00  0.00    +0.029 A 
ATOM     27  C   UNL     1      10.708  -7.295   6.697  0.00  0.00    +0.005 A 
BRANCH  25  28
ATOM     28  S   UNL     1      14.135  -9.126   5.673  0.00  0.00    +0.056 S 
ATOM     29  O   UNL     1      14.600  -9.043   7.013  0.00  0.00    -0.153 OA
ATOM     30  O   UNL     1      14.156 -10.340   4.934  0.00  0.00    -0.153 OA
BRANCH  28  31
ATOM     31  N   UNL     1      15.010  -8.024   4.800  0.00  0.00    -0.204 NA
ATOM     32  H   UNL     1      14.568  -7.252   4.413  0.00  0.00    +0.144 HD
ATOM     33  H   UNL     1      15.963  -8.151   4.675  0.00  0.00    +0.144 HD
ENDBRANCH  28  31
ENDBRANCH  25  28
ENDBRANCH  21  22
ENDBRANCH  20  21
ENDBRANCH   1  20
TORSDOF 9
