REMARK  Name = ZINC44136120
REMARK  14 active torsions:
REMARK  status: ('A' for Active; 'I' for Inactive)
REMARK    1  A    between atoms: C_1  and  C_2
REMARK    2  A    between atoms: C_2  and  C_3
REMARK    3  A    between atoms: C_3  and  C_4
REMARK    4  A    between atoms: C_7  and  C_12
REMARK    5  A    between atoms: N_9  and  C_11
REMARK    6  A    between atoms: N_14  and  C_15
REMARK    7  A    between atoms: C_15  and  C_17
REMARK    8  A    between atoms: C_15  and  C_33
REMARK    9  A    between atoms: C_19  and  O_32
REMARK   10  A    between atoms: C_21  and  O_31
REMARK   11  A    between atoms: C_23  and  O_30
REMARK   12  A    between atoms: C_25  and  S_28
REMARK   13  A    between atoms: S_28  and  C_29
REMARK   14  A    between atoms: C_33  and  C_35
REMARK                            x       y       z     vdW  Elec       q    Type
REMARK                         _______ _______ _______ _____ _____    ______ ____
ROOT
ATOM      1  C   UNL     1      -1.026  -4.653   5.224  0.00  0.00    +0.122 C 
ENDROOT
BRANCH   1   2
ATOM      2  C   UNL     1       0.126  -5.427   5.868  0.00  0.00    +0.172 C 
ATOM      3  C   UNL     1       0.309  -6.764   5.146  0.00  0.00    +0.176 C 
ATOM      4  C   UNL     1       1.424  -7.558   5.834  0.00  0.00    +0.177 C 
ATOM      5  C   UNL     1       1.068  -7.740   7.313  0.00  0.00    +0.184 C 
ATOM      6  C   UNL     1       0.855  -6.365   7.951  0.00  0.00    +0.207 C 
ATOM      7  O   UNL     1      -0.172  -5.667   7.245  0.00  0.00    -0.356 OA
BRANCH   6   8
ATOM      8  S   UNL     1       2.398  -5.415   7.870  0.00  0.00    -0.131 S 
ATOM      9  C   UNL     1       2.078  -3.968   8.915  0.00  0.00    +0.087 C 
ENDBRANCH   6   8
BRANCH   5  10
ATOM     10  O   UNL     1      -0.131  -8.510   7.424  0.00  0.00    -0.386 OA
ATOM     11  H   UNL     1      -0.415  -8.665   8.335  0.00  0.00    +0.210 HD
ENDBRANCH   5  10
BRANCH   4  12
ATOM     12  O   UNL     1       1.554  -8.838   5.211  0.00  0.00    -0.386 OA
ATOM     13  H   UNL     1       2.243  -9.395   5.597  0.00  0.00    +0.210 HD
ENDBRANCH   4  12
BRANCH   3  14
ATOM     14  O   UNL     1      -0.911  -7.506   5.199  0.00  0.00    -0.387 OA
ATOM     15  H   UNL     1      -0.867  -8.367   4.760  0.00  0.00    +0.210 HD
ENDBRANCH   3  14
ENDBRANCH   1   2
BRANCH   1  18
ATOM     16  C   UNL     1      -1.721  -4.215   2.930  0.00  0.00    +0.200 C 
ATOM     17  O   UNL     1      -2.874  -4.245   3.305  0.00  0.00    -0.278 OA
ATOM     18  N   UNL     1      -0.721  -4.407   3.813  0.00  0.00    -0.310 N 
ATOM     19  H   UNL     1       0.201  -4.383   3.513  0.00  0.00    +0.149 HD
BRANCH  16  22
ATOM     20  C   UNL     1      -2.429  -2.765  -0.363  0.00  0.00    -0.029 C 
ATOM     21  C   UNL     1      -1.887  -2.552   1.075  0.00  0.00    -0.005 C 
ATOM     22  C   UNL     1      -1.407  -3.962   1.478  0.00  0.00    +0.019 C 
ATOM     23  N   UNL     1      -2.128  -4.928   0.630  0.00  0.00    +0.386 N 
ATOM     24  C   UNL     1      -3.045  -4.182  -0.259  0.00  0.00    -0.075 C 
ATOM     25  C   UNL     1      -2.900  -5.849   1.475  0.00  0.00    -0.095 C 
ATOM     26  H   UNL     1      -1.468  -5.451   0.074  0.00  0.00    -0.081 HD
BRANCH  20  27
ATOM     27  C   UNL     1      -3.498  -1.726  -0.705  0.00  0.00    +0.001 C 
BRANCH  27  29
ATOM     28  C   UNL     1      -3.915   0.691  -1.187  0.00  0.00    +0.004 C 
ATOM     29  C   UNL     1      -2.845  -0.349  -0.845  0.00  0.00    -0.003 C 
ENDBRANCH  27  29
ENDBRANCH  20  27
ENDBRANCH  16  22
ENDBRANCH   1  18
BRANCH   1  30
ATOM     30  C   UNL     1      -1.210  -3.317   5.947  0.00  0.00    +0.100 C 
ATOM     31  C   UNL     1      -2.362  -2.543   5.303  0.00  0.00    +0.026 C 
ATOM     32 CL   UNL     1      -1.586  -3.619   7.684  0.00  0.00    -0.120 Cl
ENDBRANCH   1  30
TORSDOF 10
