REMARK  Name = ZINC27204622
REMARK  5 active torsions:
REMARK  status: ('A' for Active; 'I' for Inactive)
REMARK    1  A    between atoms: C_3  and  C_27
REMARK    2  A    between atoms: C_6  and  C_7
REMARK    3  A    between atoms: C_9  and  C_20
REMARK    4  A    between atoms: C_14  and  O_19
REMARK    5  A    between atoms: C_23  and  O_26
REMARK                            x       y       z     vdW  Elec       q    Type
REMARK                         _______ _______ _______ _____ _____    ______ ____
ROOT
ATOM      1  C   UNL     1       0.160   0.161   0.011  0.00  0.00    +0.221 C 
ATOM      2  C   UNL     1       0.746  -0.490  -1.253  0.00  0.00    +0.126 C 
ATOM      3  S   UNL     1       2.543  -0.203  -1.213  0.00  0.00    -0.109 S 
ATOM      4  C   UNL     1       2.652   1.487  -0.709  0.00  0.00    +0.054 A 
ATOM      5  C   UNL     1       3.867   2.149  -0.826  0.00  0.00    +0.063 A 
ATOM      6  C   UNL     1       3.981   3.471  -0.429  0.00  0.00    +0.118 A 
ATOM      7  C   UNL     1       2.874   4.130   0.087  0.00  0.00    +0.049 A 
ATOM      8  C   UNL     1       1.666   3.474   0.200  0.00  0.00    +0.050 A 
ATOM      9  C   UNL     1       1.538   2.146  -0.201  0.00  0.00    +0.135 A 
ATOM     10  O   UNL     1       0.320   1.568  -0.074  0.00  0.00    -0.482 OA
ENDROOT
BRANCH   1  16
ATOM     11  C   UNL     1      -2.229   0.531  -0.636  0.00  0.00    +0.008 A 
ATOM     12  C   UNL     1      -3.572   0.225  -0.548  0.00  0.00    +0.008 A 
ATOM     13  C   UNL     1      -3.999  -0.789   0.309  0.00  0.00    -0.022 A 
ATOM     14  C   UNL     1      -3.064  -1.492   1.069  0.00  0.00    +0.008 A 
ATOM     15  C   UNL     1      -1.723  -1.180   0.969  0.00  0.00    +0.008 A 
ATOM     16  C   UNL     1      -1.306  -0.174   0.116  0.00  0.00    -0.006 A 
BRANCH  13  17
ATOM     17  C   UNL     1      -5.436  -1.117   0.412  0.00  0.00    -0.048 C 
ATOM     18  C   UNL     1      -6.051  -0.906   1.556  0.00  0.00    -0.042 C 
ATOM     19  C   UNL     1      -7.505  -1.210   1.772  0.00  0.00    -0.055 C 
ATOM     20  N   UNL     1      -8.190  -1.364   0.482  0.00  0.00    +0.382 N 
ATOM     21  C   UNL     1      -7.462  -2.317  -0.371  0.00  0.00    -0.078 C 
ATOM     22  C   UNL     1      -6.138  -1.672  -0.796  0.00  0.00    +0.016 C 
ATOM     23  H   UNL     1      -9.210  -1.739   0.651  0.00  0.00    -0.085 HD
ATOM     24  H   UNL     1      -8.237  -0.390  -0.026  0.00  0.00    -0.085 HD
ENDBRANCH  13  17
ENDBRANCH   1  16
BRANCH   2  25
ATOM     25  C   UNL     1       0.151   0.147  -2.483  0.00  0.00    -0.030 A 
ATOM     26  C   UNL     1      -0.814  -0.525  -3.210  0.00  0.00    +0.008 A 
ATOM     27  C   UNL     1      -1.365   0.059  -4.334  0.00  0.00    +0.046 A 
ATOM     28  C   UNL     1      -0.941   1.317  -4.739  0.00  0.00    +0.117 A 
ATOM     29  C   UNL     1       0.031   1.986  -4.011  0.00  0.00    +0.046 A 
ATOM     30  C   UNL     1       0.575   1.400  -2.885  0.00  0.00    +0.008 A 
BRANCH  28  31
ATOM     31  O   UNL     1      -1.478   1.891  -5.848  0.00  0.00    -0.507 OA
ATOM     32  H   UNL     1      -1.141   2.888  -6.168  0.00  0.00    +0.292 HD
ENDBRANCH  28  31
ENDBRANCH   2  25
BRANCH   6  33
ATOM     33  O   UNL     1       5.170   4.120  -0.545  0.00  0.00    -0.507 OA
ATOM     34  H   UNL     1       5.256   5.170  -0.229  0.00  0.00    +0.292 HD
ENDBRANCH   6  33
TORSDOF 5
