REMARK  Name = ZINC36612893
REMARK  13 active torsions:
REMARK  status: ('A' for Active; 'I' for Inactive)
REMARK    1  A    between atoms: C_1  and  C_2
REMARK    2  A    between atoms: C_2  and  CA_3
REMARK    3  A    between atoms: CA_3  and  C_5
REMARK    4  A    between atoms: CA_3  and  N_7
REMARK    5  A    between atoms: C_5  and  O_6
REMARK    6  A    between atoms: N_7  and  C_8
REMARK    7  A    between atoms: C_8  and  C_9
REMARK    8  A    between atoms: C_11  and  O_22
REMARK    9  A    between atoms: C_12  and  O_17
REMARK   10  A    between atoms: O_17  and  C_18
REMARK   11  A    between atoms: C_18  and  C_19
REMARK   12  A    between atoms: O_22  and  C_23
REMARK   13  A    between atoms: C_23  and  C_24
REMARK                            x       y       z     vdW  Elec       q    Type
REMARK                         _______ _______ _______ _____ _____    ______ ____
ROOT
ATOM      1  C   UNL     1      -2.638   1.917  -2.410  0.00  0.00    -0.046 A 
ATOM      2  C   UNL     1      -3.890   2.503  -2.373  0.00  0.00    +0.052 A 
ATOM      3  C   UNL     1      -4.479   2.954  -3.542  0.00  0.00    +0.163 A 
ATOM      4  C   UNL     1      -3.809   2.816  -4.754  0.00  0.00    +0.178 A 
ATOM      5  C   UNL     1      -2.554   2.228  -4.786  0.00  0.00    +0.077 A 
ATOM      6  C   UNL     1      -1.969   1.784  -3.613  0.00  0.00    +0.037 A 
ATOM      7 BR   UNL     1      -0.254   0.990  -3.656  0.00  0.00    -0.049 Br
ATOM      8 BR   UNL     1      -1.640   2.039  -6.430  0.00  0.00    -0.045 Br
ENDROOT
BRANCH   1   9
ATOM      9  C   UNL     1      -1.999   1.427  -1.136  0.00  0.00    -0.045 C 
BRANCH   9  10
ATOM     10  N   UNL     1      -2.065  -0.040  -1.087  0.00  0.00    +0.385 N 
ATOM     11  H1  UNL     1      -1.649  -0.423  -1.923  0.00  0.00    -0.085 HD
ATOM     12  H2  UNL     1      -3.029  -0.331  -1.026  0.00  0.00    -0.085 HD
BRANCH  10  13
ATOM     13  CA  UNL     1      -1.331  -0.524   0.090  0.00  0.00    -0.046 C 
BRANCH  13  15
ATOM     14  C   UNL     1      -0.454  -2.515  -1.138  0.00  0.00    +0.002 C 
ATOM     15  C   UNL     1      -1.279  -2.053   0.065  0.00  0.00    -0.017 C 
ENDBRANCH  13  15
BRANCH  13  16
ATOM     16  C   UNL     1      -2.044  -0.059   1.361  0.00  0.00    +0.140 C 
BRANCH  16  17
ATOM     17  O   UNL     1      -3.331  -0.675   1.438  0.00  0.00    -0.397 OA
ATOM     18  H   UNL     1      -3.841  -0.425   2.221  0.00  0.00    +0.209 HD
ENDBRANCH  16  17
ENDBRANCH  13  16
ENDBRANCH  10  13
ENDBRANCH   9  10
ENDBRANCH   1   9
BRANCH   4  19
ATOM     19  O   UNL     1      -4.384   3.258  -5.905  0.00  0.00    -0.478 OA
BRANCH  19  20
ATOM     20  C   UNL     1      -4.120   4.609  -6.285  0.00  0.00    +0.324 C 
BRANCH  20  21
ATOM     21  C   UNL     1      -4.835   4.917  -7.576  0.00  0.00    +0.248 C 
ATOM     22  O   UNL     1      -5.505   4.063  -8.116  0.00  0.00    -0.272 OA
ATOM     23  N   UNL     1      -4.731   6.142  -8.129  0.00  0.00    -0.327 N 
ATOM     24  H   UNL     1      -4.195   6.825  -7.697  0.00  0.00    +0.145 HD
ATOM     25  H   UNL     1      -5.191   6.340  -8.960  0.00  0.00    +0.145 HD
ENDBRANCH  20  21
ENDBRANCH  19  20
ENDBRANCH   4  19
BRANCH   3  26
ATOM     26  O   UNL     1      -5.711   3.530  -3.507  0.00  0.00    -0.489 OA
BRANCH  26  27
ATOM     27  C   UNL     1      -6.340   3.637  -2.228  0.00  0.00    +0.226 C 
ATOM     28  C   UNL     1      -7.707   4.306  -2.387  0.00  0.00    +0.048 C 
ENDBRANCH  26  27
ENDBRANCH   3  26
TORSDOF 11
