REMARK  Name = ZINC01446596
REMARK  10 active torsions:
REMARK  status: ('A' for Active; 'I' for Inactive)
REMARK    1  A    between atoms: C_1  and  C_2
REMARK    2  A    between atoms: C_5  and  N_9
REMARK    3  A    between atoms: C_6  and  C_8
REMARK    4  A    between atoms: N_9  and  C_10
REMARK    5  A    between atoms: C_10  and  N_12
REMARK    6  A    between atoms: N_12  and  C_13
REMARK    7  A    between atoms: C_13  and  C_15
REMARK    8  A    between atoms: C_13  and  N_19
REMARK    9  A    between atoms: C_20  and  C_22
REMARK   10  A    between atoms: C_26  and  N_28
REMARK                            x       y       z     vdW  Elec       q    Type
REMARK                         _______ _______ _______ _____ _____    ______ ____
ROOT
ATOM      1  C   UNL     1      -4.481   2.408  -0.185  0.00  0.00    +0.211 C 
ENDROOT
BRANCH   1   2
ATOM      2  C   UNL     1      -5.502   1.578  -0.965  0.00  0.00    +0.225 C 
ATOM      3 CL   UNL     1      -5.285  -0.168  -0.571  0.00  0.00    -0.080 Cl
ATOM      4 CL   UNL     1      -7.169   2.094  -0.509  0.00  0.00    -0.080 Cl
ATOM      5 CL   UNL     1      -5.258   1.831  -2.734  0.00  0.00    -0.080 Cl
ENDBRANCH   1   2
BRANCH   1   6
ATOM      6  N   UNL     1      -3.127   1.989  -0.556  0.00  0.00    -0.290 N 
ATOM      7  C   UNL     1      -2.181   2.915  -0.813  0.00  0.00    +0.246 C 
ATOM      8  O   UNL     1      -2.452   4.098  -0.737  0.00  0.00    -0.270 OA
ATOM      9  H   UNL     1      -2.910   1.046  -0.617  0.00  0.00    +0.151 HD
BRANCH   7  10
ATOM     10  C   UNL     1      -0.815   2.492  -1.186  0.00  0.00    +0.039 A 
ATOM     11  C   UNL     1      -0.500   1.135  -1.274  0.00  0.00    +0.013 A 
ATOM     12  C   UNL     1       0.775   0.747  -1.629  0.00  0.00    +0.003 A 
ATOM     13  C   UNL     1       1.742   1.700  -1.898  0.00  0.00    +0.033 A 
ATOM     14  C   UNL     1       1.437   3.047  -1.813  0.00  0.00    +0.127 A 
ATOM     15  C   UNL     1       0.165   3.448  -1.458  0.00  0.00    +0.045 A 
BRANCH  14  16
ATOM     16  N   UNL     1       2.477   4.059  -2.103  0.00  0.00    +0.056 N 
ATOM     17  O   UNL     1       3.599   3.706  -2.417  0.00  0.00    -0.126 OA
ATOM     18  O   UNL     1       2.209   5.245  -2.029  0.00  0.00    -0.126 OA
ENDBRANCH  14  16
ENDBRANCH   7  10
ENDBRANCH   1   6
BRANCH   1  19
ATOM     19  N   UNL     1      -4.679   2.203   1.251  0.00  0.00    -0.305 N 
ATOM     20  H   UNL     1      -4.814   1.308   1.599  0.00  0.00    +0.150 HD
BRANCH  19  21
ATOM     21  C   UNL     1      -4.674   3.259   2.090  0.00  0.00    +0.136 C 
ATOM     22  S   UNL     1      -4.436   4.839   1.475  0.00  0.00    -0.019 S 
BRANCH  21  23
ATOM     23  N   UNL     1      -4.857   3.070   3.412  0.00  0.00    -0.297 N 
ATOM     24  H   UNL     1      -5.071   2.187   3.751  0.00  0.00    +0.154 HD
BRANCH  23  29
ATOM     25  C   UNL     1      -4.378   7.444   6.993  0.00  0.00    +0.044 C 
ATOM     26  C   UNL     1      -4.505   6.281   6.042  0.00  0.00    -0.050 A 
ATOM     27  C   UNL     1      -3.570   6.106   5.038  0.00  0.00    +0.005 A 
ATOM     28  C   UNL     1      -3.683   5.042   4.165  0.00  0.00    +0.024 A 
ATOM     29  C   UNL     1      -4.739   4.148   4.295  0.00  0.00    +0.036 A 
ATOM     30  C   UNL     1      -5.679   4.331   5.300  0.00  0.00    -0.029 A 
ATOM     31  C   UNL     1      -5.556   5.394   6.174  0.00  0.00    +0.008 A 
ATOM     32  C   UNL     1      -6.829   3.367   5.441  0.00  0.00    +0.045 C 
ENDBRANCH  23  29
ENDBRANCH  21  23
ENDBRANCH  19  21
ENDBRANCH   1  19
TORSDOF 8
