REMARK  Name = ZINC08636317
REMARK  10 active torsions:
REMARK  status: ('A' for Active; 'I' for Inactive)
REMARK    1  A    between atoms: C_1  and  C_2
REMARK    2  A    between atoms: C_4  and  C_32
REMARK    3  A    between atoms: C_6  and  N_8
REMARK    4  A    between atoms: C_11  and  C_25
REMARK    5  A    between atoms: C_14  and  O_24
REMARK    6  A    between atoms: C_16  and  O_23
REMARK    7  A    between atoms: N_27  and  C_28
REMARK    8  A    between atoms: C_28  and  C_29
REMARK    9  A    between atoms: C_29  and  O_30
REMARK   10  A    between atoms: O_30  and  C_31
REMARK                            x       y       z     vdW  Elec       q    Type
REMARK                         _______ _______ _______ _____ _____    ______ ____
ROOT
ATOM      1  N   UNL     1      -3.043   0.648   1.208  0.00  0.00    -0.277 N 
ATOM      2  C   UNL     1      -2.042  -0.427   1.183  0.00  0.00    +0.115 C 
ATOM      3  C   UNL     1      -1.331  -0.656   2.469  0.00  0.00    +0.100 C 
ATOM      4  C   UNL     1       0.013   0.020   2.603  0.00  0.00    +0.048 C 
ATOM      5  C   UNL     1       0.853  -0.147   1.363  0.00  0.00    +0.146 C 
ATOM      6  C   UNL     1       0.158   0.334   0.115  0.00  0.00    +0.165 C 
ATOM      7  C   UNL     1      -1.244  -0.194  -0.079  0.00  0.00    +0.124 C 
ATOM      8  N   UNL     1      -2.029   0.844  -0.790  0.00  0.00    -0.319 N 
ATOM      9  C   UNL     1      -2.993   1.291   0.029  0.00  0.00    +0.138 C 
ATOM     10  S   UNL     1      -4.059   2.564  -0.389  0.00  0.00    -0.018 S 
ATOM     11  H   UNL     1      -1.872   1.149  -1.697  0.00  0.00    +0.148 HD
ENDROOT
BRANCH   1  17
ATOM     12  C   UNL     1      -6.758  -0.665   4.149  0.00  0.00    +0.044 C 
ATOM     13  C   UNL     1      -5.710   0.329   3.719  0.00  0.00    -0.048 A 
ATOM     14  C   UNL     1      -5.596   1.540   4.377  0.00  0.00    +0.006 A 
ATOM     15  C   UNL     1      -4.636   2.455   3.986  0.00  0.00    -0.048 A 
ATOM     16  C   UNL     1      -3.788   2.162   2.936  0.00  0.00    +0.027 A 
ATOM     17  C   UNL     1      -3.900   0.947   2.272  0.00  0.00    +0.036 A 
ATOM     18  C   UNL     1      -4.869   0.033   2.665  0.00  0.00    +0.027 A 
ATOM     19  C   UNL     1      -4.514   3.773   4.707  0.00  0.00    +0.044 C 
ENDBRANCH   1  17
BRANCH   3  20
ATOM     20  C   UNL     1      -2.213  -0.168   3.589  0.00  0.00    +0.218 C 
ATOM     21  O   UNL     1      -3.271  -0.718   3.811  0.00  0.00    -0.275 OA
ATOM     22  N   UNL     1      -1.827   0.880   4.344  0.00  0.00    -0.313 N 
ATOM     23  H   UNL     1      -1.040   1.391   4.098  0.00  0.00    +0.149 HD
BRANCH  22  24
ATOM     24  C   UNL     1      -2.596   1.247   5.535  0.00  0.00    +0.132 C 
BRANCH  24  25
ATOM     25  C   UNL     1      -1.873   2.369   6.284  0.00  0.00    +0.178 C 
BRANCH  25  26
ATOM     26  O   UNL     1      -1.849   3.544   5.472  0.00  0.00    -0.381 OA
ATOM     27  C   UNL     1      -1.192   4.658   6.081  0.00  0.00    +0.194 C 
ENDBRANCH  25  26
ENDBRANCH  24  25
ENDBRANCH  22  24
ENDBRANCH   3  20
BRANCH   6  28
ATOM     28  O   UNL     1       0.100   1.761   0.154  0.00  0.00    -0.387 OA
ATOM     29  H   UNL     1       0.964   2.188   0.235  0.00  0.00    +0.210 HD
ENDBRANCH   6  28
BRANCH   5  30
ATOM     30  O   UNL     1       1.167  -1.533   1.214  0.00  0.00    -0.389 OA
ATOM     31  H   UNL     1       1.617  -1.919   1.977  0.00  0.00    +0.210 HD
ENDBRANCH   5  30
TORSDOF 7
