REMARK  Name = ZINC62794865
REMARK  4 active torsions:
REMARK  status: ('A' for Active; 'I' for Inactive)
REMARK    1  A    between atoms: C_3  and  S_10
REMARK    2  A    between atoms: C_6  and  N_7
REMARK    3  A    between atoms: S_10  and  C_11
REMARK    4  A    between atoms: C_14  and  C_18
REMARK                            x       y       z     vdW  Elec       q    Type
REMARK                         _______ _______ _______ _____ _____    ______ ____
ROOT
ATOM      1  C   UNL     1       5.133   1.060   0.107  0.00  0.00    +0.031 A 
ATOM      2  C   UNL     1       4.770  -0.284   0.078  0.00  0.00    +0.017 A 
ATOM      3  C   UNL     1       5.734  -1.261   0.180  0.00  0.00    +0.012 A 
ATOM      4  C   UNL     1       7.079  -0.903   0.313  0.00  0.00    +0.014 A 
ATOM      5  C   UNL     1       7.441   0.446   0.342  0.00  0.00    +0.032 A 
ATOM      6  C   UNL     1       6.473   1.420   0.234  0.00  0.00    +0.055 A 
ATOM      7 CL   UNL     1       6.923   3.096   0.264  0.00  0.00    -0.082 Cl
ENDROOT
BRANCH   4   8
ATOM      8  C   UNL     1       8.114  -1.950   0.424  0.00  0.00    +0.094 C 
ATOM      9  N   UNL     1       9.397  -1.608   0.551  0.00  0.00    -0.387 N 
ATOM     10  N   UNL     1       7.768  -3.237   0.396  0.00  0.00    -0.345 N 
ATOM     11  H   UNL     1       9.649  -0.671   0.571  0.00  0.00    +0.157 HD
ATOM     12  H   UNL     1       6.835  -3.485   0.304  0.00  0.00    +0.144 HD
ATOM     13  H   UNL     1       8.448  -3.924   0.469  0.00  0.00    +0.144 HD
ATOM     14  H   UNL     1      10.077  -2.295   0.623  0.00  0.00    +0.157 HD
ENDBRANCH   4   8
BRANCH   1  15
ATOM     15  S   UNL     1       3.896   2.308  -0.023  0.00  0.00    -0.088 S 
BRANCH  15  18
ATOM     16  C   UNL     1       0.606   0.349   1.207  0.00  0.00    +0.034 A 
ATOM     17  C   UNL     1       1.794   1.053   1.200  0.00  0.00    +0.017 A 
ATOM     18  C   UNL     1       2.381   1.410  -0.009  0.00  0.00    +0.013 A 
ATOM     19  C   UNL     1       1.769   1.056  -1.205  0.00  0.00    +0.017 A 
ATOM     20  C   UNL     1       0.581   0.352  -1.190  0.00  0.00    +0.034 A 
ATOM     21  C   UNL     1       0.000  -0.001   0.014  0.00  0.00    +0.126 A 
BRANCH  21  22
ATOM     22  N   UNL     1      -1.273  -0.756   0.026  0.00  0.00    +0.056 N 
ATOM     23  O   UNL     1      -1.782  -1.066   1.079  0.00  0.00    -0.126 OA
ATOM     24  O   UNL     1      -1.804  -1.062  -1.015  0.00  0.00    -0.126 OA
ENDBRANCH  21  22
ENDBRANCH  15  18
ENDBRANCH   1  15
TORSDOF 4
