REMARK  Name = ZINC66632377
REMARK  7 active torsions:
REMARK  status: ('A' for Active; 'I' for Inactive)
REMARK    1  A    between atoms: C_3  and  C_6
REMARK    2  A    between atoms: C_9  and  C_11
REMARK    3  A    between atoms: N_13  and  N_14
REMARK    4  A    between atoms: N_17  and  C_18
REMARK    5  A    between atoms: C_18  and  C_19
REMARK    6  A    between atoms: C_19  and  C_20
REMARK    7  A    between atoms: C_20  and  N_21
REMARK                            x       y       z     vdW  Elec       q    Type
REMARK                         _______ _______ _______ _____ _____    ______ ____
ROOT
ATOM      1  N   UNL     1       9.939   1.190  -0.103  0.00  0.00    -0.218 N 
ATOM      2  C   UNL     1      10.639   0.038  -0.122  0.00  0.00    +0.316 C 
ATOM      3  O   UNL     1      11.854   0.064  -0.137  0.00  0.00    -0.251 OA
ATOM      4  N   UNL     1       9.990  -1.144  -0.126  0.00  0.00    -0.298 N 
ATOM      5  H   UNL     1      10.406   2.040  -0.100  0.00  0.00    +0.174 HD
ATOM      6  H   UNL     1       9.021  -1.165  -0.115  0.00  0.00    +0.150 HD
ENDROOT
BRANCH   1   9
ATOM      7  C   UNL     1       7.840   2.311  -0.067  0.00  0.00    +0.268 C 
ATOM      8  O   UNL     1       8.425   3.378  -0.064  0.00  0.00    -0.268 OA
ATOM      9  N   UNL     1       8.539   1.159  -0.087  0.00  0.00    -0.229 N 
ATOM     10  H   UNL     1       8.072   0.308  -0.089  0.00  0.00    +0.173 HD
BRANCH   7  14
ATOM     11  C   UNL     1       3.738   1.809  -0.025  0.00  0.00    +0.115 A 
ATOM     12  N   UNL     1       4.189   3.062  -0.017  0.00  0.00    -0.246 NA
ATOM     13  C   UNL     1       5.465   3.328  -0.029  0.00  0.00    +0.132 A 
ATOM     14  C   UNL     1       6.376   2.279  -0.050  0.00  0.00    +0.095 A 
ATOM     15  S   UNL     1       5.264   0.878  -0.044  0.00  0.00    -0.062 S 
BRANCH  11  18
ATOM     16  C   UNL     1      -0.016   1.355   0.009  0.00  0.00    +0.008 A 
ATOM     17  C   UNL     1       1.173   2.044   0.002  0.00  0.00    +0.018 A 
ATOM     18  C   UNL     1       2.353   1.321  -0.013  0.00  0.00    +0.044 A 
ATOM     19  S   UNL     1       1.751  -0.360  -0.017  0.00  0.00    -0.095 S 
ATOM     20  C   UNL     1       0.002  -0.004   0.002  0.00  0.00    +0.046 A 
ENDBRANCH  11  18
ENDBRANCH   7  14
ENDBRANCH   1   9
BRANCH   4  21
ATOM     21  C   UNL     1      10.751  -2.396  -0.147  0.00  0.00    +0.107 C 
BRANCH  21  22
ATOM     22  C   UNL     1       9.782  -3.581  -0.147  0.00  0.00    +0.040 C 
BRANCH  22  23
ATOM     23  C   UNL     1      10.576  -4.888  -0.170  0.00  0.00    +0.124 C 
BRANCH  23  24
ATOM     24  N   UNL     1       9.649  -6.023  -0.170  0.00  0.00    -0.338 N 
ATOM     25  C   UNL     1       9.143  -6.658   0.932  0.00  0.00    +0.104 A 
ATOM     26  C   UNL     1       8.336  -7.637   0.481  0.00  0.00    +0.101 A 
ATOM     27  N   UNL     1       8.348  -7.600  -0.860  0.00  0.00    -0.352 N 
ATOM     28  C   UNL     1       9.128  -6.633  -1.256  0.00  0.00    +0.173 A 
ATOM     29  H   UNL     1       7.852  -8.197  -1.443  0.00  0.00    +0.166 HD
ENDBRANCH  23  24
ENDBRANCH  22  23
ENDBRANCH  21  22
ENDBRANCH   4  21
TORSDOF 7
