REMARK  Name = ZINC36511662
REMARK  16 active torsions:
REMARK  status: ('A' for Active; 'I' for Inactive)
REMARK    1  A    between atoms: C_1  and  C_2
REMARK    2  A    between atoms: C_2  and  C_3
REMARK    3  A    between atoms: C_2  and  C_4
REMARK    4  A    between atoms: C_2  and  C_5
REMARK    5  A    between atoms: C_5  and  C_7
REMARK    6  A    between atoms: C_5  and  N_26
REMARK    7  A    between atoms: C_7  and  O_9
REMARK    8  A    between atoms: O_9  and  C_10
REMARK    9  A    between atoms: C_10  and  C_11
REMARK   10  A    between atoms: C_13  and  O_25
REMARK   11  A    between atoms: C_15  and  O_24
REMARK   12  A    between atoms: C_17  and  O_23
REMARK   13  A    between atoms: C_19  and  O_22
REMARK   14  A    between atoms: C_27  and  O_29
REMARK   15  A    between atoms: O_29  and  C_30
REMARK   16  A    between atoms: C_30  and  C_31
REMARK                            x       y       z     vdW  Elec       q    Type
REMARK                         _______ _______ _______ _____ _____    ______ ____
ROOT
ATOM      1  C   UNL     1       2.132   0.024  -1.268  0.00  0.00    +0.328 C 
ATOM      2  O   UNL     1       2.509   0.729  -2.174  0.00  0.00    -0.249 OA
ENDROOT
BRANCH   1   3
ATOM      3  C   UNL     1       0.718  -0.497  -1.257  0.00  0.00    +0.190 C 
BRANCH   3   5
ATOM      4  C   UNL     1      -0.019   1.526   0.010  0.00  0.00    +0.013 C 
ATOM      5  C   UNL     1       0.002  -0.004   0.002  0.00  0.00    -0.009 C 
ATOM      6  C   UNL     1       0.742  -0.511   1.242  0.00  0.00    +0.013 C 
ATOM      7  C   UNL     1      -1.433  -0.534   0.013  0.00  0.00    +0.013 C 
ENDBRANCH   3   5
BRANCH   3   8
ATOM      8  N   UNL     1       0.010  -0.012  -2.444  0.00  0.00    -0.267 N 
ATOM      9  C   UNL     1      -1.042  -0.701  -2.929  0.00  0.00    +0.401 C 
ATOM     10  O   UNL     1      -1.403  -1.724  -2.382  0.00  0.00    -0.226 OA
ATOM     11  H   UNL     1       0.298   0.805  -2.880  0.00  0.00    +0.153 HD
BRANCH   9  12
ATOM     12  O   UNL     1      -1.694  -0.255  -4.020  0.00  0.00    -0.446 OA
BRANCH  12  13
ATOM     13  C   UNL     1      -2.800  -1.034  -4.479  0.00  0.00    +0.269 C 
BRANCH  13  14
ATOM     14  C   UNL     1      -3.399  -0.385  -5.699  0.00  0.00    -0.010 A 
ATOM     15  C   UNL     1      -4.407   0.550  -5.560  0.00  0.00    +0.007 A 
ATOM     16  C   UNL     1      -4.958   1.146  -6.680  0.00  0.00    +0.000 A 
ATOM     17  C   UNL     1      -4.499   0.806  -7.939  0.00  0.00    +0.000 A 
ATOM     18  C   UNL     1      -3.491  -0.129  -8.078  0.00  0.00    +0.000 A 
ATOM     19  C   UNL     1      -2.938  -0.721  -6.958  0.00  0.00    +0.007 A 
ENDBRANCH  13  14
ENDBRANCH  12  13
ENDBRANCH   9  12
ENDBRANCH   3   8
ENDBRANCH   1   3
BRANCH   1  20
ATOM     20  O   UNL     1       2.972  -0.294  -0.270  0.00  0.00    -0.461 OA
BRANCH  20  21
ATOM     21  C   UNL     1       4.298   0.235  -0.345  0.00  0.00    +0.266 C 
BRANCH  21  22
ATOM     22  C   UNL     1       5.103  -0.232   0.869  0.00  0.00    +0.190 C 
ATOM     23  C   UNL     1       6.555   0.231   0.728  0.00  0.00    +0.178 C 
ATOM     24  C   UNL     1       7.340  -0.189   1.975  0.00  0.00    +0.179 C 
ATOM     25  C   UNL     1       6.660   0.400   3.215  0.00  0.00    +0.201 C 
ATOM     26  C   UNL     1       5.204  -0.069   3.260  0.00  0.00    +0.279 C 
ATOM     27  O   UNL     1       4.539   0.326   2.058  0.00  0.00    -0.340 OA
BRANCH  26  28
ATOM     28  O   UNL     1       5.165  -1.493   3.380  0.00  0.00    -0.365 OA
ATOM     29  H   UNL     1       4.272  -1.861   3.414  0.00  0.00    +0.213 HD
ENDBRANCH  26  28
BRANCH  25  30
ATOM     30  O   UNL     1       7.343  -0.043   4.389  0.00  0.00    -0.384 OA
ATOM     31  H   UNL     1       6.965   0.293   5.214  0.00  0.00    +0.210 HD
ENDBRANCH  25  30
BRANCH  24  32
ATOM     32  O   UNL     1       8.679   0.301   1.883  0.00  0.00    -0.386 OA
ATOM     33  H   UNL     1       9.234   0.072   2.641  0.00  0.00    +0.210 HD
ENDBRANCH  24  32
BRANCH  23  34
ATOM     34  O   UNL     1       6.592   1.653   0.595  0.00  0.00    -0.386 OA
ATOM     35  H   UNL     1       7.483   2.016   0.501  0.00  0.00    +0.210 HD
ENDBRANCH  23  34
ENDBRANCH  21  22
ENDBRANCH  20  21
ENDBRANCH   1  20
TORSDOF 13
