REMARK  Name = ZINC13810793
REMARK  11 active torsions:
REMARK  status: ('A' for Active; 'I' for Inactive)
REMARK    1  A    between atoms: C_1  and  C_2
REMARK    2  A    between atoms: C_5  and  O_8
REMARK    3  A    between atoms: O_8  and  C_9
REMARK    4  A    between atoms: C_9  and  C_10
REMARK    5  A    between atoms: C_10  and  C_12
REMARK    6  A    between atoms: C_10  and  O_30
REMARK    7  A    between atoms: C_12  and  N_13
REMARK    8  A    between atoms: N_21  and  C_29
REMARK    9  A    between atoms: N_25  and  C_26
REMARK   10  A    between atoms: C_26  and  C_27
REMARK   11  A    between atoms: C_27  and  N_28
REMARK                            x       y       z     vdW  Elec       q    Type
REMARK                         _______ _______ _______ _____ _____    ______ ____
ROOT
ATOM      1  N   UNL     1       0.369  -8.443   2.185  0.00  0.00    -0.304 N 
ATOM      2  C   UNL     1      -0.660  -9.373   2.119  0.00  0.00    +0.153 A 
ATOM      3  C   UNL     1      -2.061  -9.298   2.215  0.00  0.00    +0.280 A 
ATOM      4  O   UNL     1      -2.609  -8.225   2.396  0.00  0.00    -0.265 OA
ATOM      5  N   UNL     1      -2.791 -10.427   2.103  0.00  0.00    -0.273 N 
ATOM      6  H   UNL     1      -3.758 -10.379   2.169  0.00  0.00    +0.173 HD
ATOM      7  C   UNL     1      -2.200 -11.617   1.902  0.00  0.00    +0.331 A 
ATOM      8  O   UNL     1      -2.890 -12.614   1.805  0.00  0.00    -0.246 OA
ATOM      9  N   UNL     1      -0.862 -11.733   1.804  0.00  0.00    -0.280 N 
ATOM     10  C   UNL     1      -0.058 -10.609   1.911  0.00  0.00    +0.170 A 
ATOM     11  N   UNL     1       1.260 -10.412   1.858  0.00  0.00    -0.196 NA
ATOM     12  C   UNL     1       1.529  -9.131   2.013  0.00  0.00    +0.198 A 
ATOM     13  N   UNL     1       2.789  -8.577   2.006  0.00  0.00    -0.317 N 
ATOM     14  C   UNL     1      -0.255 -13.048   1.585  0.00  0.00    +0.155 C 
ATOM     15  H   UNL     1       2.899  -7.621   2.131  0.00  0.00    +0.149 HD
ENDROOT
BRANCH   1  16
ATOM     16  C   UNL     1       0.232  -7.000   2.393  0.00  0.00    +0.160 C 
BRANCH  16  17
ATOM     17  C   UNL     1       0.090  -6.300   1.040  0.00  0.00    +0.172 C 
BRANCH  17  18
ATOM     18  O   UNL     1      -1.129  -6.710   0.417  0.00  0.00    -0.387 OA
ATOM     19  H   UNL     1      -1.922  -6.503   0.930  0.00  0.00    +0.210 HD
ENDBRANCH  17  18
BRANCH  17  20
ATOM     20  C   UNL     1       0.072  -4.785   1.249  0.00  0.00    +0.262 C 
BRANCH  20  21
ATOM     21  O   UNL     1       0.057  -4.129  -0.021  0.00  0.00    -0.489 OA
BRANCH  21  26
ATOM     22  C   UNL     1      -0.018   1.503   0.010  0.00  0.00    +0.044 C 
ATOM     23  C   UNL     1       0.002  -0.004   0.002  0.00  0.00    -0.050 A 
ATOM     24  C   UNL     1       0.006  -0.688  -1.200  0.00  0.00    +0.007 A 
ATOM     25  C   UNL     1       0.024  -2.069  -1.210  0.00  0.00    +0.046 A 
ATOM     26  C   UNL     1       0.039  -2.770  -0.013  0.00  0.00    +0.121 A 
ATOM     27  C   UNL     1       0.036  -2.082   1.191  0.00  0.00    +0.046 A 
ATOM     28  C   UNL     1       0.023  -0.701   1.196  0.00  0.00    +0.007 A 
ENDBRANCH  21  26
ENDBRANCH  20  21
ENDBRANCH  17  20
ENDBRANCH  16  17
ENDBRANCH   1  16
BRANCH  13  29
ATOM     29  C   UNL     1       3.963  -9.430   1.811  0.00  0.00    +0.085 C 
BRANCH  29  30
ATOM     30  C   UNL     1       5.229  -8.571   1.846  0.00  0.00    -0.067 C 
BRANCH  30  31
ATOM     31  N   UNL     1       6.407  -9.427   1.649  0.00  0.00    +0.379 N 
ATOM     32  H   UNL     1       6.448 -10.117   2.385  0.00  0.00    -0.090 HD
ATOM     33  H   UNL     1       6.340  -9.892   0.756  0.00  0.00    -0.090 HD
ATOM     34  H   UNL     1       7.242  -8.861   1.672  0.00  0.00    -0.090 HD
ENDBRANCH  30  31
ENDBRANCH  29  30
ENDBRANCH  13  29
TORSDOF 9
