REMARK  Name = ZINC16608646
REMARK  3 active torsions:
REMARK  status: ('A' for Active; 'I' for Inactive)
REMARK    1  A    between atoms: C_6  and  C_7
REMARK    2  A    between atoms: C_13  and  C_15
REMARK    3  A    between atoms: N_23  and  C_24
REMARK                            x       y       z     vdW  Elec       q    Type
REMARK                         _______ _______ _______ _____ _____    ______ ____
ROOT
ATOM      1  C   UNL     1       1.480   1.913  -0.002  0.00  0.00    +0.164 C 
ATOM      2  C   UNL     1      -0.019   1.547   0.011  0.00  0.00    +0.033 C 
ATOM      3  C   UNL     1       0.002  -0.004   0.002  0.00  0.00    +0.021 C 
ATOM      4  C   UNL     1       1.233  -0.293  -0.893  0.00  0.00    +0.110 C 
ATOM      5  N   UNL     1       2.207   0.757  -0.545  0.00  0.00    -0.274 N 
ATOM      6  C   UNL     1       3.543   0.672  -0.701  0.00  0.00    +0.303 C 
ATOM      7  O   UNL     1       4.254   1.605  -0.379  0.00  0.00    -0.253 OA
ATOM      8  N   UNL     1       4.092  -0.448  -1.213  0.00  0.00    -0.294 N 
ATOM      9  H   UNL     1       3.525  -1.192  -1.470  0.00  0.00    +0.151 HD
ENDROOT
BRANCH   8  10
ATOM     10  C   UNL     1       5.544  -0.540  -1.383  0.00  0.00    +0.037 C 
ATOM     11  C   UNL     1       6.227  -0.383  -0.022  0.00  0.00    +0.029 C 
ATOM     12  C   UNL     1       7.744  -0.480  -0.199  0.00  0.00    -0.008 C 
ATOM     13  C   UNL     1       8.102  -1.843  -0.795  0.00  0.00    +0.007 C 
ATOM     14  C   UNL     1       7.419  -2.000  -2.155  0.00  0.00    -0.008 C 
ATOM     15  C   UNL     1       5.902  -1.903  -1.978  0.00  0.00    +0.029 C 
ATOM     16  C   UNL     1       7.895  -0.891  -3.096  0.00  0.00    +0.007 C 
ATOM     17  C   UNL     1       7.537   0.472  -2.500  0.00  0.00    -0.008 C 
ATOM     18  C   UNL     1       8.220   0.629  -1.140  0.00  0.00    +0.007 C 
ATOM     19  C   UNL     1       6.020   0.569  -2.323  0.00  0.00    +0.029 C 
ENDBRANCH   8  10
BRANCH   1  26
ATOM     20  C   UNL     1       1.501   7.718  -2.690  0.00  0.00    +0.134 A 
ATOM     21  N   UNL     1       2.138   6.628  -3.102  0.00  0.00    -0.140 NA
ATOM     22  N   UNL     1       2.059   5.535  -2.479  0.00  0.00    -0.125 NA
ATOM     23  C   UNL     1       1.327   5.404  -1.381  0.00  0.00    +0.188 A 
ATOM     24  S   UNL     1       0.689   7.071  -1.232  0.00  0.00    -0.030 S 
ATOM     25  N   UNL     1       1.118   4.293  -0.573  0.00  0.00    -0.262 N 
ATOM     26  C   UNL     1       1.706   3.119  -0.878  0.00  0.00    +0.239 C 
ATOM     27  O   UNL     1       2.417   3.033  -1.856  0.00  0.00    -0.273 OA
ATOM     28  H   UNL     1       0.549   4.362   0.209  0.00  0.00    +0.157 HD
BRANCH  20  34
ATOM     29  C   UNL     1       0.723  10.082  -2.657  0.00  0.00    +0.014 A 
ATOM     30  C   UNL     1       0.697  11.351  -3.199  0.00  0.00    +0.050 A 
ATOM     31  C   UNL     1       1.414  11.632  -4.352  0.00  0.00    +0.166 A 
ATOM     32  C   UNL     1       2.165  10.632  -4.969  0.00  0.00    +0.167 A 
ATOM     33  C   UNL     1       2.198   9.360  -4.428  0.00  0.00    +0.060 A 
ATOM     34  C   UNL     1       1.472   9.077  -3.269  0.00  0.00    +0.013 A 
ATOM     35  O   UNL     1       2.769  11.159  -6.073  0.00  0.00    -0.453 OA
ATOM     36  C   UNL     1       2.057  12.378  -6.356  0.00  0.00    +0.466 C 
ATOM     37  O   UNL     1       1.550  12.784  -5.071  0.00  0.00    -0.453 OA
ENDBRANCH  20  34
ENDBRANCH   1  26
TORSDOF 3
