REMARK  Name = ZINC36546065
REMARK  15 active torsions:
REMARK  status: ('A' for Active; 'I' for Inactive)
REMARK    1  A    between atoms: C_1  and  C_2
REMARK    2  A    between atoms: C_2  and  C_3
REMARK    3  A    between atoms: C_3  and  C_4
REMARK    4  A    between atoms: C_4  and  N_5
REMARK    5  A    between atoms: C_6  and  C_8
REMARK    6  A    between atoms: C_8  and  C_10
REMARK    7  A    between atoms: C_8  and  N_19
REMARK    8  A    between atoms: C_11  and  O_18
REMARK    9  A    between atoms: C_13  and  O_17
REMARK   10  A    between atoms: C_15  and  O_16
REMARK   11  A    between atoms: N_19  and  C_20
REMARK   12  A    between atoms: C_27  and  C_29
REMARK   13  A    between atoms: C_29  and  C_30
REMARK   14  A    between atoms: C_30  and  C_32
REMARK   15  A    between atoms: C_30  and  C_33
REMARK                            x       y       z     vdW  Elec       q    Type
REMARK                         _______ _______ _______ _____ _____    ______ ____
ROOT
ATOM      1  C   UNL     1      -4.412  -4.476  -0.018  0.00  0.00    +0.204 C 
ENDROOT
BRANCH   1   2
ATOM      2  C   UNL     1      -5.043  -3.476  -0.952  0.00  0.00    +0.065 A 
ATOM      3  C   UNL     1      -6.415  -3.484  -1.152  0.00  0.00    +0.129 A 
ATOM      4  C   UNL     1      -6.996  -2.563  -2.011  0.00  0.00    +0.091 A 
ATOM      5  C   UNL     1      -6.204  -1.635  -2.670  0.00  0.00    +0.124 A 
ATOM      6  C   UNL     1      -4.832  -1.626  -2.469  0.00  0.00    +0.091 A 
ATOM      7  C   UNL     1      -4.252  -2.544  -1.606  0.00  0.00    +0.129 A 
BRANCH   7   8
ATOM      8  O   UNL     1      -2.908  -2.532  -1.405  0.00  0.00    -0.506 OA
ATOM      9  H   UNL     1      -2.414  -3.091  -2.021  0.00  0.00    +0.292 HD
ENDBRANCH   7   8
BRANCH   5  10
ATOM     10  O   UNL     1      -6.773  -0.733  -3.513  0.00  0.00    -0.507 OA
ATOM     11  H   UNL     1      -7.040   0.092  -3.084  0.00  0.00    +0.292 HD
ENDBRANCH   5  10
BRANCH   3  12
ATOM     12  O   UNL     1      -7.191  -4.394  -0.507  0.00  0.00    -0.506 OA
ATOM     13  H   UNL     1      -7.494  -4.106   0.365  0.00  0.00    +0.292 HD
ENDBRANCH   3  12
ENDBRANCH   1   2
BRANCH   1  15
ATOM     14  N   UNL     1      -3.547  -2.658   1.418  0.00  0.00    -0.313 N 
ATOM     15  C   UNL     1      -3.307  -3.810   0.761  0.00  0.00    +0.239 C 
ATOM     16  O   UNL     1      -2.203  -4.310   0.796  0.00  0.00    -0.273 OA
ATOM     17  H   UNL     1      -4.430  -2.258   1.390  0.00  0.00    +0.149 HD
BRANCH  14  18
ATOM     18  C   UNL     1      -2.473  -2.009   2.175  0.00  0.00    +0.104 C 
BRANCH  18  19
ATOM     19  C   UNL     1      -3.006  -0.729   2.821  0.00  0.00    +0.018 C 
BRANCH  19  21
ATOM     20  C   UNL     1      -2.417   1.229   4.257  0.00  0.00    +0.004 C 
ATOM     21  C   UNL     1      -1.884  -0.051   3.611  0.00  0.00    -0.002 C 
ENDBRANCH  19  21
ENDBRANCH  18  19
ENDBRANCH  14  18
ENDBRANCH   1  15
BRANCH   1  22
ATOM     22  N   UNL     1      -3.859  -5.589  -0.795  0.00  0.00    -0.254 N 
ATOM     23  C   UNL     1      -4.205  -6.857  -0.496  0.00  0.00    +0.221 C 
ATOM     24  O   UNL     1      -4.973  -7.077   0.415  0.00  0.00    -0.275 OA
BRANCH  22  25
ATOM     25  C   UNL     1      -2.972  -5.334  -1.847  0.00  0.00    +0.056 A 
ATOM     26  C   UNL     1      -1.601  -5.368  -1.625  0.00  0.00    +0.025 A 
ATOM     27  C   UNL     1      -0.728  -5.116  -2.666  0.00  0.00    +0.002 A 
ATOM     28  C   UNL     1      -1.217  -4.831  -3.928  0.00  0.00    +0.002 A 
ATOM     29  C   UNL     1      -2.581  -4.796  -4.152  0.00  0.00    +0.022 A 
ATOM     30  C   UNL     1      -3.460  -5.053  -3.117  0.00  0.00    +0.062 A 
ATOM     31 CL   UNL     1      -5.172  -5.017  -3.402  0.00  0.00    -0.082 Cl
ENDBRANCH  22  25
BRANCH  23  32
ATOM     32  C   UNL     1      -3.636  -8.001  -1.296  0.00  0.00    +0.104 C 
BRANCH  32  33
ATOM     33  C   UNL     1      -4.185  -9.323  -0.756  0.00  0.00    +0.025 C 
ATOM     34  C   UNL     1      -3.682  -9.538   0.673  0.00  0.00    +0.013 C 
BRANCH  33  35
ATOM     35  C   UNL     1      -3.714 -10.457  -1.630  0.00  0.00    -0.044 A 
ATOM     36  C   UNL     1      -2.361 -10.698  -1.780  0.00  0.00    +0.004 A 
ATOM     37  C   UNL     1      -1.930 -11.738  -2.581  0.00  0.00    +0.000 A 
ATOM     38  C   UNL     1      -2.851 -12.537  -3.233  0.00  0.00    +0.000 A 
ATOM     39  C   UNL     1      -4.204 -12.296  -3.083  0.00  0.00    +0.000 A 
ATOM     40  C   UNL     1      -4.635 -11.258  -2.277  0.00  0.00    +0.004 A 
ENDBRANCH  33  35
ENDBRANCH  32  33
ENDBRANCH  23  32
ENDBRANCH   1  22
TORSDOF 13
