REMARK  Name = ZINC09045770
REMARK  12 active torsions:
REMARK  status: ('A' for Active; 'I' for Inactive)
REMARK    1  A    between atoms: C_1  and  C_2
REMARK    2  A    between atoms: C_2  and  N_56
REMARK    3  A    between atoms: C_3  and  C_4
REMARK    4  A    between atoms: C_3  and  N_56
REMARK    5  A    between atoms: C_5  and  C_6
REMARK    6  A    between atoms: C_5  and  N_56
REMARK    7  A    between atoms: C_6  and  N_7
REMARK    8  A    between atoms: C_8  and  C_24
REMARK    9  A    between atoms: C_11  and  C_12
REMARK   10  A    between atoms: C_11  and  O_19
REMARK   11  A    between atoms: C_13  and  C_18
REMARK   12  A    between atoms: C_15  and  C_17
REMARK                            x       y       z     vdW  Elec       q    Type
REMARK                         _______ _______ _______ _____ _____    ______ ____
ROOT
ATOM      1  N   UNL     1      -3.255   1.335  -1.636  0.00  0.00    -0.285 N 
ATOM      2  C   UNL     1      -3.943   0.398  -2.529  0.00  0.00    +0.144 C 
ATOM      3  C   UNL     1      -4.847   1.228  -3.411  0.00  0.00    +0.072 C 
ATOM      4  C   UNL     1      -5.692   0.763  -4.409  0.00  0.00    +0.141 C 
ATOM      5  C   UNL     1      -4.663   2.557  -3.018  0.00  0.00    +0.249 C 
ATOM      6  O   UNL     1      -5.223   3.527  -3.498  0.00  0.00    -0.282 OA
ATOM      7  C   UNL     1      -3.671   2.582  -1.911  0.00  0.00    +0.288 C 
ATOM      8  O   UNL     1      -3.291   3.584  -1.340  0.00  0.00    -0.266 OA
ENDROOT
BRANCH   4   9
ATOM      9  C   UNL     1      -6.573   1.659  -5.065  0.00  0.00    +0.077 A 
ATOM     10  C   UNL     1      -6.606   2.058  -6.399  0.00  0.00    +0.056 A 
ATOM     11  N   UNL     1      -7.538   2.905  -6.754  0.00  0.00    -0.249 NA
ATOM     12  C   UNL     1      -8.411   3.380  -5.890  0.00  0.00    +0.076 A 
ATOM     13  S   UNL     1      -7.946   2.598  -4.411  0.00  0.00    -0.069 S 
ATOM     14  C   UNL     1      -9.533   4.357  -6.125  0.00  0.00    +0.073 C 
ATOM     15  C   UNL     1      -5.609   1.531  -7.398  0.00  0.00    +0.067 C 
ENDBRANCH   4   9
BRANCH   2  16
ATOM     16  C   UNL     1      -2.938  -0.343  -3.373  0.00  0.00    -0.021 A 
ATOM     17  C   UNL     1      -3.111  -1.691  -3.630  0.00  0.00    +0.006 A 
ATOM     18  C   UNL     1      -2.190  -2.371  -4.404  0.00  0.00    +0.001 A 
ATOM     19  C   UNL     1      -1.095  -1.704  -4.922  0.00  0.00    +0.015 A 
ATOM     20  C   UNL     1      -0.922  -0.356  -4.666  0.00  0.00    +0.018 A 
ATOM     21  C   UNL     1      -1.847   0.325  -3.895  0.00  0.00    +0.021 A 
ATOM     22 BR   UNL     1       0.575   0.556  -5.374  0.00  0.00    -0.050 Br
ENDBRANCH   2  16
BRANCH   4  23
ATOM     23  O   UNL     1      -5.675  -0.543  -4.755  0.00  0.00    -0.505 OA
ATOM     24  H   UNL     1      -6.340  -0.703  -5.485  0.00  0.00    +0.292 HD
ENDBRANCH   4  23
BRANCH   1  25
ATOM     25  C   UNL     1      -2.278   0.970  -0.607  0.00  0.00    +0.090 C 
BRANCH  25  26
ATOM     26  C   UNL     1      -0.873   0.979  -1.212  0.00  0.00    -0.060 C 
BRANCH  26  27
ATOM     27  N   UNL     1       0.110   0.748  -0.133  0.00  0.00    +0.380 N 
ATOM     28  H   UNL     1      -0.151   1.315   0.683  0.00  0.00    -0.082 HD
BRANCH  27  30
ATOM     29  C   UNL     1       0.597  -1.549  -0.905  0.00  0.00    -0.017 C 
ATOM     30  C   UNL     1       0.109  -0.679   0.255  0.00  0.00    -0.082 C 
ENDBRANCH  27  30
BRANCH  27  31
ATOM     31  C   UNL     1       1.460   1.148  -0.583  0.00  0.00    -0.082 C 
ATOM     32  C   UNL     1       2.411   1.112   0.614  0.00  0.00    -0.017 C 
ENDBRANCH  27  31
ENDBRANCH  26  27
ENDBRANCH  25  26
ENDBRANCH   1  25
TORSDOF 8
