REMARK  Name = ZINC39007765
REMARK  6 active torsions:
REMARK  status: ('A' for Active; 'I' for Inactive)
REMARK    1  A    between atoms: C_6  and  C_7
REMARK    2  A    between atoms: C_9  and  C_13
REMARK    3  A    between atoms: C_17  and  S_21
REMARK    4  A    between atoms: N_19  and  N_20
REMARK    5  A    between atoms: S_21  and  C_22
REMARK    6  A    between atoms: C_22  and  C_23
REMARK                            x       y       z     vdW  Elec       q    Type
REMARK                         _______ _______ _______ _____ _____    ______ ____
ROOT
ATOM      1  C   UNL     1      -3.278  -3.137  -1.242  0.00  0.00    +0.185 C 
ATOM      2  N   UNL     1      -3.039  -2.322  -2.461  0.00  0.00    -0.234 NA
ATOM      3  N   UNL     1      -3.975  -2.861  -3.452  0.00  0.00    -0.228 NA
ATOM      4  C   UNL     1      -5.070  -3.506  -2.700  0.00  0.00    +0.214 C 
ATOM      5  N   UNL     1      -4.751  -3.343  -1.261  0.00  0.00    -0.197 NA
ATOM      6  H   UNL     1      -2.085  -2.414  -2.777  0.00  0.00    +0.143 HD
ATOM      7  H   UNL     1      -3.515  -3.521  -4.061  0.00  0.00    +0.143 HD
ENDROOT
BRANCH   1  10
ATOM      8  C   UNL     1      -1.268  -0.764   0.004  0.00  0.00    +0.091 C 
ATOM      9  C   UNL     1      -1.359  -2.108   0.002  0.00  0.00    +0.034 C 
ATOM     10  C   UNL     1      -2.854  -2.371   0.013  0.00  0.00    +0.187 C 
ATOM     11  N   UNL     1      -3.433  -1.018   0.021  0.00  0.00    -0.176 NA
ATOM     12  N   UNL     1      -2.506  -0.205   0.021  0.00  0.00    -0.154 NA
BRANCH   8  18
ATOM     13  C   UNL     1      -0.015   1.392   0.004  0.00  0.00    +0.013 A 
ATOM     14  C   UNL     1       1.171   2.096  -0.004  0.00  0.00    +0.039 A 
ATOM     15  C   UNL     1       2.381   1.421  -0.021  0.00  0.00    +0.123 A 
ATOM     16  C   UNL     1       2.405   0.035  -0.030  0.00  0.00    +0.039 A 
ATOM     17  C   UNL     1       1.224  -0.677  -0.022  0.00  0.00    +0.013 A 
ATOM     18  C   UNL     1       0.005  -0.002  -0.005  0.00  0.00    +0.002 A 
ATOM     19  F   UNL     1       3.540   2.115  -0.029  0.00  0.00    -0.205 F 
ENDBRANCH   8  18
ENDBRANCH   1  10
BRANCH   5  20
ATOM     20  N   UNL     1      -5.121  -4.527  -0.503  0.00  0.00    -0.264 NA
ATOM     21  H   UNL     1      -6.120  -4.667  -0.516  0.00  0.00    +0.137 HD
ATOM     22  H   UNL     1      -4.637  -5.343  -0.848  0.00  0.00    +0.137 HD
ENDBRANCH   5  20
BRANCH   4  23
ATOM     23  S   UNL     1      -6.648  -2.700  -3.086  0.00  0.00    -0.115 S 
BRANCH  23  24
ATOM     24  C   UNL     1      -6.384  -0.969  -2.614  0.00  0.00    +0.168 C 
BRANCH  24  25
ATOM     25  C   UNL     1      -7.637  -0.177  -2.887  0.00  0.00    +0.228 C 
ATOM     26  O   UNL     1      -8.612  -0.727  -3.354  0.00  0.00    -0.275 OA
ATOM     27  N   UNL     1      -7.674   1.142  -2.612  0.00  0.00    -0.270 N 
ATOM     28  C   UNL     1      -8.794   1.896  -2.962  0.00  0.00    +0.125 A 
ATOM     29  C   UNL     1      -8.783   3.273  -2.773  0.00  0.00    +0.045 A 
ATOM     30  C   UNL     1      -9.900   4.010  -3.124  0.00  0.00    +0.025 A 
ATOM     31  C   UNL     1     -10.995   3.340  -3.656  0.00  0.00    +0.059 A 
ATOM     32  C   UNL     1     -10.936   1.969  -3.817  0.00  0.00    +0.132 A 
ATOM     33  N   UNL     1      -9.854   1.294  -3.477  0.00  0.00    -0.239 NA
ATOM     34 CL   UNL     1     -12.422   4.216  -4.113  0.00  0.00    -0.082 Cl
ATOM     35  H   UNL     1      -6.922   1.566  -2.171  0.00  0.00    +0.156 HD
ENDBRANCH  24  25
ENDBRANCH  23  24
ENDBRANCH   4  23
TORSDOF 6
