REMARK  Name = ZINC12815733
REMARK  10 active torsions:
REMARK  status: ('A' for Active; 'I' for Inactive)
REMARK    1  A    between atoms: C_1  and  C_2
REMARK    2  A    between atoms: C_2  and  N_3
REMARK    3  A    between atoms: C_4  and  C_28
REMARK    4  A    between atoms: C_7  and  S_8
REMARK    5  A    between atoms: S_8  and  C_9
REMARK    6  A    between atoms: C_9  and  C_11
REMARK    7  A    between atoms: C_9  and  C_12
REMARK    8  A    between atoms: N_17  and  C_18
REMARK    9  A    between atoms: C_31  and  O_34
REMARK   10  A    between atoms: O_34  and  C_35
REMARK                            x       y       z     vdW  Elec       q    Type
REMARK                         _______ _______ _______ _____ _____    ______ ____
ROOT
ATOM      1  C   UNL     1      -2.744   5.501   3.718  0.00  0.00    +0.137 C 
ATOM      2  C   UNL     1      -1.717   5.283   4.831  0.00  0.00    +0.029 C 
ENDROOT
BRANCH   1   3
ATOM      3  C   UNL     1      -2.164   5.043   2.404  0.00  0.00    +0.233 C 
ATOM      4  O   UNL     1      -1.627   5.842   1.668  0.00  0.00    -0.274 OA
ATOM      5  N   UNL     1      -2.244   3.746   2.047  0.00  0.00    -0.239 N 
ATOM      6  C   UNL     1      -1.726   3.337   0.872  0.00  0.00    +0.306 C 
ATOM      7  O   UNL     1      -1.187   4.138   0.134  0.00  0.00    -0.252 OA
ATOM      8  N   UNL     1      -1.806   2.040   0.516  0.00  0.00    -0.294 N 
ATOM      9  H   UNL     1      -2.675   3.107   2.636  0.00  0.00    +0.159 HD
ATOM     10  H   UNL     1      -2.236   1.401   1.105  0.00  0.00    +0.151 HD
BRANCH   8  11
ATOM     11  C   UNL     1      -1.243   1.595  -0.762  0.00  0.00    +0.037 C 
ATOM     12  C   UNL     1       0.257   1.895  -0.789  0.00  0.00    +0.029 C 
ATOM     13  C   UNL     1       0.845   1.430  -2.123  0.00  0.00    -0.008 C 
ATOM     14  C   UNL     1       0.623  -0.075  -2.283  0.00  0.00    +0.007 C 
ATOM     15  C   UNL     1      -0.878  -0.374  -2.255  0.00  0.00    -0.008 C 
ATOM     16  C   UNL     1      -1.466   0.090  -0.921  0.00  0.00    +0.029 C 
ATOM     17  C   UNL     1      -1.567   0.368  -3.402  0.00  0.00    +0.007 C 
ATOM     18  C   UNL     1      -1.344   1.873  -3.243  0.00  0.00    -0.008 C 
ATOM     19  C   UNL     1       0.156   2.172  -3.270  0.00  0.00    +0.007 C 
ATOM     20  C   UNL     1      -1.932   2.337  -1.909  0.00  0.00    +0.029 C 
ENDBRANCH   8  11
ENDBRANCH   1   3
BRANCH   1  21
ATOM     21  S   UNL     1      -3.159   7.260   3.615  0.00  0.00    -0.074 S 
BRANCH  21  26
ATOM     22  N   UNL     1      -4.454   8.649   5.669  0.00  0.00    -0.302 N 
ATOM     23  C   UNL     1      -4.947   8.341   6.916  0.00  0.00    +0.165 A 
ATOM     24  N   UNL     1      -4.707   7.068   7.122  0.00  0.00    -0.128 NA
ATOM     25  N   UNL     1      -4.109   6.563   6.103  0.00  0.00    -0.122 NA
ATOM     26  C   UNL     1      -3.932   7.484   5.182  0.00  0.00    +0.193 A 
BRANCH  23  27
ATOM     27  C   UNL     1      -5.616   9.272   7.850  0.00  0.00    +0.020 A 
ATOM     28  C   UNL     1      -5.711   8.954   9.206  0.00  0.00    +0.015 A 
ATOM     29  C   UNL     1      -6.331   9.827  10.075  0.00  0.00    +0.046 A 
ATOM     30  C   UNL     1      -6.871  11.015   9.600  0.00  0.00    +0.120 A 
ATOM     31  C   UNL     1      -6.784  11.332   8.251  0.00  0.00    +0.046 A 
ATOM     32  C   UNL     1      -6.160  10.467   7.377  0.00  0.00    +0.015 A 
BRANCH  30  33
ATOM     33  O   UNL     1      -7.487  11.870  10.459  0.00  0.00    -0.495 OA
ATOM     34  C   UNL     1      -7.541  11.482  11.833  0.00  0.00    +0.277 C 
ENDBRANCH  30  33
ENDBRANCH  23  27
BRANCH  22  36
ATOM     35  C   UNL     1      -5.727  10.042   4.113  0.00  0.00    +0.027 C 
ATOM     36  C   UNL     1      -4.484   9.952   5.002  0.00  0.00    +0.122 C 
ENDBRANCH  22  36
ENDBRANCH  21  26
ENDBRANCH   1  21
TORSDOF 7
