REMARK  Name = ZINC45868719
REMARK  5 active torsions:
REMARK  status: ('A' for Active; 'I' for Inactive)
REMARK    1  A    between atoms: C_7  and  C_9
REMARK    2  A    between atoms: C_9  and  N_10
REMARK    3  A    between atoms: N_13  and  C_14
REMARK    4  A    between atoms: C_14  and  C_15
REMARK    5  A    between atoms: C_14  and  C_18
REMARK                            x       y       z     vdW  Elec       q    Type
REMARK                         _______ _______ _______ _____ _____    ______ ____
ROOT
ATOM      1  N   UNL     1      -3.228  -1.214  -0.888  0.00  0.00    -0.299 N 
ATOM      2  C   UNL     1      -3.829  -2.420  -0.866  0.00  0.00    +0.301 C 
ATOM      3  O   UNL     1      -5.031  -2.503  -1.027  0.00  0.00    -0.253 OA
ATOM      4  N   UNL     1      -3.097  -3.533  -0.664  0.00  0.00    -0.281 N 
ATOM      5  H   UNL     1      -2.269  -1.147  -0.760  0.00  0.00    +0.150 HD
ATOM      6  H   UNL     1      -2.138  -3.467  -0.536  0.00  0.00    +0.151 HD
ENDROOT
BRANCH   1   7
ATOM      7  C   UNL     1      -4.024  -0.003  -1.107  0.00  0.00    +0.111 C 
BRANCH   7  14
ATOM      8  C   UNL     1      -3.948   2.503  -1.191  0.00  0.00    +0.029 C 
ATOM      9  C   UNL     1      -3.032   3.714  -1.493  0.00  0.00    +0.166 C 
ATOM     10  S   UNL     1      -1.630   2.942  -2.399  0.00  0.00    -0.031 S 
ATOM     11  O   UNL     1      -0.439   3.118  -1.644  0.00  0.00    -0.174 OA
ATOM     12  O   UNL     1      -1.667   3.365  -3.755  0.00  0.00    -0.174 OA
ATOM     13  C   UNL     1      -2.142   1.175  -2.307  0.00  0.00    +0.171 C 
ATOM     14  C   UNL     1      -3.106   1.221  -1.087  0.00  0.00    +0.029 C 
ENDBRANCH   7  14
ENDBRANCH   1   7
BRANCH   4  15
ATOM     15  C   UNL     1      -3.750  -4.845  -0.640  0.00  0.00    +0.246 C 
BRANCH  15  16
ATOM     16  C   UNL     1      -2.752  -5.910  -1.014  0.00  0.00    +0.240 C 
ATOM     17  O   UNL     1      -1.569  -5.728  -0.819  0.00  0.00    -0.273 OA
ATOM     18  N   UNL     1      -3.174  -7.065  -1.566  0.00  0.00    -0.327 N 
ATOM     19  H   UNL     1      -4.111  -7.182  -1.789  0.00  0.00    +0.145 HD
ATOM     20  H   UNL     1      -2.541  -7.779  -1.741  0.00  0.00    +0.145 HD
ENDBRANCH  15  16
BRANCH  15  21
ATOM     21  C   UNL     1      -4.279  -5.116   0.745  0.00  0.00    +0.240 C 
ATOM     22  O   UNL     1      -3.786  -4.559   1.703  0.00  0.00    -0.273 OA
ATOM     23  N   UNL     1      -5.300  -5.978   0.919  0.00  0.00    -0.327 N 
ATOM     24  H   UNL     1      -5.741  -6.370   0.149  0.00  0.00    +0.145 HD
ATOM     25  H   UNL     1      -5.594  -6.208   1.815  0.00  0.00    +0.145 HD
ENDBRANCH  15  21
ENDBRANCH   4  15
TORSDOF 5
