REMARK  Name = ZINC08762697
REMARK  9 active torsions:
REMARK  status: ('A' for Active; 'I' for Inactive)
REMARK    1  A    between atoms: C_1  and  C_2
REMARK    2  A    between atoms: C_5  and  O_44
REMARK    3  A    between atoms: C_18  and  C_43
REMARK    4  A    between atoms: C_23  and  C_24
REMARK    5  A    between atoms: C_24  and  C_26
REMARK    6  A    between atoms: C_26  and  C_27
REMARK    7  A    between atoms: C_34  and  O_35
REMARK    8  A    between atoms: O_35  and  C_36
REMARK    9  A    between atoms: C_42  and  N_84
REMARK                            x       y       z     vdW  Elec       q    Type
REMARK                         _______ _______ _______ _____ _____    ______ ____
ROOT
ATOM      1  C   UNL     1       0.329  -2.488   0.132  0.00  0.00    +0.012 C 
ATOM      2  C   UNL     1      -0.612  -1.709  -0.790  0.00  0.00    -0.026 C 
ATOM      3  C   UNL     1      -2.054  -1.883  -0.311  0.00  0.00    +0.010 C 
ATOM      4  C   UNL     1      -2.425  -3.367  -0.339  0.00  0.00    +0.032 C 
ATOM      5  C   UNL     1      -2.295  -3.898  -1.768  0.00  0.00    +0.115 C 
ATOM      6  C   UNL     1      -0.852  -3.724  -2.247  0.00  0.00    +0.035 C 
ATOM      7  C   UNL     1      -0.481  -2.240  -2.219  0.00  0.00    -0.002 C 
ATOM      8  C   UNL     1       0.963  -2.067  -2.695  0.00  0.00    +0.004 C 
ATOM      9  C   UNL     1       1.335  -0.583  -2.667  0.00  0.00    +0.004 C 
ATOM     10  C   UNL     1       1.195  -0.028  -1.247  0.00  0.00    -0.003 C 
ATOM     11  C   UNL     1      -0.240  -0.225  -0.762  0.00  0.00    -0.001 C 
ATOM     12  C   UNL     1      -0.331   0.291   0.679  0.00  0.00    +0.005 C 
ATOM     13  C   UNL     1      -0.066   1.793   0.668  0.00  0.00    +0.012 C 
ATOM     14  C   UNL     1       1.349   2.100   0.174  0.00  0.00    -0.001 C 
ATOM     15  C   UNL     1       1.632   1.408  -1.172  0.00  0.00    +0.006 C 
ATOM     16  C   UNL     1       0.865   2.332  -2.139  0.00  0.00    +0.032 C 
ATOM     17  C   UNL     1       1.075   3.704  -1.517  0.00  0.00    -0.019 C 
ATOM     18  C   UNL     1       1.355   3.577  -0.216  0.00  0.00    -0.003 C 
ATOM     19  C   UNL     1       2.407   1.763   1.226  0.00  0.00    +0.016 C 
ENDROOT
BRANCH  18  20
ATOM     20  C   UNL     1       1.628   4.687   0.697  0.00  0.00    +0.158 C 
ATOM     21  O   UNL     1       1.702   5.820   0.269  0.00  0.00    -0.292 OA
BRANCH  20  22
ATOM     22  C   UNL     1       1.816   4.423   2.168  0.00  0.00    +0.069 C 
BRANCH  22  23
ATOM     23  C   UNL     1       1.923   5.754   2.915  0.00  0.00    -0.027 C 
ATOM     24  C   UNL     1       0.719   6.601   2.596  0.00  0.00    -0.012 A 
ATOM     25  C   UNL     1       0.827   7.952   2.338  0.00  0.00    -0.040 A 
ATOM     26  C   UNL     1      -0.307   8.696   2.053  0.00  0.00    +0.053 A 
ATOM     27  C   UNL     1      -1.554   8.094   2.021  0.00  0.00    +0.170 A 
ATOM     28  C   UNL     1      -1.667   6.731   2.277  0.00  0.00    +0.208 A 
ATOM     29  C   UNL     1      -0.530   5.989   2.564  0.00  0.00    +0.167 A 
ATOM     30  O   UNL     1      -2.984   6.378   2.185  0.00  0.00    -0.449 OA
ATOM     31  C   UNL     1      -3.720   7.612   2.274  0.00  0.00    +0.467 C 
ATOM     32  O   UNL     1      -2.798   8.596   1.769  0.00  0.00    -0.452 OA
ATOM     33  C   UNL     1       2.160   8.656   2.358  0.00  0.00    +0.017 C 
ATOM     34  C   UNL     1       3.195   7.794   3.082  0.00  0.00    -0.074 C 
ATOM     35  C   UNL     1       4.340   5.666   2.907  0.00  0.00    -0.095 C 
ATOM     36  N   UNL     1       3.152   6.443   2.488  0.00  0.00    +0.383 N 
ATOM     37  H   UNL     1       3.151   6.527   1.465  0.00  0.00    -0.081 HD
BRANCH  29  38
ATOM     38  O   UNL     1      -0.637   4.657   2.815  0.00  0.00    -0.491 OA
ATOM     39  C   UNL     1      -0.841   4.267   4.174  0.00  0.00    +0.277 C 
ENDBRANCH  29  38
ENDBRANCH  22  23
ENDBRANCH  20  22
ENDBRANCH  18  20
BRANCH   5  40
ATOM     40  O   UNL     1      -3.174  -3.171  -2.628  0.00  0.00    -0.392 OA
ATOM     41  H   UNL     1      -4.107  -3.236  -2.383  0.00  0.00    +0.210 HD
ENDBRANCH   5  40
TORSDOF 5
