REMARK  Name = ZINC20465042
REMARK  11 active torsions:
REMARK  status: ('A' for Active; 'I' for Inactive)
REMARK    1  A    between atoms: C_1  and  O_2
REMARK    2  A    between atoms: O_2  and  C_3
REMARK    3  A    between atoms: C_5  and  N_11
REMARK    4  A    between atoms: C_7  and  O_9
REMARK    5  A    between atoms: O_9  and  C_10
REMARK    6  A    between atoms: N_14  and  C_15
REMARK    7  A    between atoms: C_15  and  C_16
REMARK    8  A    between atoms: C_18  and  N_28
REMARK    9  A    between atoms: C_20  and  O_27
REMARK   10  A    between atoms: C_22  and  C_25
REMARK   11  A    between atoms: C_25  and  O_26
REMARK                            x       y       z     vdW  Elec       q    Type
REMARK                         _______ _______ _______ _____ _____    ______ ____
ROOT
ATOM      1  C   UNL     1      -3.620   1.613  -0.182  0.00  0.00    +0.135 C 
ENDROOT
BRANCH   1   5
ATOM      2  N   UNL     1      -0.003   1.000   0.066  0.00  0.00    -0.269 N 
ATOM      3  C   UNL     1      -1.183   1.618  -0.133  0.00  0.00    +0.304 C 
ATOM      4  O   UNL     1      -1.209   2.788  -0.463  0.00  0.00    -0.253 OA
ATOM      5  N   UNL     1      -2.336   0.940   0.035  0.00  0.00    -0.297 N 
ATOM      6  H   UNL     1       0.023  -0.076   0.296  0.00  0.00    +0.156 HD
ATOM      7  H   UNL     1      -2.313  -0.118   0.333  0.00  0.00    +0.150 HD
BRANCH   2  10
ATOM      8  C   UNL     1       3.436   2.135   0.731  0.00  0.00    +0.125 A 
ATOM      9  C   UNL     1       2.253   1.416   0.817  0.00  0.00    +0.069 A 
ATOM     10  C   UNL     1       1.191   1.726  -0.020  0.00  0.00    +0.042 A 
ATOM     11  C   UNL     1       1.314   2.752  -0.946  0.00  0.00    +0.069 A 
ATOM     12  C   UNL     1       2.495   3.474  -1.027  0.00  0.00    +0.125 A 
ATOM     13  C   UNL     1       3.556   3.164  -0.191  0.00  0.00    +0.091 A 
BRANCH   8  15
ATOM     14  C   UNL     1       5.664   2.613   1.408  0.00  0.00    +0.277 C 
ATOM     15  O   UNL     1       4.476   1.832   1.551  0.00  0.00    -0.495 OA
ENDBRANCH   8  15
BRANCH  12  16
ATOM     16  O   UNL     1       2.613   4.483  -1.930  0.00  0.00    -0.495 OA
ATOM     17  C   UNL     1       3.860   5.181  -1.962  0.00  0.00    +0.277 C 
ENDBRANCH  12  16
ENDBRANCH   2  10
ENDBRANCH   1   5
BRANCH   1  18
ATOM     18  C   UNL     1      -4.761   0.626   0.073  0.00  0.00    +0.125 C 
ATOM     19  C   UNL     1      -6.112   1.368   0.037  0.00  0.00    -0.006 C 
ATOM     20  C   UNL     1      -6.726   1.097   1.436  0.00  0.00    +0.134 C 
ATOM     21  C   UNL     1      -5.957  -0.170   1.889  0.00  0.00    +0.171 C 
ATOM     22  O   UNL     1      -4.623   0.046   1.380  0.00  0.00    -0.369 OA
BRANCH  19  23
ATOM     23  N   UNL     1      -5.903   2.808  -0.164  0.00  0.00    +0.385 N 
ATOM     24  C   UNL     1      -5.651   3.115  -1.595  0.00  0.00    -0.078 C 
ATOM     25  C   UNL     1      -5.980   4.625  -1.697  0.00  0.00    -0.020 C 
ATOM     26  C   UNL     1      -7.193   4.779  -0.750  0.00  0.00    -0.020 C 
ATOM     27  C   UNL     1      -7.111   3.576   0.207  0.00  0.00    -0.078 C 
ATOM     28  H   UNL     1      -5.045   3.077   0.470  0.00  0.00    -0.081 HD
ENDBRANCH  19  23
BRANCH  20  29
ATOM     29  O   UNL     1      -6.478   2.189   2.324  0.00  0.00    -0.391 OA
ATOM     30  H   UNL     1      -6.850   2.152   3.358  0.00  0.00    +0.210 HD
ENDBRANCH  20  29
BRANCH  21  31
ATOM     31  C   UNL     1      -5.942  -0.278   3.415  0.00  0.00    +0.190 C 
BRANCH  31  32
ATOM     32  O   UNL     1      -5.239  -1.461   3.801  0.00  0.00    -0.392 OA
ATOM     33  H   UNL     1      -5.124  -1.709   4.867  0.00  0.00    +0.210 HD
ENDBRANCH  31  32
ENDBRANCH  21  31
ENDBRANCH   1  18
TORSDOF 9
