REMARK  Name = ZINC00719918
REMARK  8 active torsions:
REMARK  status: ('A' for Active; 'I' for Inactive)
REMARK    1  A    between atoms: C_1  and  O_2
REMARK    2  A    between atoms: O_2  and  C_3
REMARK    3  A    between atoms: C_6  and  C_11
REMARK    4  A    between atoms: C_8  and  O_9
REMARK    5  A    between atoms: O_9  and  C_10
REMARK    6  A    between atoms: C_14  and  C_40
REMARK    7  A    between atoms: C_19  and  C_21
REMARK    8  A    between atoms: N_26  and  C_29
REMARK                            x       y       z     vdW  Elec       q    Type
REMARK                         _______ _______ _______ _____ _____    ______ ____
ROOT
ATOM      1  C   UNL     1      -0.066  -4.636  -0.134  0.00  0.00    +0.104 C 
ATOM      2  C   UNL     1      -1.260  -4.428   0.804  0.00  0.00    +0.063 C 
ATOM      3  C   UNL     1      -2.041  -3.178   0.385  0.00  0.00    +0.215 C 
ATOM      4  N   UNL     1      -1.102  -2.063   0.227  0.00  0.00    -0.238 N 
ATOM      5  C   UNL     1       0.243  -2.225   0.053  0.00  0.00    +0.119 A 
ATOM      6  C   UNL     1       0.803  -1.003  -0.052  0.00  0.00    +0.078 A 
ATOM      7  C   UNL     1      -0.233  -0.049   0.058  0.00  0.00    +0.149 A 
ATOM      8  N   UNL     1      -1.373  -0.696   0.231  0.00  0.00    -0.164 NA
ATOM      9  N   UNL     1       0.847  -3.485   0.005  0.00  0.00    -0.322 N 
ATOM     10  H   UNL     1       1.933  -3.648   0.065  0.00  0.00    +0.148 HD
ENDROOT
BRANCH   7  11
ATOM     11  C   UNL     1      -0.070   1.419  -0.002  0.00  0.00    +0.267 C 
ATOM     12  O   UNL     1       1.043   1.905  -0.042  0.00  0.00    -0.268 OA
ATOM     13  N   UNL     1      -1.156   2.217  -0.018  0.00  0.00    -0.300 N 
ATOM     14  C   UNL     1      -1.018   3.675  -0.154  0.00  0.00    +0.089 C 
ATOM     15  C   UNL     1      -1.938   4.142  -1.293  0.00  0.00    -0.059 C 
ATOM     16  N   UNL     1      -3.305   3.669  -1.037  0.00  0.00    +0.384 N 
ATOM     17  C   UNL     1      -3.370   2.201  -1.039  0.00  0.00    -0.059 C 
ATOM     18  C   UNL     1      -2.509   1.654   0.105  0.00  0.00    +0.089 C 
ATOM     19  H   UNL     1      -3.597   4.016  -0.035  0.00  0.00    -0.081 HD
BRANCH  16  20
ATOM     20  C   UNL     1      -4.249   4.239  -2.007  0.00  0.00    -0.062 C 
ATOM     21  C   UNL     1      -4.104   5.762  -2.027  0.00  0.00    -0.024 C 
ATOM     22  C   UNL     1      -5.087   6.355  -3.038  0.00  0.00    +0.005 C 
ATOM     23  C   UNL     1      -6.516   5.985  -2.636  0.00  0.00    -0.010 C 
ATOM     24  C   UNL     1      -6.816   6.544  -1.244  0.00  0.00    +0.007 C 
ATOM     25  C   UNL     1      -5.832   5.951  -0.233  0.00  0.00    -0.010 C 
ATOM     26  C   UNL     1      -4.403   6.321  -0.635  0.00  0.00    +0.005 C 
ATOM     27  C   UNL     1      -5.978   4.428  -0.213  0.00  0.00    +0.005 C 
ATOM     28  C   UNL     1      -5.678   3.869  -1.605  0.00  0.00    -0.024 C 
ATOM     29  C   UNL     1      -6.662   4.462  -2.616  0.00  0.00    +0.005 C 
ENDBRANCH  16  20
ENDBRANCH   7  11
BRANCH   1  33
ATOM     30  C   UNL     1      -1.433  -4.899  -4.178  0.00  0.00    +0.162 A 
ATOM     31  C   UNL     1      -1.310  -3.663  -3.564  0.00  0.00    +0.050 A 
ATOM     32  C   UNL     1      -0.873  -3.582  -2.255  0.00  0.00    +0.009 A 
ATOM     33  C   UNL     1      -0.547  -4.731  -1.559  0.00  0.00    -0.024 A 
ATOM     34  C   UNL     1      -0.668  -5.967  -2.166  0.00  0.00    +0.054 A 
ATOM     35  C   UNL     1      -1.110  -6.056  -3.476  0.00  0.00    +0.162 A 
BRANCH  30  37
ATOM     36  C   UNL     1      -2.180  -3.752  -6.123  0.00  0.00    +0.277 C 
ATOM     37  O   UNL     1      -1.868  -4.981  -5.464  0.00  0.00    -0.491 OA
ENDBRANCH  30  37
BRANCH  35  38
ATOM     38  O   UNL     1      -1.229  -7.271  -4.074  0.00  0.00    -0.491 OA
ATOM     39  C   UNL     1      -0.881  -8.416  -3.293  0.00  0.00    +0.277 C 
ENDBRANCH  35  38
ENDBRANCH   1  33
BRANCH   3  40
ATOM     40  C   UNL     1      -3.070  -2.831   1.463  0.00  0.00    +0.412 C 
ATOM     41  F   UNL     1      -2.413  -2.586   2.674  0.00  0.00    -0.168 F 
ATOM     42  F   UNL     1      -3.781  -1.689   1.079  0.00  0.00    -0.168 F 
ATOM     43  F   UNL     1      -3.957  -3.902   1.622  0.00  0.00    -0.168 F 
ENDBRANCH   3  40
TORSDOF 6
