REMARK  Name = ZINC59333900
REMARK  11 active torsions:
REMARK  status: ('A' for Active; 'I' for Inactive)
REMARK    1  A    between atoms: C_1  and  C_2
REMARK    2  A    between atoms: C_2  and  C_4
REMARK    3  A    between atoms: C_2  and  N_11
REMARK    4  A    between atoms: N_11  and  C_12
REMARK    5  A    between atoms: N_11  and  C_28
REMARK    6  A    between atoms: C_12  and  C_13
REMARK    7  A    between atoms: N_15  and  C_16
REMARK    8  A    between atoms: C_16  and  C_17
REMARK    9  A    between atoms: C_17  and  C_18
REMARK   10  A    between atoms: C_21  and  S_24
REMARK   11  A    between atoms: S_24  and  N_27
REMARK                            x       y       z     vdW  Elec       q    Type
REMARK                         _______ _______ _______ _____ _____    ______ ____
ROOT
ATOM      1  C   UNL     1       1.802  -2.251   2.380  0.00  0.00    +0.197 C 
ATOM      2  O   UNL     1       2.271  -1.364   3.062  0.00  0.00    -0.278 OA
ATOM      3  N   UNL     1       2.068  -3.539   2.675  0.00  0.00    -0.317 N 
ATOM      4  H   UNL     1       1.693  -4.248   2.130  0.00  0.00    +0.149 HD
ENDROOT
BRANCH   1   5
ATOM      5  C   UNL     1       0.923  -1.912   1.204  0.00  0.00    +0.020 C 
BRANCH   5   6
ATOM      6  N   UNL     1       0.687  -0.463   1.170  0.00  0.00    +0.392 N 
ATOM      7  H   UNL     1       0.126  -0.232   0.364  0.00  0.00    -0.080 HD
BRANCH   6   8
ATOM      8  C   UNL     1       1.974   0.241   1.087  0.00  0.00    -0.067 C 
ATOM      9  C   UNL     1       2.103   1.357   0.050  0.00  0.00    -0.017 C 
ATOM     10  C   UNL     1       2.819   0.023  -0.170  0.00  0.00    -0.017 C 
ENDBRANCH   6   8
BRANCH   6  12
ATOM     11  C   UNL     1      -0.141   1.473   2.421  0.00  0.00    -0.008 C 
ATOM     12  C   UNL     1      -0.018  -0.052   2.392  0.00  0.00    -0.038 C 
BRANCH  12  13
ATOM     13  C   UNL     1      -1.393  -0.668   2.409  0.00  0.00    -0.043 A 
ATOM     14  C   UNL     1      -1.961  -1.124   1.235  0.00  0.00    +0.003 A 
ATOM     15  C   UNL     1      -3.223  -1.689   1.251  0.00  0.00    +0.000 A 
ATOM     16  C   UNL     1      -3.917  -1.797   2.441  0.00  0.00    +0.001 A 
ATOM     17  C   UNL     1      -3.350  -1.341   3.616  0.00  0.00    +0.020 A 
ATOM     18  C   UNL     1      -2.085  -0.781   3.602  0.00  0.00    +0.043 A 
ATOM     19 CL   UNL     1      -1.369  -0.214   5.078  0.00  0.00    -0.083 Cl
ENDBRANCH  12  13
ENDBRANCH   6  12
ENDBRANCH   5   6
ENDBRANCH   1   5
BRANCH   3  20
ATOM     20  C   UNL     1       2.923  -3.868   3.818  0.00  0.00    +0.109 C 
BRANCH  20  21
ATOM     21  C   UNL     1       3.063  -5.387   3.930  0.00  0.00    +0.054 C 
BRANCH  21  22
ATOM     22  C   UNL     1       3.942  -5.725   5.106  0.00  0.00    -0.046 A 
ATOM     23  C   UNL     1       5.310  -5.839   4.936  0.00  0.00    +0.005 A 
ATOM     24  C   UNL     1       6.117  -6.149   6.015  0.00  0.00    +0.029 A 
ATOM     25  C   UNL     1       5.556  -6.346   7.263  0.00  0.00    +0.105 A 
ATOM     26  C   UNL     1       4.189  -6.231   7.433  0.00  0.00    +0.029 A 
ATOM     27  C   UNL     1       3.383  -5.917   6.355  0.00  0.00    +0.005 A 
BRANCH  25  28
ATOM     28  S   UNL     1       6.585  -6.742   8.638  0.00  0.00    +0.056 S 
ATOM     29  O   UNL     1       5.761  -7.413   9.581  0.00  0.00    -0.153 OA
ATOM     30  O   UNL     1       7.766  -7.327   8.106  0.00  0.00    -0.153 OA
BRANCH  28  31
ATOM     31  N   UNL     1       7.039  -5.312   9.338  0.00  0.00    -0.204 NA
ATOM     32  H   UNL     1       7.217  -5.274  10.291  0.00  0.00    +0.144 HD
ATOM     33  H   UNL     1       7.128  -4.513   8.795  0.00  0.00    +0.144 HD
ENDBRANCH  28  31
ENDBRANCH  25  28
ENDBRANCH  21  22
ENDBRANCH  20  21
ENDBRANCH   3  20
TORSDOF 10
