REMARK  Name = ZINC40119146
REMARK  6 active torsions:
REMARK  status: ('A' for Active; 'I' for Inactive)
REMARK    1  A    between atoms: C_1  and  C_2
REMARK    2  A    between atoms: C_2  and  C_4
REMARK    3  A    between atoms: C_2  and  N_10
REMARK    4  A    between atoms: N_13  and  C_14
REMARK    5  A    between atoms: C_14  and  C_15
REMARK    6  A    between atoms: C_15  and  N_16
REMARK                            x       y       z     vdW  Elec       q    Type
REMARK                         _______ _______ _______ _____ _____    ______ ____
ROOT
ATOM      1  N   UNL     1      -1.372  -0.511   0.012  0.00  0.00    -0.292 N 
ATOM      2  C   UNL     1      -2.029  -0.655   1.181  0.00  0.00    +0.300 C 
ATOM      3  O   UNL     1      -1.480  -0.364   2.226  0.00  0.00    -0.253 OA
ATOM      4  N   UNL     1      -3.293  -1.122   1.190  0.00  0.00    -0.298 N 
ATOM      5  H   UNL     1      -1.810  -0.743  -0.822  0.00  0.00    +0.151 HD
ATOM      6  H   UNL     1      -3.731  -1.354   0.356  0.00  0.00    +0.150 HD
ENDROOT
BRANCH   1   8
ATOM      7  C   UNL     1      -0.019   1.526   0.010  0.00  0.00    +0.033 C 
ATOM      8  C   UNL     1       0.002  -0.004   0.002  0.00  0.00    +0.108 C 
BRANCH   8   9
ATOM      9  C   UNL     1       0.707  -0.490  -1.238  0.00  0.00    +0.011 A 
ATOM     10  C   UNL     1       1.980  -0.934  -1.377  0.00  0.00    +0.014 A 
ATOM     11  C   UNL     1       2.418  -1.335  -2.626  0.00  0.00    +0.028 A 
ATOM     12  C   UNL     1       1.560  -1.271  -3.674  0.00  0.00    +0.078 A 
ATOM     13  S   UNL     1       0.081  -0.638  -2.903  0.00  0.00    -0.080 S 
ATOM     14 CL   UNL     1       1.830  -1.701  -5.335  0.00  0.00    -0.076 Cl
ENDBRANCH   8   9
ENDBRANCH   1   8
BRANCH   4  15
ATOM     15  C   UNL     1      -4.006  -1.278   2.460  0.00  0.00    +0.124 C 
BRANCH  15  16
ATOM     16  C   UNL     1      -5.412  -1.820   2.192  0.00  0.00    +0.121 C 
BRANCH  16  17
ATOM     17  N   UNL     1      -6.125  -1.977   3.462  0.00  0.00    -0.329 N 
ATOM     18  C   UNL     1      -7.429  -2.458   3.472  0.00  0.00    +0.096 A 
ATOM     19  C   UNL     1      -8.049  -2.794   2.273  0.00  0.00    +0.041 A 
ATOM     20  C   UNL     1      -9.347  -3.272   2.297  0.00  0.00    +0.005 A 
ATOM     21  C   UNL     1      -9.984  -3.398   3.525  0.00  0.00    +0.018 A 
ATOM     22  C   UNL     1      -9.309  -3.045   4.676  0.00  0.00    +0.084 A 
ATOM     23  N   UNL     1      -8.069  -2.597   4.623  0.00  0.00    -0.350 N 
ATOM     24  H   UNL     1      -5.688  -1.745   4.296  0.00  0.00    +0.147 HD
ATOM     25  H   UNL     1      -7.616  -2.360   5.447  0.00  0.00    +0.166 HD
ENDBRANCH  16  17
ENDBRANCH  15  16
ENDBRANCH   4  15
TORSDOF 5
