REMARK  Name = ZINC49153140
REMARK  7 active torsions:
REMARK  status: ('A' for Active; 'I' for Inactive)
REMARK    1  A    between atoms: C_1  and  C_2
REMARK    2  A    between atoms: C_2  and  N_3
REMARK    3  A    between atoms: C_6  and  N_9
REMARK    4  A    between atoms: N_12  and  C_13
REMARK    5  A    between atoms: C_13  and  C_15
REMARK    6  A    between atoms: C_13  and  C_16
REMARK    7  A    between atoms: C_16  and  N_17
REMARK                            x       y       z     vdW  Elec       q    Type
REMARK                         _______ _______ _______ _____ _____    ______ ____
ROOT
ATOM      1  N   UNL     1       1.738  -2.477   4.765  0.00  0.00    -0.297 N 
ATOM      2  C   UNL     1       1.632  -3.730   5.248  0.00  0.00    +0.300 C 
ATOM      3  O   UNL     1       0.865  -4.519   4.729  0.00  0.00    -0.253 OA
ATOM      4  N   UNL     1       2.375  -4.110   6.306  0.00  0.00    -0.295 N 
ATOM      5  H   UNL     1       2.350  -1.848   5.179  0.00  0.00    +0.151 HD
ATOM      6  H   UNL     1       2.986  -3.481   6.721  0.00  0.00    +0.151 HD
ENDROOT
BRANCH   1  10
ATOM      7  N   UNL     1       0.713  -0.491   1.192  0.00  0.00    +0.380 N 
ATOM      8  C   UNL     1      -0.036  -0.111   2.396  0.00  0.00    -0.077 C 
ATOM      9  C   UNL     1       0.741  -0.544   3.642  0.00  0.00    +0.004 C 
ATOM     10  C   UNL     1       0.930  -2.063   3.615  0.00  0.00    +0.071 C 
ATOM     11  C   UNL     1       1.646  -2.456   2.319  0.00  0.00    +0.004 C 
ATOM     12  C   UNL     1       0.836  -1.952   1.123  0.00  0.00    -0.077 C 
ATOM     13  H   UNL     1       1.632  -0.077   1.226  0.00  0.00    -0.082 HD
BRANCH   7  15
ATOM     14  C   UNL     1      -0.019   1.526   0.010  0.00  0.00    -0.017 C 
ATOM     15  C   UNL     1       0.002  -0.004   0.002  0.00  0.00    -0.082 C 
ENDBRANCH   7  15
ENDBRANCH   1  10
BRANCH   4  16
ATOM     16  C   UNL     1       2.259  -5.473   6.831  0.00  0.00    +0.091 C 
ATOM     17  C   UNL     1       3.178  -6.405   6.038  0.00  0.00    +0.029 C 
BRANCH  16  18
ATOM     18  C   UNL     1       2.668  -5.488   8.306  0.00  0.00    +0.144 C 
BRANCH  18  19
ATOM     19  N   UNL     1       1.717  -4.691   9.084  0.00  0.00    -0.337 N 
ATOM     20  C   UNL     1       1.805  -3.351   9.348  0.00  0.00    +0.104 A 
ATOM     21  C   UNL     1       0.729  -3.028  10.091  0.00  0.00    +0.101 A 
ATOM     22  N   UNL     1       0.003  -4.141  10.275  0.00  0.00    -0.352 N 
ATOM     23  C   UNL     1       0.586  -5.140   9.670  0.00  0.00    +0.173 A 
ATOM     24  H   UNL     1      -0.827  -4.194  10.775  0.00  0.00    +0.166 HD
ENDBRANCH  18  19
ENDBRANCH  16  18
ENDBRANCH   4  16
TORSDOF 5
