REMARK  Name = ZINC04905896
REMARK  3 active torsions:
REMARK  status: ('A' for Active; 'I' for Inactive)
REMARK    1  A    between atoms: C_10  and  N_15
REMARK    2  A    between atoms: N_15  and  N_16
REMARK    3  A    between atoms: C_17  and  C_18
REMARK                            x       y       z     vdW  Elec       q    Type
REMARK                         _______ _______ _______ _____ _____    ______ ____
ROOT
ATOM      1  C   UNL     1      -3.111   3.689   0.079  0.00  0.00    +0.001 A 
ATOM      2  C   UNL     1      -3.451   2.352  -0.005  0.00  0.00    +0.002 A 
ATOM      3  C   UNL     1      -2.494   1.349  -0.035  0.00  0.00    +0.026 A 
ATOM      4  C   UNL     1      -1.158   1.738   0.017  0.00  0.00    +0.050 A 
ATOM      5  C   UNL     1      -0.812   3.108   0.108  0.00  0.00    +0.029 A 
ATOM      6  C   UNL     1      -1.789   4.102   0.139  0.00  0.00    +0.012 A 
ATOM      7  C   UNL     1       0.641   3.168   0.159  0.00  0.00    +0.131 A 
ATOM      8  N   UNL     1       1.489   4.151   0.333  0.00  0.00    -0.180 NA
ATOM      9  N   UNL     1       2.845   3.772   0.448  0.00  0.00    -0.229 N 
ATOM     10  C   UNL     1       3.335   2.567  -0.223  0.00  0.00    +0.290 C 
ATOM     11  C   UNL     1       1.102   1.761   0.001  0.00  0.00    +0.136 A 
ATOM     12  N   UNL     1      -0.011   0.966   0.007  0.00  0.00    -0.339 N 
ATOM     13  H   UNL     1       0.002  -0.004   0.002  0.00  0.00    +0.167 HD
ATOM     14  H   UNL     1       3.455   4.314   0.974  0.00  0.00    +0.172 HD
ATOM     15  N   UNL     1       2.387   1.408  -0.101  0.00  0.00    -0.334 N 
ATOM     16  H   UNL     1       2.700   0.430  -0.097  0.00  0.00    +0.164 HD
ENDROOT
BRANCH  10  17
ATOM     17  N   UNL     1       3.553   2.861  -1.641  0.00  0.00    -0.230 N 
ATOM     18  H   UNL     1       2.994   3.513  -2.093  0.00  0.00    +0.172 HD
BRANCH  17  19
ATOM     19  N   UNL     1       4.569   2.202  -2.345  0.00  0.00    -0.191 NA
ATOM     20  C   UNL     1       4.762   2.463  -3.604  0.00  0.00    +0.145 C 
BRANCH  20  21
ATOM     21  C   UNL     1       5.826   1.772  -4.341  0.00  0.00    +0.032 A 
ATOM     22  C   UNL     1       6.190   1.898  -5.670  0.00  0.00    +0.017 A 
ATOM     23  C   UNL     1       7.237   1.136  -6.137  0.00  0.00    +0.008 A 
ATOM     24  C   UNL     1       7.869   0.284  -5.289  0.00  0.00    +0.046 A 
ATOM     25  S   UNL     1       6.984   0.543  -3.760  0.00  0.00    -0.096 S 
ENDBRANCH  20  21
ENDBRANCH  17  19
ENDBRANCH  10  17
TORSDOF 3
