REMARK  Name = ZINC46905641
REMARK  13 active torsions:
REMARK  status: ('A' for Active; 'I' for Inactive)
REMARK    1  A    between atoms: C_1  and  C_2
REMARK    2  A    between atoms: C_7  and  N_8
REMARK    3  A    between atoms: N_11  and  N_12
REMARK    4  A    between atoms: N_15  and  C_16
REMARK    5  A    between atoms: C_16  and  C_17
REMARK    6  A    between atoms: C_17  and  C_19
REMARK    7  A    between atoms: C_17  and  N_22
REMARK    8  A    between atoms: C_19  and  C_20
REMARK    9  A    between atoms: C_19  and  C_21
REMARK   10  A    between atoms: N_22  and  C_23
REMARK   11  A    between atoms: N_22  and  C_26
REMARK   12  A    between atoms: C_23  and  C_24
REMARK   13  A    between atoms: C_26  and  C_27
REMARK                            x       y       z     vdW  Elec       q    Type
REMARK                         _______ _______ _______ _____ _____    ______ ____
ROOT
ATOM      1  N   UNL     1      -0.793   2.901   5.238  0.00  0.00    -0.217 N 
ATOM      2  C   UNL     1      -0.560   3.081   6.553  0.00  0.00    +0.316 C 
ATOM      3  O   UNL     1      -0.209   4.170   6.966  0.00  0.00    -0.251 OA
ATOM      4  N   UNL     1      -0.716   2.054   7.412  0.00  0.00    -0.300 N 
ATOM      5  H   UNL     1      -0.681   3.641   4.620  0.00  0.00    +0.174 HD
ATOM      6  H   UNL     1      -0.996   1.185   7.083  0.00  0.00    +0.150 HD
ENDROOT
BRANCH   1  10
ATOM      7  N   UNL     1      -1.275   2.495   2.590  0.00  0.00    -0.268 N 
ATOM      8  C   UNL     1      -1.431   1.468   3.448  0.00  0.00    +0.320 C 
ATOM      9  O   UNL     1      -1.782   0.379   3.036  0.00  0.00    -0.251 OA
ATOM     10  N   UNL     1      -1.198   1.647   4.763  0.00  0.00    -0.217 N 
ATOM     11  H   UNL     1      -0.928   3.344   2.907  0.00  0.00    +0.156 HD
ATOM     12  H   UNL     1      -1.310   0.908   5.381  0.00  0.00    +0.174 HD
BRANCH   7  19
ATOM     13  C   UNL     1      -2.354   4.734   1.204  0.00  0.00    +0.045 C 
ATOM     14  C   UNL     1      -2.142   3.404   0.527  0.00  0.00    -0.029 A 
ATOM     15  C   UNL     1      -2.469   3.247  -0.806  0.00  0.00    +0.005 A 
ATOM     16  C   UNL     1      -2.275   2.027  -1.428  0.00  0.00    +0.000 A 
ATOM     17  C   UNL     1      -1.754   0.961  -0.718  0.00  0.00    +0.002 A 
ATOM     18  C   UNL     1      -1.425   1.112   0.615  0.00  0.00    +0.023 A 
ATOM     19  C   UNL     1      -1.613   2.337   1.241  0.00  0.00    +0.038 A 
ENDBRANCH   7  19
ENDBRANCH   1  10
BRANCH   4  20
ATOM     20  C   UNL     1      -0.463   2.249   8.842  0.00  0.00    +0.091 C 
BRANCH  20  21
ATOM     21  C   UNL     1      -0.530   0.899   9.560  0.00  0.00    -0.048 C 
BRANCH  21  22
ATOM     22  C   UNL     1      -0.565   1.128  11.072  0.00  0.00    -0.029 C 
ATOM     23  C   UNL     1      -1.859   1.852  11.449  0.00  0.00    +0.005 C 
ATOM     24  C   UNL     1      -0.506  -0.220  11.794  0.00  0.00    +0.005 C 
ENDBRANCH  21  22
BRANCH  21  25
ATOM     25  N   UNL     1       0.654   0.101   9.213  0.00  0.00    +0.387 N 
ATOM     26  H   UNL     1       0.651  -0.754   9.749  0.00  0.00    -0.080 HD
BRANCH  25  27
ATOM     27  C   UNL     1       0.625  -0.219   7.780  0.00  0.00    -0.051 C 
BRANCH  27  28
ATOM     28  C   UNL     1       1.589  -1.342   7.496  0.00  0.00    -0.053 C 
ATOM     29  C   UNL     1       1.163  -2.446   6.935  0.00  0.00    +0.002 C 
ENDBRANCH  27  28
ENDBRANCH  25  27
BRANCH  25  30
ATOM     30  C   UNL     1       1.869   0.867   9.520  0.00  0.00    -0.051 C 
BRANCH  30  31
ATOM     31  C   UNL     1       3.076  -0.020   9.359  0.00  0.00    -0.053 C 
ATOM     32  C   UNL     1       4.053   0.341   8.564  0.00  0.00    +0.002 C 
ENDBRANCH  30  31
ENDBRANCH  25  30
ENDBRANCH  21  25
ENDBRANCH  20  21
ENDBRANCH   4  20
TORSDOF 10
