REMARK  Name = ZINC04416161
REMARK  6 active torsions:
REMARK  status: ('A' for Active; 'I' for Inactive)
REMARK    1  A    between atoms: C_7  and  C_12
REMARK    2  A    between atoms: C_7  and  C_20
REMARK    3  A    between atoms: C_15  and  O_19
REMARK    4  A    between atoms: C_16  and  O_18
REMARK    5  A    between atoms: C_23  and  O_27
REMARK    6  A    between atoms: C_24  and  O_26
REMARK                            x       y       z     vdW  Elec       q    Type
REMARK                         _______ _______ _______ _____ _____    ______ ____
ROOT
ATOM      1  C   UNL     1       5.798  -0.985   0.536  0.00  0.00    +0.000 A 
ATOM      2  C   UNL     1       6.157  -0.740   1.849  0.00  0.00    +0.002 A 
ATOM      3  C   UNL     1       5.715   0.415   2.474  0.00  0.00    +0.030 A 
ATOM      4  C   UNL     1       4.928   1.299   1.784  0.00  0.00    +0.124 A 
ATOM      5  C   UNL     1       4.549   1.062   0.469  0.00  0.00    +0.023 A 
ATOM      6  C   UNL     1       5.000  -0.092  -0.152  0.00  0.00    +0.009 A 
ATOM      7  C   UNL     1       3.676   2.185  -0.023  0.00  0.00    +0.175 C 
ATOM      8  O   UNL     1       3.820   3.372   0.769  0.00  0.00    -0.213 OA
ATOM      9  S   UNL     1       4.173   2.852   2.178  0.00  0.00    +0.114 S 
ATOM     10  O   UNL     1       5.186   3.699   2.705  0.00  0.00    -0.142 OA
ATOM     11  O   UNL     1       2.953   2.582   2.853  0.00  0.00    -0.142 OA
ENDROOT
BRANCH   7  12
ATOM     12  C   UNL     1       2.237   1.740   0.021  0.00  0.00    -0.001 A 
ATOM     13  C   UNL     1       1.928   0.395  -0.063  0.00  0.00    +0.011 A 
ATOM     14  C   UNL     1       0.609  -0.018  -0.024  0.00  0.00    +0.049 A 
ATOM     15  C   UNL     1      -0.406   0.916   0.100  0.00  0.00    +0.158 A 
ATOM     16  C   UNL     1      -0.095   2.270   0.185  0.00  0.00    +0.159 A 
ATOM     17  C   UNL     1       1.228   2.678   0.145  0.00  0.00    +0.056 A 
BRANCH  16  18
ATOM     18  O   UNL     1      -1.089   3.192   0.300  0.00  0.00    -0.503 OA
ATOM     19  H   UNL     1      -1.334   3.393   1.214  0.00  0.00    +0.292 HD
ENDBRANCH  16  18
BRANCH  15  20
ATOM     20  O   UNL     1      -1.704   0.511   0.138  0.00  0.00    -0.503 OA
ATOM     21  H   UNL     1      -2.126   0.460  -0.731  0.00  0.00    +0.292 HD
ENDBRANCH  15  20
ENDBRANCH   7  12
BRANCH   7  22
ATOM     22  C   UNL     1       4.046   2.501  -1.449  0.00  0.00    -0.001 A 
ATOM     23  C   UNL     1       3.756   1.596  -2.453  0.00  0.00    +0.011 A 
ATOM     24  C   UNL     1       4.093   1.881  -3.763  0.00  0.00    +0.049 A 
ATOM     25  C   UNL     1       4.723   3.076  -4.072  0.00  0.00    +0.158 A 
ATOM     26  C   UNL     1       5.015   3.986  -3.062  0.00  0.00    +0.159 A 
ATOM     27  C   UNL     1       4.669   3.697  -1.751  0.00  0.00    +0.056 A 
BRANCH  26  28
ATOM     28  O   UNL     1       5.634   5.160  -3.360  0.00  0.00    -0.503 OA
ATOM     29  H   UNL     1       5.026   5.884  -3.565  0.00  0.00    +0.292 HD
ENDBRANCH  26  28
BRANCH  25  30
ATOM     30  O   UNL     1       5.056   3.357  -5.361  0.00  0.00    -0.503 OA
ATOM     31  H   UNL     1       4.365   3.823  -5.852  0.00  0.00    +0.292 HD
ENDBRANCH  25  30
ENDBRANCH   7  22
TORSDOF 6
