REMARK  Name = ZINC44327207
REMARK  9 active torsions:
REMARK  status: ('A' for Active; 'I' for Inactive)
REMARK    1  A    between atoms: C_1  and  O_2
REMARK    2  A    between atoms: O_2  and  C_3
REMARK    3  A    between atoms: C_5  and  C_12
REMARK    4  A    between atoms: C_8  and  O_9
REMARK    5  A    between atoms: C_12  and  C_13
REMARK    6  A    between atoms: C_13  and  C_15
REMARK    7  A    between atoms: C_13  and  N_19
REMARK    8  A    between atoms: C_15  and  O_17
REMARK    9  A    between atoms: O_17  and  C_18
REMARK                            x       y       z     vdW  Elec       q    Type
REMARK                         _______ _______ _______ _____ _____    ______ ____
ROOT
ATOM      1  C   UNL     1       0.606  -0.608  -1.057  0.00  0.00    +0.163 A 
ATOM      2  C   UNL     1       1.173   0.159  -2.062  0.00  0.00    +0.054 A 
ATOM      3  C   UNL     1       1.787  -0.455  -3.138  0.00  0.00    -0.030 A 
ATOM      4  C   UNL     1       1.838  -1.835  -3.213  0.00  0.00    +0.039 A 
ATOM      5  C   UNL     1       1.274  -2.607  -2.212  0.00  0.00    +0.077 A 
ATOM      6  C   UNL     1       0.662  -1.996  -1.129  0.00  0.00    +0.174 A 
ATOM      7 BR   UNL     1       1.344  -4.493  -2.319  0.00  0.00    -0.045 Br
ATOM      8 BR   UNL     1       2.679  -2.669  -4.687  0.00  0.00    -0.049 Br
ENDROOT
BRANCH   1  10
ATOM      9  C   UNL     1      -0.017   1.425   0.010  0.00  0.00    +0.277 C 
ATOM     10  O   UNL     1       0.002  -0.004   0.002  0.00  0.00    -0.491 OA
ENDBRANCH   1  10
BRANCH   6  11
ATOM     11  O   UNL     1       0.112  -2.752  -0.141  0.00  0.00    -0.503 OA
ATOM     12  H   UNL     1      -0.817  -2.979  -0.290  0.00  0.00    +0.292 HD
ENDBRANCH   6  11
BRANCH   3  13
ATOM     13  C   UNL     1       2.403   0.381  -4.230  0.00  0.00    +0.031 C 
BRANCH  13  14
ATOM     14  C   UNL     1       3.916   0.463  -4.018  0.00  0.00    +0.040 C 
BRANCH  14  15
ATOM     15  N   UNL     1       4.197   1.185  -2.771  0.00  0.00    +0.387 N 
ATOM     16  H   UNL     1       3.776   0.696  -1.996  0.00  0.00    -0.089 HD
ATOM     17  H   UNL     1       5.195   1.239  -2.631  0.00  0.00    -0.089 HD
ATOM     18  H   UNL     1       3.815   2.117  -2.828  0.00  0.00    -0.089 HD
ENDBRANCH  14  15
BRANCH  14  19
ATOM     19  C   UNL     1       4.546   1.194  -5.176  0.00  0.00    +0.292 C 
ATOM     20  O   UNL     1       4.844   2.360  -5.063  0.00  0.00    -0.253 OA
BRANCH  19  21
ATOM     21  O   UNL     1       4.776   0.551  -6.331  0.00  0.00    -0.469 OA
ATOM     22  C   UNL     1       5.376   1.306  -7.386  0.00  0.00    +0.280 C 
ENDBRANCH  19  21
ENDBRANCH  14  19
ENDBRANCH  13  14
ENDBRANCH   3  13
TORSDOF 7
