REMARK  Name = ZINC39675407
REMARK  11 active torsions:
REMARK  status: ('A' for Active; 'I' for Inactive)
REMARK    1  A    between atoms: C_1  and  C_2
REMARK    2  A    between atoms: C_2  and  C_4
REMARK    3  A    between atoms: C_2  and  N_14
REMARK    4  A    between atoms: C_4  and  C_5
REMARK    5  A    between atoms: C_5  and  C_6
REMARK    6  A    between atoms: C_9  and  O_12
REMARK    7  A    between atoms: O_12  and  C_13
REMARK    8  A    between atoms: C_15  and  C_17
REMARK    9  A    between atoms: C_28  and  C_30
REMARK   10  A    between atoms: C_34  and  O_35
REMARK   11  A    between atoms: O_35  and  C_36
REMARK                            x       y       z     vdW  Elec       q    Type
REMARK                         _______ _______ _______ _____ _____    ______ ____
ROOT
ATOM      1  C   UNL     1      -3.436  -1.155   1.189  0.00  0.00    +0.100 C 
ATOM      2  C   UNL     1      -4.400  -0.131   0.548  0.00  0.00    +0.121 C 
ATOM      3  N   UNL     1      -5.639  -0.228   1.355  0.00  0.00    -0.296 N 
ATOM      4  C   UNL     1      -5.160  -0.388   2.749  0.00  0.00    +0.115 C 
ATOM      5  C   UNL     1      -3.938  -1.320   2.633  0.00  0.00    -0.004 C 
ATOM      6  C   UNL     1      -2.855  -0.894   3.620  0.00  0.00    -0.010 C 
ATOM      7  C   UNL     1      -3.355  -1.123   5.050  0.00  0.00    -0.082 C 
ATOM      8  N   UNL     1      -3.684  -2.541   5.234  0.00  0.00    +0.379 N 
ATOM      9  C   UNL     1      -4.790  -2.919   4.346  0.00  0.00    -0.082 C 
ATOM     10  C   UNL     1      -4.350  -2.767   2.887  0.00  0.00    -0.010 C 
ATOM     11  C   UNL     1      -6.914  -0.183   0.920  0.00  0.00    +0.251 C 
ATOM     12  O   UNL     1      -7.149  -0.148  -0.273  0.00  0.00    -0.270 OA
ATOM     13  H   UNL     1      -2.875  -3.104   5.019  0.00  0.00    -0.086 HD
ATOM     14  H   UNL     1      -3.955  -2.700   6.193  0.00  0.00    -0.086 HD
ENDROOT
BRANCH  11  15
ATOM     15  C   UNL     1      -8.021  -0.175   1.888  0.00  0.00    +0.087 A 
ATOM     16  C   UNL     1      -7.912   0.461   3.105  0.00  0.00    +0.063 A 
ATOM     17  S   UNL     1      -9.395   0.200   3.844  0.00  0.00    -0.081 S 
ATOM     18  C   UNL     1     -10.211  -0.752   2.581  0.00  0.00    +0.120 A 
ATOM     19  C   UNL     1      -9.278  -0.829   1.605  0.00  0.00    +0.158 A 
ATOM     20 CL   UNL     1     -11.815  -1.415   2.596  0.00  0.00    -0.072 Cl
BRANCH  19  21
ATOM     21  O   UNL     1      -9.507  -1.485   0.433  0.00  0.00    -0.492 OA
ATOM     22  C   UNL     1      -9.172  -2.873   0.391  0.00  0.00    +0.277 C 
ENDBRANCH  19  21
ENDBRANCH  11  15
BRANCH   1  24
ATOM     23  N   UNL     1      -0.985  -1.473   1.289  0.00  0.00    -0.312 N 
ATOM     24  C   UNL     1      -2.026  -0.624   1.180  0.00  0.00    +0.218 C 
ATOM     25  O   UNL     1      -1.827   0.568   1.076  0.00  0.00    -0.275 OA
ATOM     26  H   UNL     1      -1.144  -2.427   1.373  0.00  0.00    +0.149 HD
BRANCH  23  28
ATOM     27  C   UNL     1       0.860  -0.793  -0.164  0.00  0.00    +0.028 C 
ATOM     28  C   UNL     1       0.386  -0.957   1.281  0.00  0.00    +0.070 C 
BRANCH  28  29
ATOM     29  C   UNL     1       1.305  -1.939   2.011  0.00  0.00    +0.026 C 
BRANCH  29  30
ATOM     30  C   UNL     1       0.907  -2.009   3.486  0.00  0.00    +0.037 C 
BRANCH  30  31
ATOM     31  C   UNL     1       1.812  -2.976   4.205  0.00  0.00    -0.047 A 
ATOM     32  C   UNL     1       1.471  -4.314   4.283  0.00  0.00    +0.007 A 
ATOM     33  C   UNL     1       2.299  -5.202   4.942  0.00  0.00    +0.046 A 
ATOM     34  C   UNL     1       3.474  -4.751   5.525  0.00  0.00    +0.120 A 
ATOM     35  C   UNL     1       3.814  -3.409   5.446  0.00  0.00    +0.046 A 
ATOM     36  C   UNL     1       2.986  -2.525   4.781  0.00  0.00    +0.007 A 
BRANCH  34  37
ATOM     37  O   UNL     1       4.290  -5.623   6.174  0.00  0.00    -0.495 OA
ATOM     38  C   UNL     1       5.483  -5.088   6.751  0.00  0.00    +0.277 C 
ENDBRANCH  34  37
ENDBRANCH  30  31
ENDBRANCH  29  30
ENDBRANCH  28  29
ENDBRANCH  23  28
ENDBRANCH   1  24
TORSDOF 8
