REMARK  Name = ZINC22616029
REMARK  13 active torsions:
REMARK  status: ('A' for Active; 'I' for Inactive)
REMARK    1  A    between atoms: C_1  and  C_2
REMARK    2  A    between atoms: C_2  and  C_4
REMARK    3  A    between atoms: C_2  and  O_28
REMARK    4  A    between atoms: N_6  and  N_7
REMARK    5  A    between atoms: C_8  and  C_10
REMARK    6  A    between atoms: C_10  and  C_12
REMARK    7  A    between atoms: C_10  and  N_17
REMARK    8  A    between atoms: C_12  and  C_13
REMARK    9  A    between atoms: C_13  and  C_14
REMARK   10  A    between atoms: C_18  and  O_20
REMARK   11  A    between atoms: O_20  and  C_21
REMARK   12  A    between atoms: C_21  and  C_22
REMARK   13  A    between atoms: O_28  and  C_29
REMARK                            x       y       z     vdW  Elec       q    Type
REMARK                         _______ _______ _______ _____ _____    ______ ____
ROOT
ATOM      1  C   UNL     1      -0.488   1.742   0.447  0.00  0.00    +0.164 C 
ENDROOT
BRANCH   1   3
ATOM      2  N   UNL     1      -1.456  -0.530   0.314  0.00  0.00    -0.233 N 
ATOM      3  C   UNL     1      -0.364   0.240   0.481  0.00  0.00    +0.250 C 
ATOM      4  O   UNL     1       0.720  -0.274   0.659  0.00  0.00    -0.272 OA
ATOM      5  H   UNL     1      -2.439  -0.064   0.152  0.00  0.00    +0.173 HD
BRANCH   2   8
ATOM      6  C   UNL     1      -2.433  -2.697   0.178  0.00  0.00    +0.270 C 
ATOM      7  O   UNL     1      -3.517  -2.182  -0.000  0.00  0.00    -0.270 OA
ATOM      8  N   UNL     1      -1.341  -1.926   0.345  0.00  0.00    -0.231 N 
ATOM      9  H   UNL     1      -0.358  -2.393   0.506  0.00  0.00    +0.173 HD
BRANCH   6  11
ATOM     10  C   UNL     1      -1.461  -4.667  -0.973  0.00  0.00    +0.062 C 
ATOM     11  C   UNL     1      -2.309  -4.199   0.211  0.00  0.00    +0.257 C 
BRANCH  11  12
ATOM     12  O   UNL     1      -3.609  -4.786   0.128  0.00  0.00    -0.477 OA
BRANCH  12  13
ATOM     13  C   UNL     1      -3.757  -6.032   0.652  0.00  0.00    +0.157 A 
ATOM     14  C   UNL     1      -2.653  -6.721   1.130  0.00  0.00    +0.048 A 
ATOM     15  C   UNL     1      -2.806  -7.987   1.662  0.00  0.00    +0.004 A 
ATOM     16  C   UNL     1      -4.060  -8.568   1.719  0.00  0.00    +0.003 A 
ATOM     17  C   UNL     1      -5.163  -7.885   1.244  0.00  0.00    +0.042 A 
ATOM     18  C   UNL     1      -5.017  -6.615   0.714  0.00  0.00    +0.165 A 
ATOM     19  F   UNL     1      -6.096  -5.945   0.254  0.00  0.00    -0.202 F 
ENDBRANCH  12  13
ENDBRANCH  11  12
ENDBRANCH   6  11
ENDBRANCH   2   8
ENDBRANCH   1   3
BRANCH   1  20
ATOM     20  N   UNL     1       0.831   2.346   0.652  0.00  0.00    -0.270 N 
ATOM     21  C   UNL     1       0.930   3.592   1.156  0.00  0.00    +0.401 C 
ATOM     22  O   UNL     1      -0.074   4.215   1.440  0.00  0.00    -0.226 OA
ATOM     23  H   UNL     1       1.740   1.783   0.395  0.00  0.00    +0.153 HD
BRANCH  21  24
ATOM     24  O   UNL     1       2.142   4.147   1.344  0.00  0.00    -0.446 OA
BRANCH  24  25
ATOM     25  C   UNL     1       2.173   5.492   1.891  0.00  0.00    +0.269 C 
BRANCH  25  26
ATOM     26  C   UNL     1       3.604   5.945   2.030  0.00  0.00    -0.010 A 
ATOM     27  C   UNL     1       4.292   5.706   3.205  0.00  0.00    +0.007 A 
ATOM     28  C   UNL     1       5.606   6.117   3.331  0.00  0.00    +0.000 A 
ATOM     29  C   UNL     1       6.228   6.775   2.287  0.00  0.00    +0.000 A 
ATOM     30  C   UNL     1       5.538   7.019   1.114  0.00  0.00    +0.000 A 
ATOM     31  C   UNL     1       4.226   6.603   0.986  0.00  0.00    +0.007 A 
ENDBRANCH  25  26
ENDBRANCH  24  25
ENDBRANCH  21  24
ENDBRANCH   1  20
BRANCH   1  32
ATOM     32  C   UNL     1      -1.043   2.177  -0.911  0.00  0.00    +0.041 C 
BRANCH  32  33
ATOM     33  C   UNL     1      -1.287   3.688  -0.901  0.00  0.00    +0.098 C 
BRANCH  33  34
ATOM     34  C   UNL     1      -1.834   4.116  -2.239  0.00  0.00    +0.211 C 
ATOM     35  O   UNL     1      -2.011   3.295  -3.113  0.00  0.00    -0.276 OA
ATOM     36  N   UNL     1      -2.126   5.413  -2.463  0.00  0.00    -0.329 N 
ATOM     37  H   UNL     1      -2.525   5.726  -3.439  0.00  0.00    +0.145 HD
ATOM     38  H   UNL     1      -1.965   6.158  -1.670  0.00  0.00    +0.145 HD
ENDBRANCH  33  34
ENDBRANCH  32  33
ENDBRANCH   1  32
TORSDOF 12
