REMARK  Name = ZINC40894055
REMARK  8 active torsions:
REMARK  status: ('A' for Active; 'I' for Inactive)
REMARK    1  A    between atoms: C_1  and  C_2
REMARK    2  A    between atoms: C_2  and  C_4
REMARK    3  A    between atoms: C_2  and  N_10
REMARK    4  A    between atoms: C_11  and  C_13
REMARK    5  A    between atoms: C_18  and  O_24
REMARK    6  A    between atoms: O_24  and  C_25
REMARK    7  A    between atoms: C_25  and  C_27
REMARK    8  A    between atoms: C_28  and  C_29
REMARK                            x       y       z     vdW  Elec       q    Type
REMARK                         _______ _______ _______ _____ _____    ______ ____
ROOT
ATOM      1  C   UNL     1       0.638  -0.999  -3.622  0.00  0.00    +0.122 A 
ATOM      2  C   UNL     1      -0.041  -1.236  -4.812  0.00  0.00    +0.031 A 
ATOM      3  C   UNL     1       0.699  -1.726  -5.915  0.00  0.00    +0.019 A 
ATOM      4  C   UNL     1       0.113  -1.794  -7.190  0.00  0.00    +0.015 A 
ATOM      5  C   UNL     1       0.848  -2.228  -8.252  0.00  0.00    +0.047 A 
ATOM      6  C   UNL     1       2.178  -2.613  -8.083  0.00  0.00    +0.135 A 
ATOM      7  C   UNL     1       2.768  -2.572  -6.830  0.00  0.00    +0.093 A 
ATOM      8  C   UNL     1       2.034  -2.141  -5.737  0.00  0.00    +0.143 A 
ATOM      9  O   UNL     1       2.586  -2.138  -4.500  0.00  0.00    -0.422 OA
ATOM     10  C   UNL     1       2.092  -1.239  -3.613  0.00  0.00    +0.350 A 
ATOM     11  O   UNL     1       2.821  -0.654  -2.833  0.00  0.00    -0.244 OA
ENDROOT
BRANCH   1  13
ATOM     12  N   UNL     1       0.620  -0.293  -1.284  0.00  0.00    -0.305 N 
ATOM     13  C   UNL     1      -0.066  -0.520  -2.422  0.00  0.00    +0.251 C 
ATOM     14  O   UNL     1      -1.266  -0.330  -2.456  0.00  0.00    -0.270 OA
ATOM     15  H   UNL     1       1.578  -0.445  -1.256  0.00  0.00    +0.150 HD
BRANCH  12  17
ATOM     16  C   UNL     1      -0.206   1.707  -0.144  0.00  0.00    +0.033 C 
ATOM     17  C   UNL     1      -0.081   0.183  -0.089  0.00  0.00    +0.100 C 
BRANCH  17  18
ATOM     18  C   UNL     1       0.696  -0.213   1.140  0.00  0.00    -0.027 A 
ATOM     19  C   UNL     1       2.076  -0.128   1.143  0.00  0.00    +0.005 A 
ATOM     20  C   UNL     1       2.788  -0.491   2.270  0.00  0.00    +0.000 A 
ATOM     21  C   UNL     1       2.121  -0.938   3.396  0.00  0.00    +0.000 A 
ATOM     22  C   UNL     1       0.741  -1.022   3.393  0.00  0.00    +0.000 A 
ATOM     23  C   UNL     1       0.029  -0.655   2.267  0.00  0.00    +0.005 A 
ENDBRANCH  17  18
ENDBRANCH  12  17
ENDBRANCH   1  13
BRANCH   6  24
ATOM     24  O   UNL     1       2.900  -3.031  -9.154  0.00  0.00    -0.423 OA
BRANCH  24  25
ATOM     25  C   UNL     1       3.229  -2.119 -10.091  0.00  0.00    +0.337 C 
ATOM     26  O   UNL     1       2.972  -0.943  -9.913  0.00  0.00    -0.245 OA
BRANCH  25  27
ATOM     27  C   UNL     1       3.895  -2.542 -11.322  0.00  0.00    +0.092 C 
ATOM     28  C   UNL     1       4.225  -1.629 -12.259  0.00  0.00    +0.015 C 
BRANCH  28  29
ATOM     29  C   UNL     1       4.895  -2.055 -13.498  0.00  0.00    -0.023 A 
ATOM     30  C   UNL     1       5.187  -3.407 -13.709  0.00  0.00    +0.009 A 
ATOM     31  C   UNL     1       5.815  -3.800 -14.871  0.00  0.00    +0.022 A 
ATOM     32  C   UNL     1       6.158  -2.860 -15.830  0.00  0.00    +0.059 A 
ATOM     33  C   UNL     1       5.872  -1.518 -15.627  0.00  0.00    +0.060 A 
ATOM     34  C   UNL     1       5.238  -1.112 -14.472  0.00  0.00    +0.029 A 
ATOM     35 CL   UNL     1       6.306  -0.349 -16.835  0.00  0.00    -0.082 Cl
ATOM     36 CL   UNL     1       6.950  -3.364 -17.290  0.00  0.00    -0.082 Cl
ENDBRANCH  28  29
ENDBRANCH  25  27
ENDBRANCH  24  25
ENDBRANCH   6  24
TORSDOF 7
