REMARK  Name = ZINC35456943
REMARK  16 active torsions:
REMARK  status: ('A' for Active; 'I' for Inactive)
REMARK    1  A    between atoms: C_1  and  C_2
REMARK    2  A    between atoms: C_5  and  O_36
REMARK    3  A    between atoms: C_8  and  C_34
REMARK    4  A    between atoms: C_8  and  C_35
REMARK    5  A    between atoms: C_9  and  C_10
REMARK    6  A    between atoms: C_9  and  O_33
REMARK    7  A    between atoms: C_11  and  C_12
REMARK    8  A    between atoms: C_12  and  C_14
REMARK    9  A    between atoms: C_12  and  O_16
REMARK   10  A    between atoms: C_14  and  O_15
REMARK   11  A    between atoms: O_16  and  C_17
REMARK   12  A    between atoms: C_19  and  O_32
REMARK   13  A    between atoms: C_21  and  O_31
REMARK   14  A    between atoms: C_23  and  O_30
REMARK   15  A    between atoms: C_25  and  C_28
REMARK   16  A    between atoms: C_28  and  O_29
REMARK                            x       y       z     vdW  Elec       q    Type
REMARK                         _______ _______ _______ _____ _____    ______ ____
ROOT
ATOM      1  C   UNL     1       4.446   0.617   1.486  0.00  0.00    +0.169 C 
ENDROOT
BRANCH   1   3
ATOM      2  C   UNL     1       2.027   0.298   1.375  0.00  0.00    +0.006 C 
ATOM      3  C   UNL     1       3.220  -0.236   1.283  0.00  0.00    +0.005 C 
BRANCH   2  10
ATOM      4  C   UNL     1      -0.019   1.524   0.010  0.00  0.00    +0.011 C 
ATOM      5  C   UNL     1       0.002  -0.004   0.002  0.00  0.00    +0.024 C 
ATOM      6  C   UNL     1      -1.410  -0.562  -0.086  0.00  0.00    +0.037 C 
ATOM      7  C   UNL     1      -2.137  -0.413   1.249  0.00  0.00    +0.116 C 
ATOM      8  C   UNL     1      -1.373  -1.192   2.317  0.00  0.00    +0.040 C 
ATOM      9  C   UNL     1       0.037  -0.640   2.487  0.00  0.00    +0.000 C 
ATOM     10  C   UNL     1       0.794  -0.561   1.171  0.00  0.00    +0.092 C 
ATOM     11  C   UNL     1       0.808  -1.598   3.421  0.00  0.00    +0.014 C 
ATOM     12  C   UNL     1      -0.013   0.728   3.174  0.00  0.00    +0.014 C 
BRANCH  10  13
ATOM     13  O   UNL     1       1.244  -1.885   0.828  0.00  0.00    -0.384 OA
ATOM     14  H   UNL     1       1.812  -1.918   0.046  0.00  0.00    +0.211 HD
ENDBRANCH  10  13
BRANCH   7  15
ATOM     15  O   UNL     1      -3.458  -0.956   1.126  0.00  0.00    -0.392 OA
ATOM     16  H   UNL     1      -4.000  -0.524   0.452  0.00  0.00    +0.210 HD
ENDBRANCH   7  15
ENDBRANCH   2  10
ENDBRANCH   1   3
BRANCH   1  17
ATOM     17  C   UNL     1       5.258   0.071   2.662  0.00  0.00    +0.191 C 
BRANCH  17  18
ATOM     18  O   UNL     1       5.556  -1.308   2.435  0.00  0.00    -0.392 OA
ATOM     19  H   UNL     1       6.070  -1.721   3.142  0.00  0.00    +0.210 HD
ENDBRANCH  17  18
ENDBRANCH   1  17
BRANCH   1  20
ATOM     20  O   UNL     1       5.245   0.592   0.302  0.00  0.00    -0.339 OA
BRANCH  20  21
ATOM     21  C   UNL     1       5.998   1.786   0.084  0.00  0.00    +0.282 C 
ATOM     22  C   UNL     1       6.906   1.602  -1.135  0.00  0.00    +0.201 C 
ATOM     23  C   UNL     1       7.665   2.906  -1.399  0.00  0.00    +0.179 C 
ATOM     24  C   UNL     1       6.656   4.042  -1.592  0.00  0.00    +0.177 C 
ATOM     25  C   UNL     1       5.758   4.132  -0.355  0.00  0.00    +0.178 C 
ATOM     26  O   UNL     1       5.105   2.877  -0.149  0.00  0.00    -0.341 OA
BRANCH  24  27
ATOM     27  O   UNL     1       7.354   5.277  -1.767  0.00  0.00    -0.386 OA
ATOM     28  H   UNL     1       7.945   5.289  -2.532  0.00  0.00    +0.210 HD
ENDBRANCH  24  27
BRANCH  23  29
ATOM     29  O   UNL     1       8.461   2.767  -2.577  0.00  0.00    -0.386 OA
ATOM     30  H   UNL     1       9.119   2.060  -2.526  0.00  0.00    +0.210 HD
ENDBRANCH  23  29
BRANCH  22  31
ATOM     31  O   UNL     1       7.838   0.549  -0.883  0.00  0.00    -0.384 OA
ATOM     32  H   UNL     1       7.424  -0.307  -0.703  0.00  0.00    +0.210 HD
ENDBRANCH  22  31
BRANCH  25  33
ATOM     33  C   UNL     1       4.708   5.225  -0.565  0.00  0.00    +0.190 C 
BRANCH  33  34
ATOM     34  O   UNL     1       3.945   5.389   0.632  0.00  0.00    -0.392 OA
ATOM     35  H   UNL     1       3.259   6.068   0.572  0.00  0.00    +0.210 HD
ENDBRANCH  33  34
ENDBRANCH  25  33
ENDBRANCH  20  21
ENDBRANCH   1  20
TORSDOF 13
