REMARK  Name = ZINC09494719
REMARK  11 active torsions:
REMARK  status: ('A' for Active; 'I' for Inactive)
REMARK    1  A    between atoms: C_1  and  C_2
REMARK    2  A    between atoms: C_2  and  O_3
REMARK    3  A    between atoms: O_3  and  C_4
REMARK    4  A    between atoms: C_4  and  C_6
REMARK    5  A    between atoms: C_12  and  C_14
REMARK    6  A    between atoms: C_12  and  C_20
REMARK    7  A    between atoms: C_12  and  N_66
REMARK    8  A    between atoms: C_21  and  C_35
REMARK    9  A    between atoms: C_22  and  C_34
REMARK   10  A    between atoms: C_24  and  N_25
REMARK   11  A    between atoms: C_26  and  C_28
REMARK                            x       y       z     vdW  Elec       q    Type
REMARK                         _______ _______ _______ _____ _____    ______ ____
ROOT
ATOM      1  C   UNL     1      -0.730   1.372   8.574  0.00  0.00    -0.004 C 
ENDROOT
BRANCH   1   7
ATOM      2  C   UNL     1       0.572   0.196   5.242  0.00  0.00    +0.081 C 
ATOM      3  C   UNL     1       1.992   0.761   5.334  0.00  0.00    +0.011 C 
ATOM      4  C   UNL     1       2.494   0.631   6.775  0.00  0.00    -0.018 C 
ATOM      5  C   UNL     1       1.533   1.365   7.713  0.00  0.00    -0.077 C 
ATOM      6  C   UNL     1      -0.333   0.942   6.225  0.00  0.00    -0.063 C 
ATOM      7  N   UNL     1       0.190   0.757   7.595  0.00  0.00    +0.388 N 
ATOM      8  H   UNL     1       0.261  -0.249   7.791  0.00  0.00    -0.080 HD
BRANCH   2   9
ATOM      9  C   UNL     1       0.049   0.374   3.841  0.00  0.00    +0.308 C 
ATOM     10  O   UNL     1      -0.946   1.031   3.647  0.00  0.00    -0.251 OA
BRANCH   9  11
ATOM     11  O   UNL     1       0.689  -0.197   2.808  0.00  0.00    -0.465 OA
BRANCH  11  13
ATOM     12  C   UNL     1       0.986  -0.704   0.445  0.00  0.00    +0.048 C 
ATOM     13  C   UNL     1       0.128   0.018   1.486  0.00  0.00    +0.229 C 
ENDBRANCH  11  13
ENDBRANCH   9  11
ENDBRANCH   2   9
ENDBRANCH   1   7
BRANCH   1  14
ATOM     14  C   UNL     1      -0.059   1.416   9.923  0.00  0.00    -0.025 A 
ATOM     15  C   UNL     1      -0.149   2.543  10.718  0.00  0.00    -0.037 A 
ATOM     16  C   UNL     1       0.466   2.549  11.925  0.00  0.00    -0.008 A 
ATOM     17  S   UNL     1       1.205   0.924  11.974  0.00  0.00    -0.078 S 
ATOM     18  C   UNL     1       0.642   0.342  10.383  0.00  0.00    +0.074 A 
ATOM     19  C   UNL     1       0.512   3.643  12.960  0.00  0.00    +0.052 C 
ATOM     20  C   UNL     1      -0.920   3.749  10.248  0.00  0.00    +0.045 C 
BRANCH  18  21
ATOM     21  N   UNL     1       0.865  -0.892   9.769  0.00  0.00    -0.276 N 
ATOM     22  C   UNL     1       1.489  -1.878  10.444  0.00  0.00    +0.249 C 
ATOM     23  O   UNL     1       1.858  -1.692  11.588  0.00  0.00    -0.270 OA
ATOM     24  H   UNL     1       0.570  -1.040   8.857  0.00  0.00    +0.156 HD
BRANCH  22  25
ATOM     25  C   UNL     1       1.724  -3.184   9.795  0.00  0.00    +0.037 A 
ATOM     26  C   UNL     1       1.297  -3.403   8.484  0.00  0.00    +0.013 A 
ATOM     27  C   UNL     1       1.525  -4.623   7.882  0.00  0.00    +0.001 A 
ATOM     28  C   UNL     1       2.165  -5.633   8.578  0.00  0.00    +0.000 A 
ATOM     29  C   UNL     1       2.587  -5.425   9.879  0.00  0.00    +0.001 A 
ATOM     30  C   UNL     1       2.371  -4.207  10.491  0.00  0.00    +0.013 A 
ENDBRANCH  22  25
ENDBRANCH  18  21
ENDBRANCH   1  14
BRANCH   1  31
ATOM     31  C   UNL     1      -1.978   0.532   8.660  0.00  0.00    -0.057 A 
ATOM     32  C   UNL     1      -1.907  -0.834   8.456  0.00  0.00    +0.002 A 
ATOM     33  C   UNL     1      -3.050  -1.605   8.540  0.00  0.00    +0.000 A 
ATOM     34  C   UNL     1      -4.267  -1.011   8.818  0.00  0.00    +0.000 A 
ATOM     35  C   UNL     1      -4.339   0.355   9.017  0.00  0.00    +0.000 A 
ATOM     36  C   UNL     1      -3.194   1.127   8.938  0.00  0.00    +0.002 A 
ENDBRANCH   1  31
TORSDOF 8
