REMARK  Name = ZINC00755768
REMARK  6 active torsions:
REMARK  status: ('A' for Active; 'I' for Inactive)
REMARK    1  A    between atoms: C_1  and  O_2
REMARK    2  A    between atoms: O_2  and  C_3
REMARK    3  A    between atoms: C_8  and  C_9
REMARK    4  A    between atoms: C_14  and  N_23
REMARK    5  A    between atoms: C_18  and  N_22
REMARK    6  A    between atoms: C_19  and  C_20
REMARK                            x       y       z     vdW  Elec       q    Type
REMARK                         _______ _______ _______ _____ _____    ______ ____
ROOT
ATOM      1  C   UNL     1       0.002  -0.004   0.002  0.00  0.00    +0.101 C 
ATOM      2  C   UNL     1       1.364  -0.508   0.399  0.00  0.00    +0.008 A 
ATOM      3  C   UNL     1       1.513  -1.827   0.793  0.00  0.00    +0.010 A 
ATOM      4  C   UNL     1       2.754  -2.307   1.161  0.00  0.00    +0.023 A 
ATOM      5  C   UNL     1       3.860  -1.466   1.136  0.00  0.00    +0.028 A 
ATOM      6  C   UNL     1       3.713  -0.144   0.741  0.00  0.00    +0.069 A 
ATOM      7  C   UNL     1       2.463   0.336   0.372  0.00  0.00    +0.136 A 
ATOM      8  O   UNL     1       2.337   1.630  -0.011  0.00  0.00    -0.441 OA
ATOM      9  C   UNL     1       1.129   2.218   0.003  0.00  0.00    +0.199 C 
ATOM     10  C   UNL     1      -0.018   1.499   0.010  0.00  0.00    +0.098 C 
ENDROOT
BRANCH   1  16
ATOM     11  C   UNL     1      -1.435  -1.315  -1.580  0.00  0.00    +0.124 A 
ATOM     12  C   UNL     1      -1.742  -1.766  -2.856  0.00  0.00    +0.047 A 
ATOM     13  C   UNL     1      -0.941  -1.412  -3.924  0.00  0.00    +0.019 A 
ATOM     14  C   UNL     1       0.164  -0.603  -3.723  0.00  0.00    +0.018 A 
ATOM     15  C   UNL     1       0.468  -0.148  -2.453  0.00  0.00    +0.023 A 
ATOM     16  C   UNL     1      -0.330  -0.500  -1.382  0.00  0.00    +0.008 A 
ATOM     17 BR   UNL     1       1.259  -0.120  -5.187  0.00  0.00    -0.050 Br
BRANCH  11  19
ATOM     18  C   UNL     1      -3.339  -2.509  -0.805  0.00  0.00    +0.277 C 
ATOM     19  O   UNL     1      -2.218  -1.668  -0.527  0.00  0.00    -0.495 OA
ENDBRANCH  11  19
ENDBRANCH   1  16
BRANCH   9  20
ATOM     20  N   UNL     1       1.055   3.589   0.011  0.00  0.00    -0.328 N 
ATOM     21  H   UNL     1       0.190   4.028   0.021  0.00  0.00    +0.145 HD
ATOM     22  H   UNL     1       1.868   4.118   0.006  0.00  0.00    +0.145 HD
ENDBRANCH   9  20
BRANCH   5  23
ATOM     23  N   UNL     1       5.116  -1.950   1.508  0.00  0.00    -0.358 N 
ATOM     24  H   UNL     1       5.217  -2.874   1.784  0.00  0.00    +0.142 HD
ATOM     25  H   UNL     1       5.887  -1.361   1.490  0.00  0.00    +0.142 HD
ENDBRANCH   5  23
BRANCH  10  26
ATOM     26  C   UNL     1      -1.276   2.183   0.020  0.00  0.00    +0.101 C 
ATOM     27  N   UNL     1      -2.274   2.726   0.028  0.00  0.00    -0.191 NA
ENDBRANCH  10  26
TORSDOF 5
