REMARK  Name = ZINC51049657
REMARK  10 active torsions:
REMARK  status: ('A' for Active; 'I' for Inactive)
REMARK    1  A    between atoms: C_1  and  C_2
REMARK    2  A    between atoms: C_2  and  C_3
REMARK    3  A    between atoms: C_3  and  C_4
REMARK    4  A    between atoms: C_4  and  C_6
REMARK    5  A    between atoms: C_4  and  N_7
REMARK    6  A    between atoms: C_8  and  C_10
REMARK    7  A    between atoms: N_15  and  C_17
REMARK    8  A    between atoms: C_17  and  C_18
REMARK    9  A    between atoms: N_20  and  C_21
REMARK   10  A    between atoms: C_21  and  C_22
REMARK                            x       y       z     vdW  Elec       q    Type
REMARK                         _______ _______ _______ _____ _____    ______ ____
ROOT
ATOM      1  C   UNL     1       0.343  -4.238  -2.611  0.00  0.00    +0.058 C 
ATOM      2  C   UNL     1       1.448  -3.277  -3.060  0.00  0.00    +0.009 C 
ATOM      3  C   UNL     1       2.099  -3.822  -4.335  0.00  0.00    -0.018 C 
ATOM      4  C   UNL     1       2.629  -5.233  -4.067  0.00  0.00    -0.078 C 
ATOM      5  N   UNL     1       1.521  -6.109  -3.668  0.00  0.00    +0.386 N 
ATOM      6  C   UNL     1       0.938  -5.633  -2.408  0.00  0.00    -0.065 C 
ATOM      7  H   UNL     1       0.814  -6.104  -4.388  0.00  0.00    -0.081 HD
ENDROOT
BRANCH   1   9
ATOM      8  N   UNL     1      -0.834  -2.537  -1.256  0.00  0.00    -0.313 N 
ATOM      9  C   UNL     1      -0.252  -3.751  -1.315  0.00  0.00    +0.215 C 
ATOM     10  O   UNL     1      -0.206  -4.451  -0.326  0.00  0.00    -0.276 OA
ATOM     11  H   UNL     1      -0.871  -1.977  -2.047  0.00  0.00    +0.149 HD
BRANCH   8  12
ATOM     12  C   UNL     1      -1.413  -2.063   0.004  0.00  0.00    +0.070 C 
ATOM     13  C   UNL     1      -2.841  -2.594   0.141  0.00  0.00    +0.028 C 
BRANCH  12  14
ATOM     14  C   UNL     1      -1.433  -0.534   0.013  0.00  0.00    +0.022 C 
BRANCH  14  16
ATOM     15  C   UNL     1      -0.019   1.526   0.010  0.00  0.00    +0.004 C 
ATOM     16  C   UNL     1       0.002  -0.004   0.002  0.00  0.00    -0.002 C 
ENDBRANCH  14  16
ENDBRANCH  12  14
ENDBRANCH   8  12
ENDBRANCH   1   9
BRANCH   5  17
ATOM     17  C   UNL     1       2.022  -7.478  -3.488  0.00  0.00    +0.019 C 
BRANCH  17  18
ATOM     18  C   UNL     1       2.500  -8.016  -4.812  0.00  0.00    +0.197 C 
ATOM     19  O   UNL     1       2.430  -7.327  -5.808  0.00  0.00    -0.278 OA
ATOM     20  N   UNL     1       3.005  -9.263  -4.890  0.00  0.00    -0.313 N 
ATOM     21  H   UNL     1       3.061  -9.815  -4.094  0.00  0.00    +0.149 HD
BRANCH  20  22
ATOM     22  C   UNL     1       3.470  -9.787  -6.177  0.00  0.00    +0.149 C 
BRANCH  22  23
ATOM     23  C   UNL     1       3.992 -11.213  -5.990  0.00  0.00    +0.195 C 
ATOM     24  C   UNL     1       4.548 -11.772  -7.321  0.00  0.00    +0.085 C 
ATOM     25  C   UNL     1       4.137 -13.230  -7.244  0.00  0.00    -0.002 A 
ATOM     26  C   UNL     1       4.538 -14.342  -7.950  0.00  0.00    +0.007 A 
ATOM     27  C   UNL     1       3.990 -15.579  -7.661  0.00  0.00    +0.000 A 
ATOM     28  C   UNL     1       3.040 -15.693  -6.663  0.00  0.00    +0.004 A 
ATOM     29  C   UNL     1       2.634 -14.580  -5.957  0.00  0.00    +0.046 A 
ATOM     30  C   UNL     1       3.179 -13.330  -6.244  0.00  0.00    +0.124 A 
ATOM     31  O   UNL     1       2.913 -12.114  -5.687  0.00  0.00    -0.487 OA
ENDBRANCH  22  23
ENDBRANCH  20  22
ENDBRANCH  17  18
ENDBRANCH   5  17
TORSDOF 8
