REMARK  Name = ZINC62595571
REMARK  9 active torsions:
REMARK  status: ('A' for Active; 'I' for Inactive)
REMARK    1  A    between atoms: C_1  and  C_2
REMARK    2  A    between atoms: C_2  and  N_3
REMARK    3  A    between atoms: N_3  and  C_4
REMARK    4  A    between atoms: C_4  and  C_6
REMARK    5  A    between atoms: C_4  and  C_20
REMARK    6  A    between atoms: C_6  and  C_7
REMARK    7  A    between atoms: C_7  and  O_8
REMARK    8  A    between atoms: O_8  and  C_9
REMARK    9  A    between atoms: C_12  and  N_16
REMARK                            x       y       z     vdW  Elec       q    Type
REMARK                         _______ _______ _______ _____ _____    ______ ____
ROOT
ATOM      1  C   UNL     1       0.471  -2.082   3.666  0.00  0.00    +0.228 C 
ENDROOT
BRANCH   1   2
ATOM      2  C   UNL     1       1.361  -2.468   2.483  0.00  0.00    +0.034 C 
BRANCH   2   3
ATOM      3  C   UNL     1       0.733  -1.960   1.184  0.00  0.00    +0.019 C 
BRANCH   3   4
ATOM      4  C   UNL     1       1.543  -2.445   0.010  0.00  0.00    +0.197 C 
ATOM      5  O   UNL     1       2.054  -1.645  -0.746  0.00  0.00    -0.278 OA
ATOM      6  N   UNL     1       1.700  -3.766  -0.201  0.00  0.00    -0.331 N 
ATOM      7  H   UNL     1       1.292  -4.406   0.404  0.00  0.00    +0.145 HD
ATOM      8  H   UNL     1       2.222  -4.079  -0.956  0.00  0.00    +0.145 HD
ENDBRANCH   3   4
BRANCH   3   9
ATOM      9  N   UNL     1       0.713  -0.491   1.192  0.00  0.00    +0.387 N 
ATOM     10  H   UNL     1       1.659  -0.141   1.185  0.00  0.00    -0.085 HD
ATOM     11  H   UNL     1       0.240  -0.165   2.022  0.00  0.00    -0.085 HD
BRANCH   9  13
ATOM     12  C   UNL     1      -0.019   1.526   0.010  0.00  0.00    -0.017 C 
ATOM     13  C   UNL     1       0.002  -0.004   0.002  0.00  0.00    -0.085 C 
ENDBRANCH   9  13
ENDBRANCH   3   9
ENDBRANCH   2   3
ENDBRANCH   1   2
BRANCH   1  14
ATOM     14  O   UNL     1       1.059  -2.557   4.879  0.00  0.00    -0.490 OA
BRANCH  14  15
ATOM     15  C   UNL     1       0.389  -2.296   6.032  0.00  0.00    +0.148 A 
ATOM     16  C   UNL     1       0.643  -1.125   6.734  0.00  0.00    +0.063 A 
ATOM     17  C   UNL     1      -0.040  -0.862   7.907  0.00  0.00    +0.051 A 
ATOM     18  C   UNL     1      -0.974  -1.763   8.381  0.00  0.00    +0.129 A 
ATOM     19  C   UNL     1      -1.229  -2.930   7.685  0.00  0.00    +0.051 A 
ATOM     20  C   UNL     1      -0.554  -3.196   6.508  0.00  0.00    +0.063 A 
ATOM     21 BR   UNL     1      -0.909  -4.788   5.552  0.00  0.00    -0.046 Br
ATOM     22 BR   UNL     1       1.922   0.108   6.086  0.00  0.00    -0.046 Br
BRANCH  18  23
ATOM     23  N   UNL     1      -1.703  -1.478   9.638  0.00  0.00    +0.056 N 
ATOM     24  O   UNL     1      -1.481  -0.459  10.248  0.00  0.00    -0.126 OA
ATOM     25  O   UNL     1      -2.521  -2.266  10.054  0.00  0.00    -0.126 OA
ENDBRANCH  18  23
ENDBRANCH  14  15
ENDBRANCH   1  14
TORSDOF 8
