REMARK  Name = ZINC02638501
REMARK  11 active torsions:
REMARK  status: ('A' for Active; 'I' for Inactive)
REMARK    1  A    between atoms: C_1  and  C_2
REMARK    2  A    between atoms: C_2  and  C_4
REMARK    3  A    between atoms: C_2  and  N_53
REMARK    4  A    between atoms: C_7  and  S_16
REMARK    5  A    between atoms: N_8  and  C_9
REMARK    6  A    between atoms: S_16  and  C_17
REMARK    7  A    between atoms: C_17  and  C_18
REMARK    8  A    between atoms: N_20  and  C_21
REMARK    9  A    between atoms: C_26  and  C_27
REMARK   10  A    between atoms: C_32  and  N_53
REMARK   11  A    between atoms: C_33  and  N_53
REMARK                            x       y       z     vdW  Elec       q    Type
REMARK                         _______ _______ _______ _____ _____    ______ ____
ROOT
ATOM      1  C   UNL     1      -8.434   2.888  -0.571  0.00  0.00    +0.125 A 
ATOM      2  N   UNL     1      -7.557   3.848  -0.493  0.00  0.00    -0.135 NA
ATOM      3  N   UNL     1      -6.372   3.359  -0.397  0.00  0.00    -0.122 NA
ATOM      4  C   UNL     1      -6.428   2.047  -0.410  0.00  0.00    +0.197 A 
ATOM      5  N   UNL     1      -7.747   1.704  -0.526  0.00  0.00    -0.275 N 
ENDROOT
BRANCH   5   6
ATOM      6  C   UNL     1      -8.284   0.409  -0.585  0.00  0.00    +0.050 A 
ATOM      7  C   UNL     1      -8.929  -0.025  -1.736  0.00  0.00    +0.028 A 
ATOM      8  C   UNL     1      -9.453  -1.301  -1.793  0.00  0.00    +0.022 A 
ATOM      9  C   UNL     1      -9.345  -2.144  -0.701  0.00  0.00    +0.041 A 
ATOM     10  C   UNL     1      -8.707  -1.712   0.449  0.00  0.00    +0.022 A 
ATOM     11  C   UNL     1      -8.177  -0.438   0.509  0.00  0.00    +0.028 A 
ATOM     12 CL   UNL     1     -10.009  -3.746  -0.773  0.00  0.00    -0.084 Cl
ENDBRANCH   5   6
BRANCH   1  14
ATOM     13  C   UNL     1     -10.278   3.484  -2.118  0.00  0.00    -0.005 C 
ATOM     14  C   UNL     1      -9.928   3.050  -0.694  0.00  0.00    -0.003 C 
BRANCH  14  17
ATOM     15  C   UNL     1     -11.843   4.256   0.165  0.00  0.00    -0.096 C 
ATOM     16  C   UNL     1      -9.986   3.733   1.629  0.00  0.00    -0.096 C 
ATOM     17  N   UNL     1     -10.376   4.095   0.250  0.00  0.00    +0.382 N 
ATOM     18  H   UNL     1      -9.929   4.985  -0.000  0.00  0.00    -0.082 HD
ENDBRANCH  14  17
ENDBRANCH   1  14
BRANCH   4  19
ATOM     19  S   UNL     1      -5.062   0.939  -0.304  0.00  0.00    -0.076 S 
BRANCH  19  20
ATOM     20  C   UNL     1      -3.702   2.127  -0.184  0.00  0.00    +0.173 C 
BRANCH  20  21
ATOM     21  C   UNL     1      -2.395   1.385  -0.081  0.00  0.00    +0.227 C 
ATOM     22  O   UNL     1      -2.383   0.172  -0.088  0.00  0.00    -0.275 OA
ATOM     23  N   UNL     1      -1.238   2.069   0.019  0.00  0.00    -0.284 N 
ATOM     24  H   UNL     1      -1.251   3.037   0.090  0.00  0.00    +0.155 HD
BRANCH  23  25
ATOM     25  C   UNL     1      -0.017   1.384   0.020  0.00  0.00    +0.045 A 
ATOM     26  C   UNL     1       0.078   0.134   0.619  0.00  0.00    +0.025 A 
ATOM     27  C   UNL     1       1.282  -0.542   0.613  0.00  0.00    +0.022 A 
ATOM     28  C   UNL     1       2.393   0.024   0.012  0.00  0.00    +0.042 A 
ATOM     29  C   UNL     1       2.300   1.269  -0.584  0.00  0.00    +0.034 A 
ATOM     30  C   UNL     1       1.099   1.950  -0.582  0.00  0.00    +0.077 A 
ATOM     31 CL   UNL     1       3.905  -0.830   0.007  0.00  0.00    -0.084 Cl
BRANCH  30  32
ATOM     32  C   UNL     1       0.999   3.305  -1.232  0.00  0.00    +0.419 C 
ATOM     33  F   UNL     1       2.243   3.660  -1.765  0.00  0.00    -0.166 F 
ATOM     34  F   UNL     1       0.048   3.261  -2.257  0.00  0.00    -0.166 F 
ATOM     35  F   UNL     1       0.613   4.253  -0.278  0.00  0.00    -0.166 F 
ENDBRANCH  30  32
ENDBRANCH  23  25
ENDBRANCH  20  21
ENDBRANCH  19  20
ENDBRANCH   4  19
TORSDOF 8
