REMARK  Name = ZINC35455065
REMARK  13 active torsions:
REMARK  status: ('A' for Active; 'I' for Inactive)
REMARK    1  A    between atoms: C_1  and  C_2
REMARK    2  A    between atoms: C_2  and  O_4
REMARK    3  A    between atoms: O_4  and  C_5
REMARK    4  A    between atoms: C_7  and  O_40
REMARK    5  A    between atoms: C_9  and  O_39
REMARK    6  A    between atoms: C_11  and  C_37
REMARK    7  A    between atoms: C_14  and  O_16
REMARK    8  A    between atoms: O_16  and  C_17
REMARK    9  A    between atoms: C_21  and  O_36
REMARK   10  A    between atoms: C_23  and  O_35
REMARK   11  A    between atoms: C_27  and  C_28
REMARK   12  A    between atoms: C_31  and  O_34
REMARK   13  A    between atoms: C_37  and  O_38
REMARK                            x       y       z     vdW  Elec       q    Type
REMARK                         _______ _______ _______ _____ _____    ______ ____
ROOT
ATOM      1  C   UNL     1       3.533  -2.042  -0.089  0.00  0.00    +0.214 A 
ATOM      2  C   UNL     1       4.342  -1.647   1.008  0.00  0.00    +0.238 A 
ATOM      3  O   UNL     1       3.896  -0.952   1.907  0.00  0.00    -0.283 OA
ATOM      4  C   UNL     1       5.739  -2.110   1.020  0.00  0.00    +0.109 A 
ATOM      5  C   UNL     1       6.608  -1.768   2.064  0.00  0.00    +0.135 A 
ATOM      6  C   UNL     1       7.913  -2.223   2.039  0.00  0.00    +0.091 A 
ATOM      7  C   UNL     1       8.359  -3.012   0.984  0.00  0.00    +0.124 A 
ATOM      8  C   UNL     1       7.505  -3.353  -0.052  0.00  0.00    +0.092 A 
ATOM      9  C   UNL     1       6.191  -2.908  -0.045  0.00  0.00    +0.147 A 
ATOM     10  O   UNL     1       5.347  -3.233  -1.047  0.00  0.00    -0.451 OA
ATOM     11  C   UNL     1       4.067  -2.823  -1.070  0.00  0.00    +0.181 A 
ENDROOT
BRANCH  11  12
ATOM     12  C   UNL     1       3.212  -3.228  -2.200  0.00  0.00    +0.021 A 
ATOM     13  C   UNL     1       3.679  -3.106  -3.512  0.00  0.00    +0.015 A 
ATOM     14  C   UNL     1       2.877  -3.486  -4.565  0.00  0.00    +0.046 A 
ATOM     15  C   UNL     1       1.604  -3.991  -4.324  0.00  0.00    +0.117 A 
ATOM     16  C   UNL     1       1.136  -4.114  -3.022  0.00  0.00    +0.046 A 
ATOM     17  C   UNL     1       1.934  -3.742  -1.963  0.00  0.00    +0.015 A 
BRANCH  15  18
ATOM     18  O   UNL     1       0.816  -4.364  -5.365  0.00  0.00    -0.507 OA
ATOM     19  H   UNL     1       0.920  -5.290  -5.625  0.00  0.00    +0.292 HD
ENDBRANCH  15  18
ENDBRANCH  11  12
BRANCH   7  20
ATOM     20  O   UNL     1       9.643  -3.453   0.970  0.00  0.00    -0.507 OA
ATOM     21  H   UNL     1       9.771  -4.306   1.406  0.00  0.00    +0.292 HD
ENDBRANCH   7  20
BRANCH   5  22
ATOM     22  O   UNL     1       6.172  -0.997   3.092  0.00  0.00    -0.506 OA
ATOM     23  H   UNL     1       5.801  -1.500   3.831  0.00  0.00    +0.292 HD
ENDBRANCH   5  22
BRANCH   1  24
ATOM     24  O   UNL     1       2.232  -1.647  -0.159  0.00  0.00    -0.452 OA
BRANCH  24  30
ATOM     25  C   UNL     1       0.495   0.033  -0.127  0.00  0.00    +0.275 C 
ATOM     26  C   UNL     1       0.228   1.522  -0.368  0.00  0.00    +0.192 C 
ATOM     27  C   UNL     1       0.707   1.895  -1.775  0.00  0.00    +0.178 C 
ATOM     28  C   UNL     1       2.190   1.541  -1.910  0.00  0.00    +0.179 C 
ATOM     29  O   UNL     1       2.373   0.149  -1.643  0.00  0.00    -0.330 OA
ATOM     30  C   UNL     1       1.986  -0.250  -0.327  0.00  0.00    +0.352 C 
BRANCH  27  31
ATOM     31  O   UNL     1      -0.049   1.167  -2.745  0.00  0.00    -0.386 OA
ATOM     32  H   UNL     1       0.201   1.354  -3.660  0.00  0.00    +0.210 HD
ENDBRANCH  27  31
BRANCH  26  33
ATOM     33  O   UNL     1      -1.173   1.781  -0.254  0.00  0.00    -0.385 OA
ATOM     34  H   UNL     1      -1.415   2.707  -0.395  0.00  0.00    +0.210 HD
ENDBRANCH  26  33
BRANCH  25  35
ATOM     35  O   UNL     1       0.118  -0.310   1.208  0.00  0.00    -0.452 OA
BRANCH  35  37
ATOM     36  C   UNL     1      -0.718  -2.001   2.801  0.00  0.00    +0.136 C 
ATOM     37  C   UNL     1      -0.304  -1.566   1.419  0.00  0.00    +0.304 C 
ATOM     38  O   UNL     1      -0.352  -2.349   0.500  0.00  0.00    -0.251 OA
ENDBRANCH  35  37
ENDBRANCH  25  35
BRANCH  28  39
ATOM     39  C   UNL     1       2.662   1.855  -3.332  0.00  0.00    +0.190 C 
BRANCH  39  40
ATOM     40  O   UNL     1       4.070   1.635  -3.425  0.00  0.00    -0.392 OA
ATOM     41  H   UNL     1       4.439   1.815  -4.301  0.00  0.00    +0.210 HD
ENDBRANCH  39  40
ENDBRANCH  28  39
ENDBRANCH  24  30
ENDBRANCH   1  24
TORSDOF 12
