REMARK  Name = ZINC34735165
REMARK  10 active torsions:
REMARK  status: ('A' for Active; 'I' for Inactive)
REMARK    1  A    between atoms: C_1  and  C_2
REMARK    2  A    between atoms: C_5  and  N_8
REMARK    3  A    between atoms: C_9  and  C_11
REMARK    4  A    between atoms: C_11  and  N_12
REMARK    5  A    between atoms: C_27  and  C_29
REMARK    6  A    between atoms: C_27  and  C_30
REMARK    7  A    between atoms: N_33  and  C_34
REMARK    8  A    between atoms: C_34  and  C_35
REMARK    9  A    between atoms: C_35  and  C_36
REMARK   10  A    between atoms: C_35  and  C_37
REMARK                            x       y       z     vdW  Elec       q    Type
REMARK                         _______ _______ _______ _____ _____    ______ ____
ROOT
ATOM      1  N   UNL     1       0.198  -6.024   3.193  0.00  0.00    +0.387 N 
ATOM      2  C   UNL     1       0.292  -6.277   4.636  0.00  0.00    -0.059 C 
ATOM      3  C   UNL     1       0.444  -7.782   4.881  0.00  0.00    +0.089 C 
ATOM      4  N   UNL     1      -0.668  -8.477   4.213  0.00  0.00    -0.304 N 
ATOM      5  C   UNL     1      -0.937  -8.159   2.803  0.00  0.00    +0.089 C 
ATOM      6  C   UNL     1      -1.024  -6.636   2.656  0.00  0.00    -0.059 C 
ATOM      7  C   UNL     1      -1.431  -9.397   4.888  0.00  0.00    +0.202 A 
ATOM      8  N   UNL     1      -2.556  -9.015   5.456  0.00  0.00    -0.208 NA
ATOM      9  C   UNL     1      -3.315  -9.883   6.115  0.00  0.00    +0.118 A 
ATOM     10  C   UNL     1      -2.963 -11.239   6.240  0.00  0.00    +0.076 A 
ATOM     11  C   UNL     1      -3.897 -12.071   6.995  0.00  0.00    -0.018 A 
ATOM     12  C   UNL     1      -4.996 -11.464   7.494  0.00  0.00    +0.021 A 
ATOM     13  S   UNL     1      -4.853  -9.772   6.995  0.00  0.00    -0.071 S 
ATOM     14  C   UNL     1      -6.082 -12.116   8.293  0.00  0.00    +0.203 C 
ATOM     15  O   UNL     1      -5.927 -13.539   8.172  0.00  0.00    -0.368 OA
ATOM     16  C   UNL     1      -4.588 -13.988   8.399  0.00  0.00    +0.068 C 
ATOM     17  C   UNL     1      -3.685 -13.563   7.238  0.00  0.00    +0.071 C 
ATOM     18  C   UNL     1      -4.063 -13.378   9.700  0.00  0.00    +0.041 C 
ATOM     19  C   UNL     1      -4.578 -15.514   8.518  0.00  0.00    +0.041 C 
ATOM     20  C   UNL     1      -1.736 -11.624   5.611  0.00  0.00    +0.264 A 
ATOM     21  O   UNL     1      -1.350 -12.779   5.666  0.00  0.00    -0.267 OA
ATOM     22  N   UNL     1      -1.018 -10.694   4.955  0.00  0.00    -0.280 N 
ATOM     23  H   UNL     1       1.003  -6.420   2.731  0.00  0.00    -0.081 HD
ENDROOT
BRANCH   1  24
ATOM     24  C   UNL     1       0.163  -4.575   2.953  0.00  0.00    +0.019 C 
BRANCH  24  26
ATOM     25  N   UNL     1       1.665  -2.634   3.266  0.00  0.00    -0.287 N 
ATOM     26  C   UNL     1       1.468  -3.961   3.392  0.00  0.00    +0.201 C 
ATOM     27  O   UNL     1       2.341  -4.662   3.859  0.00  0.00    -0.278 OA
ATOM     28  H   UNL     1       0.938  -2.062   2.973  0.00  0.00    +0.155 HD
BRANCH  25  33
ATOM     29  C   UNL     1       6.742  -0.394   4.443  0.00  0.00    +0.044 C 
ATOM     30  C   UNL     1       5.394  -0.989   4.130  0.00  0.00    -0.050 A 
ATOM     31  C   UNL     1       5.298  -2.310   3.732  0.00  0.00    +0.005 A 
ATOM     32  C   UNL     1       4.063  -2.858   3.444  0.00  0.00    +0.023 A 
ATOM     33  C   UNL     1       2.917  -2.082   3.556  0.00  0.00    +0.033 A 
ATOM     34  C   UNL     1       3.017  -0.756   3.957  0.00  0.00    +0.023 A 
ATOM     35  C   UNL     1       4.254  -0.215   4.248  0.00  0.00    +0.005 A 
ENDBRANCH  25  33
ENDBRANCH  24  26
ENDBRANCH   1  24
BRANCH  22  36
ATOM     36  C   UNL     1       0.236 -11.083   4.305  0.00  0.00    +0.131 C 
BRANCH  36  37
ATOM     37  C   UNL     1       1.407 -10.819   5.254  0.00  0.00    +0.003 C 
ATOM     38  C   UNL     1       1.286 -11.729   6.478  0.00  0.00    +0.009 C 
ATOM     39  C   UNL     1       2.724 -11.107   4.532  0.00  0.00    +0.009 C 
ENDBRANCH  36  37
ENDBRANCH  22  36
TORSDOF 5
