REMARK  Name = ZINC36227900
REMARK  11 active torsions:
REMARK  status: ('A' for Active; 'I' for Inactive)
REMARK    1  A    between atoms: C_5  and  O_8
REMARK    2  A    between atoms: C_6  and  O_7
REMARK    3  A    between atoms: C_12  and  O_36
REMARK    4  A    between atoms: C_13  and  O_19
REMARK    5  A    between atoms: C_14  and  O_18
REMARK    6  A    between atoms: O_19  and  C_20
REMARK    7  A    between atoms: C_22  and  O_35
REMARK    8  A    between atoms: C_24  and  O_34
REMARK    9  A    between atoms: C_26  and  O_33
REMARK   10  A    between atoms: C_28  and  C_31
REMARK   11  A    between atoms: C_31  and  O_32
REMARK                            x       y       z     vdW  Elec       q    Type
REMARK                         _______ _______ _______ _____ _____    ______ ____
ROOT
ATOM      1  C   UNL     1       0.939   0.864   0.322  0.00  0.00    +0.064 A 
ATOM      2  C   UNL     1       2.062   1.689   0.401  0.00  0.00    +0.068 A 
ATOM      3  C   UNL     1       3.338   1.142   0.608  0.00  0.00    +0.143 A 
ATOM      4  C   UNL     1       3.468  -0.235   0.745  0.00  0.00    +0.096 A 
ATOM      5  C   UNL     1       2.352  -1.050   0.668  0.00  0.00    +0.162 A 
ATOM      6  C   UNL     1       1.085  -0.501   0.455  0.00  0.00    +0.159 A 
ATOM      7  O   UNL     1       4.432   1.929   0.669  0.00  0.00    -0.454 OA
ATOM      8  C   UNL     1       4.340   3.262   0.859  0.00  0.00    +0.147 A 
ATOM      9  C   UNL     1       5.458   3.983   1.253  0.00  0.00    +0.096 A 
ATOM     10  C   UNL     1       5.375   5.354   1.440  0.00  0.00    +0.166 A 
ATOM     11  C   UNL     1       4.173   6.028   1.236  0.00  0.00    +0.207 A 
ATOM     12  C   UNL     1       3.044   5.326   0.846  0.00  0.00    +0.177 A 
ATOM     13  C   UNL     1       3.123   3.939   0.664  0.00  0.00    +0.110 A 
ATOM     14  C   UNL     1       1.937   3.156   0.273  0.00  0.00    +0.204 A 
ATOM     15  O   UNL     1       0.917   3.685  -0.131  0.00  0.00    -0.286 OA
ENDROOT
BRANCH   6  16
ATOM     16  O   UNL     1      -0.004  -1.313   0.378  0.00  0.00    -0.503 OA
ATOM     17  H   UNL     1      -0.202  -1.620  -0.518  0.00  0.00    +0.292 HD
ENDBRANCH   6  16
BRANCH   5  18
ATOM     18  O   UNL     1       2.490  -2.394   0.802  0.00  0.00    -0.503 OA
ATOM     19  H   UNL     1       2.415  -2.708   1.713  0.00  0.00    +0.292 HD
ENDBRANCH   5  18
BRANCH  12  20
ATOM     20  O   UNL     1       1.869   5.976   0.641  0.00  0.00    -0.503 OA
ATOM     21  H   UNL     1       1.746   6.288  -0.266  0.00  0.00    +0.292 HD
ENDBRANCH  12  20
BRANCH  10  22
ATOM     22  O   UNL     1       6.476   6.047   1.828  0.00  0.00    -0.503 OA
ATOM     23  H   UNL     1       7.058   6.301   1.098  0.00  0.00    +0.292 HD
ENDBRANCH  10  22
BRANCH  11  24
ATOM     24  O   UNL     1       4.107   7.376   1.419  0.00  0.00    -0.453 OA
BRANCH  24  25
ATOM     25  C   UNL     1       4.210   8.195   0.253  0.00  0.00    +0.340 C 
ATOM     26  C   UNL     1       3.695   9.601   0.571  0.00  0.00    +0.214 C 
ATOM     27  C   UNL     1       4.576  10.226   1.657  0.00  0.00    +0.180 C 
ATOM     28  C   UNL     1       6.030  10.235   1.177  0.00  0.00    +0.177 C 
ATOM     29  C   UNL     1       6.455   8.804   0.837  0.00  0.00    +0.179 C 
ATOM     30  O   UNL     1       5.577   8.271  -0.157  0.00  0.00    -0.331 OA
BRANCH  28  31
ATOM     31  O   UNL     1       6.145  11.058   0.015  0.00  0.00    -0.386 OA
ATOM     32  H   UNL     1       5.887  11.979   0.158  0.00  0.00    +0.210 HD
ENDBRANCH  28  31
BRANCH  27  33
ATOM     33  O   UNL     1       4.146  11.566   1.909  0.00  0.00    -0.386 OA
ATOM     34  H   UNL     1       3.230  11.635   2.211  0.00  0.00    +0.210 HD
ENDBRANCH  27  33
BRANCH  26  35
ATOM     35  O   UNL     1       2.346   9.522   1.035  0.00  0.00    -0.383 OA
ATOM     36  H   UNL     1       1.733   9.132   0.397  0.00  0.00    +0.210 HD
ENDBRANCH  26  35
BRANCH  29  37
ATOM     37  C   UNL     1       7.888   8.811   0.300  0.00  0.00    +0.190 C 
BRANCH  37  38
ATOM     38  O   UNL     1       8.311   7.469   0.054  0.00  0.00    -0.392 OA
ATOM     39  H   UNL     1       9.213   7.397  -0.289  0.00  0.00    +0.210 HD
ENDBRANCH  37  38
ENDBRANCH  29  37
ENDBRANCH  24  25
ENDBRANCH  11  24
TORSDOF 11
