REMARK  Name = ZINC28951809
REMARK  11 active torsions:
REMARK  status: ('A' for Active; 'I' for Inactive)
REMARK    1  A    between atoms: C_4  and  N_21
REMARK    2  A    between atoms: C_5  and  C_7
REMARK    3  A    between atoms: N_9  and  C_10
REMARK    4  A    between atoms: N_21  and  C_22
REMARK    5  A    between atoms: C_22  and  C_23
REMARK    6  A    between atoms: N_29  and  C_30
REMARK    7  A    between atoms: C_30  and  C_31
REMARK    8  A    between atoms: C_31  and  O_32
REMARK    9  A    between atoms: O_32  and  C_33
REMARK   10  A    between atoms: C_33  and  C_34
REMARK   11  A    between atoms: C_34  and  O_35
REMARK                            x       y       z     vdW  Elec       q    Type
REMARK                         _______ _______ _______ _____ _____    ______ ____
ROOT
ATOM      1  C   UNL     1      -2.314   4.096  -0.068  0.00  0.00    +0.001 A 
ATOM      2  C   UNL     1      -3.549   3.474  -0.168  0.00  0.00    +0.002 A 
ATOM      3  C   UNL     1      -3.635   2.099  -0.238  0.00  0.00    +0.024 A 
ATOM      4  C   UNL     1      -2.479   1.327  -0.208  0.00  0.00    +0.040 A 
ATOM      5  C   UNL     1      -1.228   1.954  -0.108  0.00  0.00    +0.058 A 
ATOM      6  C   UNL     1      -1.158   3.348  -0.032  0.00  0.00    +0.015 A 
ENDROOT
BRANCH   5   7
ATOM      7  C   UNL     1       0.005   1.147  -0.076  0.00  0.00    +0.250 C 
ATOM      8  O   UNL     1      -0.050  -0.056  -0.248  0.00  0.00    -0.270 OA
ATOM      9  N   UNL     1       1.195   1.743   0.139  0.00  0.00    -0.281 N 
ATOM     10  H   UNL     1       1.257   2.839   0.210  0.00  0.00    +0.155 HD
BRANCH   9  11
ATOM     11  C   UNL     1       2.353   0.967   0.272  0.00  0.00    +0.037 A 
ATOM     12  C   UNL     1       3.572   1.454  -0.182  0.00  0.00    +0.027 A 
ATOM     13  C   UNL     1       4.715   0.689  -0.052  0.00  0.00    +0.051 A 
ATOM     14  C   UNL     1       4.649  -0.566   0.531  0.00  0.00    +0.173 A 
ATOM     15  C   UNL     1       3.428  -1.058   0.987  0.00  0.00    +0.174 A 
ATOM     16  C   UNL     1       2.284  -0.288   0.861  0.00  0.00    +0.073 A 
ATOM     17  O   UNL     1       3.628  -2.301   1.514  0.00  0.00    -0.395 OA
ATOM     18  C   UNL     1       5.046  -2.397   1.747  0.00  0.00    +0.589 C 
ATOM     19  O   UNL     1       5.614  -1.502   0.773  0.00  0.00    -0.395 OA
ATOM     20  F   UNL     1       5.360  -1.975   3.044  0.00  0.00    -0.125 F 
ATOM     21  F   UNL     1       5.492  -3.706   1.536  0.00  0.00    -0.125 F 
ENDBRANCH   9  11
ENDBRANCH   5   7
BRANCH   4  22
ATOM     22  N   UNL     1      -2.563  -0.058  -0.278  0.00  0.00    -0.339 N 
ATOM     23  H   UNL     1      -1.647  -0.661  -0.353  0.00  0.00    +0.146 HD
BRANCH  22  24
ATOM     24  C   UNL     1      -3.873  -0.714  -0.251  0.00  0.00    +0.137 C 
BRANCH  24  25
ATOM     25  C   UNL     1      -3.687  -2.207  -0.339  0.00  0.00    -0.026 A 
ATOM     26  C   UNL     1      -3.544  -2.974   0.810  0.00  0.00    +0.023 A 
ATOM     27  C   UNL     1      -3.377  -4.339   0.696  0.00  0.00    +0.084 A 
ATOM     28  N   UNL     1      -3.351  -4.921  -0.488  0.00  0.00    -0.350 N 
ATOM     29  C   UNL     1      -3.484  -4.225  -1.607  0.00  0.00    +0.096 A 
ATOM     30  C   UNL     1      -3.662  -2.846  -1.566  0.00  0.00    +0.046 A 
ATOM     31  N   UNL     1      -3.452  -4.879  -2.833  0.00  0.00    -0.328 N 
ATOM     32  H   UNL     1      -3.317  -5.970  -2.871  0.00  0.00    +0.147 HD
ATOM     33  H   UNL     1      -3.217  -6.010  -0.563  0.00  0.00    +0.166 HD
BRANCH  31  34
ATOM     34  C   UNL     1      -3.599  -4.115  -4.075  0.00  0.00    +0.131 C 
BRANCH  34  35
ATOM     35  C   UNL     1      -3.528  -5.067  -5.270  0.00  0.00    +0.178 C 
BRANCH  35  36
ATOM     36  O   UNL     1      -4.646  -5.956  -5.239  0.00  0.00    -0.376 OA
BRANCH  36  37
ATOM     37  C   UNL     1      -4.676  -6.892  -6.318  0.00  0.00    +0.187 C 
BRANCH  37  38
ATOM     38  C   UNL     1      -5.909  -7.787  -6.184  0.00  0.00    +0.184 C 
BRANCH  38  39
ATOM     39  O   UNL     1      -7.090  -6.997  -6.336  0.00  0.00    -0.393 OA
ATOM     40  H   UNL     1      -8.081  -7.470  -6.270  0.00  0.00    +0.209 HD
ENDBRANCH  38  39
ENDBRANCH  37  38
ENDBRANCH  36  37
ENDBRANCH  35  36
ENDBRANCH  34  35
ENDBRANCH  31  34
ENDBRANCH  24  25
ENDBRANCH  22  24
ENDBRANCH   4  22
TORSDOF 11
