REMARK  Name = ZINC00075734
REMARK  3 active torsions:
REMARK  status: ('A' for Active; 'I' for Inactive)
REMARK    1  A    between atoms: C_1  and  C_2
REMARK    2  A    between atoms: C_4  and  C_19
REMARK    3  A    between atoms: N_10  and  C_11
REMARK                            x       y       z     vdW  Elec       q    Type
REMARK                         _______ _______ _______ _____ _____    ______ ____
ROOT
ATOM      1  C   UNL     1       6.738   4.793  -0.583  0.00  0.00    +0.066 C 
ATOM      2  C   UNL     1       7.243   3.379  -0.451  0.00  0.00    +0.044 A 
ATOM      3  C   UNL     1       8.601   3.110  -0.514  0.00  0.00    +0.046 A 
ATOM      4  C   UNL     1       9.023   1.796  -0.387  0.00  0.00    +0.044 A 
ATOM      5  N   UNL     1       8.122   0.844  -0.211  0.00  0.00    -0.217 NA
ATOM      6  C   UNL     1       6.831   1.134  -0.155  0.00  0.00    +0.231 A 
ATOM      7  N   UNL     1       6.395   2.379  -0.277  0.00  0.00    -0.217 NA
ATOM      8  N   UNL     1       5.914   0.110   0.031  0.00  0.00    -0.297 N 
ATOM      9  C   UNL     1       4.562   0.376  -0.028  0.00  0.00    +0.180 C 
ATOM     10  N   UNL     1       4.122   1.673  -0.159  0.00  0.00    -0.328 N 
ATOM     11  C   UNL     1      10.490   1.456  -0.450  0.00  0.00    +0.066 C 
ATOM     12  H   UNL     1       6.223  -0.793   0.202  0.00  0.00    +0.172 HD
ATOM     13  H   UNL     1       3.912  -1.540   0.202  0.00  0.00    +0.159 HD
ATOM     14  H   UNL     1       4.760   2.392  -0.284  0.00  0.00    +0.169 HD
ATOM     15  N   UNL     1       3.639  -0.572   0.031  0.00  0.00    -0.371 N 
ATOM     16  H   UNL     1       2.649  -0.332  -0.096  0.00  0.00    +0.159 HD
ENDROOT
BRANCH  10  17
ATOM     17  C   UNL     1       2.752   1.955  -0.112  0.00  0.00    +0.043 A 
ATOM     18  C   UNL     1       1.838   1.055  -0.646  0.00  0.00    +0.027 A 
ATOM     19  C   UNL     1       0.486   1.335  -0.598  0.00  0.00    +0.023 A 
ATOM     20  C   UNL     1       0.041   2.510  -0.018  0.00  0.00    +0.059 A 
ATOM     21  C   UNL     1       0.950   3.408   0.515  0.00  0.00    +0.061 A 
ATOM     22  C   UNL     1       2.304   3.133   0.470  0.00  0.00    +0.047 A 
ATOM     23 CL   UNL     1       0.388   4.881   1.242  0.00  0.00    -0.082 Cl
ATOM     24 CL   UNL     1      -1.658   2.861   0.033  0.00  0.00    -0.082 Cl
ENDBRANCH  10  17
TORSDOF 1
