REMARK  Name = ZINC39534037
REMARK  9 active torsions:
REMARK  status: ('A' for Active; 'I' for Inactive)
REMARK    1  A    between atoms: C_1  and  O_2
REMARK    2  A    between atoms: O_2  and  N_3
REMARK    3  A    between atoms: N_3  and  C_4
REMARK    4  A    between atoms: C_4  and  C_5
REMARK    5  A    between atoms: C_5  and  C_7
REMARK    6  A    between atoms: C_5  and  N_20
REMARK    7  A    between atoms: C_10  and  C_13
REMARK    8  A    between atoms: C_18  and  O_19
REMARK    9  A    between atoms: C_24  and  O_27
REMARK                            x       y       z     vdW  Elec       q    Type
REMARK                         _______ _______ _______ _____ _____    ______ ____
ROOT
ATOM      1  C   UNL     1       1.423  -2.516  -2.342  0.00  0.00    +0.103 C 
ENDROOT
BRANCH   1   2
ATOM      2  N   UNL     1       0.866  -1.870  -3.539  0.00  0.00    -0.295 NA
ATOM      3  C   UNL     1       1.443  -2.444  -4.763  0.00  0.00    +0.066 C 
ATOM      4  C   UNL     1       0.795  -1.788  -5.984  0.00  0.00    -0.063 C 
ATOM      5  N   UNL     1       1.030  -0.339  -5.944  0.00  0.00    +0.398 N 
ATOM      6  C   UNL     1       0.427   0.223  -4.729  0.00  0.00    +0.073 C 
ATOM      7  C   UNL     1       1.072  -0.416  -3.497  0.00  0.00    +0.096 C 
ATOM      8  H   UNL     1       2.023  -0.159  -5.941  0.00  0.00    -0.082 HD
ATOM      9  H   UNL     1       0.614   0.092  -6.756  0.00  0.00    -0.082 HD
BRANCH   6  10
ATOM     10  O   UNL     1       0.642   1.636  -4.700  0.00  0.00    -0.409 OA
ATOM     11  H   UNL     1       0.259   2.107  -5.452  0.00  0.00    +0.207 HD
ENDBRANCH   6  10
ENDBRANCH   1   2
BRANCH   1  12
ATOM     12  C   UNL     1       1.125  -3.992  -2.383  0.00  0.00    -0.029 A 
ATOM     13  C   UNL     1      -0.105  -4.435  -2.836  0.00  0.00    +0.006 A 
ATOM     14  C   UNL     1      -0.383  -5.786  -2.875  0.00  0.00    +0.009 A 
ATOM     15  C   UNL     1       0.578  -6.705  -2.458  0.00  0.00    -0.014 A 
ATOM     16  C   UNL     1       1.816  -6.254  -2.004  0.00  0.00    +0.009 A 
ATOM     17  C   UNL     1       2.085  -4.900  -1.974  0.00  0.00    +0.006 A 
BRANCH  15  18
ATOM     18  C   UNL     1       0.285  -8.159  -2.498  0.00  0.00    +0.024 A 
ATOM     19  C   UNL     1      -0.893  -8.650  -1.941  0.00  0.00    +0.012 A 
ATOM     20  C   UNL     1      -1.162 -10.003  -1.980  0.00  0.00    +0.001 A 
ATOM     21  C   UNL     1      -0.264 -10.875  -2.571  0.00  0.00    +0.004 A 
ATOM     22  C   UNL     1       0.908 -10.398  -3.126  0.00  0.00    +0.046 A 
ATOM     23  C   UNL     1       1.188  -9.041  -3.099  0.00  0.00    +0.125 A 
BRANCH  23  24
ATOM     24  O   UNL     1       2.337  -8.570  -3.650  0.00  0.00    -0.506 OA
ATOM     25  H   UNL     1       3.083  -8.539  -3.035  0.00  0.00    +0.292 HD
ENDBRANCH  23  24
ENDBRANCH  15  18
ENDBRANCH   1  12
BRANCH   1  26
ATOM     26  C   UNL     1       0.790  -1.903  -1.091  0.00  0.00    +0.134 C 
BRANCH  26  27
ATOM     27  N   UNL     1       1.403  -2.492   0.107  0.00  0.00    -0.200 NA
ATOM     28  H   UNL     1       2.393  -2.299   0.139  0.00  0.00    +0.154 HD
BRANCH  27  30
ATOM     29  C   UNL     1       1.284  -2.557   2.529  0.00  0.00    +0.221 C 
ATOM     30  O   UNL     1       0.738  -2.021   1.322  0.00  0.00    -0.303 OA
ENDBRANCH  27  30
ENDBRANCH  26  27
ENDBRANCH   1  26
TORSDOF 8
