REMARK  Name = ZINC06880160
REMARK  6 active torsions:
REMARK  status: ('A' for Active; 'I' for Inactive)
REMARK    1  A    between atoms: C_1  and  C_2
REMARK    2  A    between atoms: C_2  and  C_4
REMARK    3  A    between atoms: C_2  and  N_19
REMARK    4  A    between atoms: N_6  and  C_7
REMARK    5  A    between atoms: C_8  and  C_16
REMARK    6  A    between atoms: C_20  and  C_22
REMARK                            x       y       z     vdW  Elec       q    Type
REMARK                         _______ _______ _______ _____ _____    ______ ____
ROOT
ATOM      1  C   UNL     1       2.395   4.140  -0.599  0.00  0.00    +0.238 C 
ATOM      2  O   UNL     1       3.237   3.365  -1.001  0.00  0.00    -0.273 OA
ATOM      3  N   UNL     1       2.599   5.468  -0.698  0.00  0.00    -0.278 N 
ATOM      4  H   UNL     1       1.926   6.088  -0.377  0.00  0.00    +0.155 HD
ENDROOT
BRANCH   3   5
ATOM      5  C   UNL     1       3.772   5.950  -1.259  0.00  0.00    +0.084 A 
ATOM      6  C   UNL     1       4.159   7.269  -1.451  0.00  0.00    +0.068 A 
ATOM      7  C   UNL     1       5.455   7.506  -2.064  0.00  0.00    -0.023 A 
ATOM      8  C   UNL     1       6.147   6.395  -2.395  0.00  0.00    -0.004 A 
ATOM      9  S   UNL     1       5.109   5.050  -1.897  0.00  0.00    -0.077 S 
ATOM     10  C   UNL     1       7.497   6.331  -3.041  0.00  0.00    +0.043 C 
ATOM     11  C   UNL     1       7.824   7.716  -3.617  0.00  0.00    +0.005 C 
ATOM     12  C   UNL     1       7.532   8.775  -2.550  0.00  0.00    +0.005 C 
ATOM     13  C   UNL     1       6.022   8.894  -2.335  0.00  0.00    +0.037 C 
BRANCH   6  14
ATOM     14  C   UNL     1       3.293   8.381  -1.047  0.00  0.00    +0.244 C 
ATOM     15  O   UNL     1       3.387   8.849   0.073  0.00  0.00    -0.270 OA
ATOM     16  N   UNL     1       2.394   8.885  -1.915  0.00  0.00    -0.325 N 
ATOM     17  H   UNL     1       2.319   8.512  -2.807  0.00  0.00    +0.145 HD
ATOM     18  H   UNL     1       1.821   9.621  -1.647  0.00  0.00    +0.145 HD
ENDBRANCH   6  14
ENDBRANCH   3   5
BRANCH   1  20
ATOM     19  C   UNL     1       1.001   4.117   1.452  0.00  0.00    +0.038 C 
ATOM     20  C   UNL     1       1.120   3.617   0.011  0.00  0.00    +0.156 C 
BRANCH  20  21
ATOM     21  N   UNL     1       1.140   2.152   0.003  0.00  0.00    -0.298 N 
ATOM     22  C   UNL     1      -0.018   1.462   0.010  0.00  0.00    +0.280 C 
ATOM     23  O   UNL     1      -1.080   2.056   0.018  0.00  0.00    -0.267 OA
ATOM     24  H   UNL     1       1.987   1.679  -0.008  0.00  0.00    +0.150 HD
BRANCH  22  25
ATOM     25  C   UNL     1       0.002  -0.004   0.002  0.00  0.00    +0.189 A 
ATOM     26  C   UNL     1      -1.092  -0.821   0.008  0.00  0.00    +0.054 A 
ATOM     27  C   UNL     1      -0.610  -2.140  -0.004  0.00  0.00    +0.042 A 
ATOM     28  C   UNL     1       0.739  -2.070  -0.018  0.00  0.00    +0.196 A 
ATOM     29  O   UNL     1       1.104  -0.782  -0.019  0.00  0.00    -0.458 OA
ENDBRANCH  22  25
ENDBRANCH  20  21
ENDBRANCH   1  20
TORSDOF 5
