REMARK  Name = ZINC40701315
REMARK  5 active torsions:
REMARK  status: ('A' for Active; 'I' for Inactive)
REMARK    1  A    between atoms: C_1  and  C_2
REMARK    2  A    between atoms: C_10  and  N_23
REMARK    3  A    between atoms: C_11  and  N_15
REMARK    4  A    between atoms: N_15  and  N_16
REMARK    5  A    between atoms: N_16  and  C_17
REMARK                            x       y       z     vdW  Elec       q    Type
REMARK                         _______ _______ _______ _____ _____    ______ ____
ROOT
ATOM      1  C   UNL     1      -0.206  -2.692  -2.587  0.00  0.00    +0.044 C 
ATOM      2  C   UNL     1       0.027  -2.034  -1.251  0.00  0.00    -0.046 A 
ATOM      3  C   UNL     1       0.347  -0.685  -1.170  0.00  0.00    +0.023 A 
ATOM      4  C   UNL     1       0.555  -0.113   0.069  0.00  0.00    +0.113 A 
ATOM      5  N   UNL     1       0.452  -0.831   1.172  0.00  0.00    -0.240 NA
ATOM      6  C   UNL     1       0.149  -2.119   1.136  0.00  0.00    +0.124 A 
ATOM      7  C   UNL     1      -0.078  -2.760  -0.078  0.00  0.00    +0.047 A 
ATOM      8  N   UNL     1       0.052  -2.838   2.323  0.00  0.00    -0.284 N 
ATOM      9  C   UNL     1       0.153  -2.180   3.545  0.00  0.00    +0.127 A 
ATOM     10  C   UNL     1       0.280  -2.905   4.731  0.00  0.00    +0.105 A 
ATOM     11  C   UNL     1       0.379  -2.195   5.930  0.00  0.00    +0.161 A 
ATOM     12  N   UNL     1       0.348  -0.865   5.895  0.00  0.00    -0.219 NA
ATOM     13  C   UNL     1       0.227  -0.220   4.753  0.00  0.00    +0.200 A 
ATOM     14  N   UNL     1       0.137  -0.851   3.600  0.00  0.00    -0.333 N 
ATOM     15  H   UNL     1      -0.087  -3.798   2.299  0.00  0.00    +0.155 HD
ATOM     16  H   UNL     1       0.053  -0.339   2.780  0.00  0.00    +0.168 HD
ENDROOT
BRANCH  10  17
ATOM     17  N   UNL     1       0.308  -4.309   4.720  0.00  0.00    -0.353 N 
ATOM     18  H   UNL     1       0.238  -4.788   3.880  0.00  0.00    +0.143 HD
ATOM     19  H   UNL     1       0.396  -4.799   5.553  0.00  0.00    +0.143 HD
ENDBRANCH  10  17
BRANCH  11  20
ATOM     20  N   UNL     1       0.506  -2.867   7.139  0.00  0.00    -0.249 N 
ATOM     21  H   UNL     1       0.527  -3.837   7.156  0.00  0.00    +0.172 HD
BRANCH  20  22
ATOM     22  N   UNL     1       0.604  -2.144   8.335  0.00  0.00    -0.265 N 
ATOM     23  H   UNL     1       0.583  -1.174   8.319  0.00  0.00    +0.170 HD
BRANCH  22  24
ATOM     24  C   UNL     1       0.732  -2.819   9.551  0.00  0.00    +0.044 A 
ATOM     25  C   UNL     1       0.768  -4.208   9.576  0.00  0.00    +0.024 A 
ATOM     26  C   UNL     1       0.895  -4.872  10.780  0.00  0.00    +0.002 A 
ATOM     27  C   UNL     1       0.986  -4.157  11.960  0.00  0.00    +0.000 A 
ATOM     28  C   UNL     1       0.950  -2.775  11.939  0.00  0.00    +0.002 A 
ATOM     29  C   UNL     1       0.829  -2.104  10.738  0.00  0.00    +0.024 A 
ENDBRANCH  22  24
ENDBRANCH  20  22
ENDBRANCH  11  20
TORSDOF 4
