REMARK  Name = ZINC36704443
REMARK  9 active torsions:
REMARK  status: ('A' for Active; 'I' for Inactive)
REMARK    1  A    between atoms: C_1  and  C_2
REMARK    2  A    between atoms: C_2  and  N_3
REMARK    3  A    between atoms: C_9  and  N_15
REMARK    4  A    between atoms: C_10  and  C_11
REMARK    5  A    between atoms: C_11  and  O_13
REMARK    6  A    between atoms: O_13  and  C_14
REMARK    7  A    between atoms: C_16  and  C_18
REMARK    8  A    between atoms: N_23  and  S_24
REMARK    9  A    between atoms: S_24  and  C_27
REMARK                            x       y       z     vdW  Elec       q    Type
REMARK                         _______ _______ _______ _____ _____    ______ ____
ROOT
ATOM      1  N   UNL     1       1.639  -1.947   7.268  0.00  0.00    -0.278 N 
ATOM      2  C   UNL     1       1.067  -1.198   8.232  0.00  0.00    +0.236 C 
ATOM      3  O   UNL     1       0.317  -0.293   7.932  0.00  0.00    -0.274 OA
ATOM      4  H   UNL     1       2.239  -2.670   7.507  0.00  0.00    +0.155 HD
ENDROOT
BRANCH   1  11
ATOM      5  N   UNL     1       0.713  -0.491   1.192  0.00  0.00    +0.383 N 
ATOM      6  C   UNL     1       0.841  -1.952   1.122  0.00  0.00    -0.074 C 
ATOM      7  C   UNL     1       1.837  -2.447   2.176  0.00  0.00    +0.018 C 
ATOM      8  C   UNL     1       1.421  -1.867   3.520  0.00  0.00    -0.025 A 
ATOM      9  C   UNL     1       0.569  -0.818   3.574  0.00  0.00    -0.021 A 
ATOM     10  S   UNL     1       0.370  -0.490   5.299  0.00  0.00    -0.079 S 
ATOM     11  C   UNL     1       1.369  -1.683   5.934  0.00  0.00    +0.086 A 
ATOM     12  C   UNL     1       1.862  -2.343   4.817  0.00  0.00    +0.091 A 
ATOM     13  C   UNL     1      -0.043  -0.117   2.402  0.00  0.00    -0.035 C 
ATOM     14  H   UNL     1       1.631  -0.075   1.228  0.00  0.00    -0.081 HD
BRANCH   5  16
ATOM     15  C   UNL     1      -0.019   1.526   0.010  0.00  0.00    -0.017 C 
ATOM     16  C   UNL     1       0.002  -0.004   0.002  0.00  0.00    -0.082 C 
ENDBRANCH   5  16
BRANCH  12  17
ATOM     17  C   UNL     1       2.787  -3.471   4.942  0.00  0.00    +0.342 C 
ATOM     18  O   UNL     1       3.987  -3.275   4.961  0.00  0.00    -0.245 OA
BRANCH  17  19
ATOM     19  O   UNL     1       2.308  -4.729   5.037  0.00  0.00    -0.464 OA
ATOM     20  C   UNL     1       3.268  -5.781   5.156  0.00  0.00    +0.280 C 
ENDBRANCH  17  19
ENDBRANCH  12  17
ENDBRANCH   1  11
BRANCH   2  21
ATOM     21  C   UNL     1       1.361  -1.485   9.682  0.00  0.00    +0.166 C 
ATOM     22  C   UNL     1       2.867  -1.294   9.960  0.00  0.00    +0.031 C 
ATOM     23  C   UNL     1       2.934   0.144  10.539  0.00  0.00    +0.019 C 
ATOM     24  C   UNL     1       1.613   0.216  11.346  0.00  0.00    +0.110 C 
ATOM     25  N   UNL     1       0.632  -0.536  10.536  0.00  0.00    -0.164 NA
BRANCH  25  26
ATOM     26  S   UNL     1      -1.012  -0.344  10.581  0.00  0.00    +0.068 S 
ATOM     27  O   UNL     1      -1.254   0.971  11.064  0.00  0.00    -0.152 OA
ATOM     28  O   UNL     1      -1.508  -0.799   9.329  0.00  0.00    -0.152 OA
BRANCH  26  29
ATOM     29  C   UNL     1      -1.633  -1.451  11.802  0.00  0.00    +0.144 A 
ATOM     30  C   UNL     1      -1.832  -1.238  13.125  0.00  0.00    +0.038 A 
ATOM     31  C   UNL     1      -2.336  -2.265  13.902  0.00  0.00    +0.030 A 
ATOM     32  C   UNL     1      -2.616  -3.456  13.316  0.00  0.00    +0.080 A 
ATOM     33  S   UNL     1      -2.172  -3.143  11.615  0.00  0.00    -0.057 S 
ATOM     34 CL   UNL     1      -3.248  -4.905  14.032  0.00  0.00    -0.076 Cl
ENDBRANCH  26  29
ENDBRANCH  25  26
ENDBRANCH   2  21
TORSDOF 7
