REMARK  Name = ZINC38686284
REMARK  11 active torsions:
REMARK  status: ('A' for Active; 'I' for Inactive)
REMARK    1  A    between atoms: C_1  and  C_2
REMARK    2  A    between atoms: C_5  and  C_8
REMARK    3  A    between atoms: C_8  and  O_9
REMARK    4  A    between atoms: O_9  and  C_10
REMARK    5  A    between atoms: C_13  and  C_16
REMARK    6  A    between atoms: C_21  and  O_30
REMARK    7  A    between atoms: C_25  and  N_29
REMARK    8  A    between atoms: C_26  and  C_27
REMARK    9  A    between atoms: O_30  and  C_31
REMARK   10  A    between atoms: C_31  and  C_33
REMARK   11  A    between atoms: C_34  and  C_35
REMARK                            x       y       z     vdW  Elec       q    Type
REMARK                         _______ _______ _______ _____ _____    ______ ____
ROOT
ATOM      1  C   UNL     1       2.181 -10.274  -0.030  0.00  0.00    +0.098 C 
ATOM      2  C   UNL     1       2.961 -10.684   1.191  0.00  0.00    +0.008 A 
ATOM      3  C   UNL     1       2.346 -10.661   2.431  0.00  0.00    +0.012 A 
ATOM      4  C   UNL     1       3.046 -11.033   3.562  0.00  0.00    +0.047 A 
ATOM      5  C   UNL     1       4.371 -11.433   3.457  0.00  0.00    +0.135 A 
ATOM      6  C   UNL     1       4.989 -11.458   2.217  0.00  0.00    +0.093 A 
ATOM      7  C   UNL     1       4.284 -11.082   1.081  0.00  0.00    +0.138 A 
ATOM      8  O   UNL     1       4.903 -11.111  -0.125  0.00  0.00    -0.441 OA
ATOM      9  C   UNL     1       4.173 -11.135  -1.252  0.00  0.00    +0.199 C 
ATOM     10  C   UNL     1       2.879 -10.750  -1.272  0.00  0.00    +0.098 C 
ENDROOT
BRANCH   1  14
ATOM     11  C   UNL     1       1.853  -6.014  -0.135  0.00  0.00    +0.121 A 
ATOM     12  C   UNL     1       0.709  -6.798  -0.076  0.00  0.00    +0.046 A 
ATOM     13  C   UNL     1       0.818  -8.175  -0.042  0.00  0.00    +0.008 A 
ATOM     14  C   UNL     1       2.065  -8.772  -0.067  0.00  0.00    -0.034 A 
ATOM     15  C   UNL     1       3.206  -7.993  -0.125  0.00  0.00    +0.008 A 
ATOM     16  C   UNL     1       3.102  -6.616  -0.165  0.00  0.00    +0.046 A 
BRANCH  11  17
ATOM     17  O   UNL     1       1.748  -4.660  -0.168  0.00  0.00    -0.487 OA
BRANCH  17  18
ATOM     18  C   UNL     1       0.430  -4.110  -0.134  0.00  0.00    +0.264 C 
BRANCH  18  23
ATOM     19  C   UNL     1       0.741   1.658  -0.305  0.00  0.00    +0.044 C 
ATOM     20  C   UNL     1       0.660   0.154  -0.261  0.00  0.00    -0.050 A 
ATOM     21  C   UNL     1       0.579  -0.569  -1.436  0.00  0.00    +0.004 A 
ATOM     22  C   UNL     1       0.504  -1.949  -1.395  0.00  0.00    +0.007 A 
ATOM     23  C   UNL     1       0.512  -2.606  -0.179  0.00  0.00    -0.010 A 
ATOM     24  C   UNL     1       0.594  -1.883   0.997  0.00  0.00    +0.007 A 
ATOM     25  C   UNL     1       0.672  -0.503   0.955  0.00  0.00    +0.004 A 
ENDBRANCH  18  23
ENDBRANCH  17  18
ENDBRANCH  11  17
ENDBRANCH   1  14
BRANCH   9  26
ATOM     26  N   UNL     1       4.761 -11.562  -2.417  0.00  0.00    -0.328 N 
ATOM     27  H   UNL     1       5.691 -11.840  -2.418  0.00  0.00    +0.145 HD
ATOM     28  H   UNL     1       4.248 -11.585  -3.240  0.00  0.00    +0.145 HD
ENDBRANCH   9  26
BRANCH  10  29
ATOM     29  C   UNL     1       2.156 -10.799  -2.508  0.00  0.00    +0.101 C 
ATOM     30  N   UNL     1       1.583 -10.838  -3.488  0.00  0.00    -0.191 NA
ENDBRANCH  10  29
BRANCH   5  31
ATOM     31  O   UNL     1       5.061 -11.800   4.569  0.00  0.00    -0.423 OA
BRANCH  31  32
ATOM     32  C   UNL     1       4.712 -12.951   5.180  0.00  0.00    +0.337 C 
ATOM     33  O   UNL     1       3.877 -13.678   4.676  0.00  0.00    -0.245 OA
BRANCH  32  34
ATOM     34  C   UNL     1       5.338 -13.325   6.447  0.00  0.00    +0.092 C 
ATOM     35  C   UNL     1       4.990 -14.476   7.058  0.00  0.00    +0.015 C 
BRANCH  35  36
ATOM     36  C   UNL     1       5.620 -14.853   8.334  0.00  0.00    -0.025 A 
ATOM     37  C   UNL     1       6.576 -14.017   8.919  0.00  0.00    +0.008 A 
ATOM     38  C   UNL     1       7.162 -14.376  10.114  0.00  0.00    +0.001 A 
ATOM     39  C   UNL     1       6.806 -15.561  10.735  0.00  0.00    +0.000 A 
ATOM     40  C   UNL     1       5.860 -16.394  10.162  0.00  0.00    +0.001 A 
ATOM     41  C   UNL     1       5.261 -16.045   8.970  0.00  0.00    +0.008 A 
ENDBRANCH  35  36
ENDBRANCH  32  34
ENDBRANCH  31  32
ENDBRANCH   5  31
TORSDOF 10
