REMARK  Name = ZINC03090755
REMARK  13 active torsions:
REMARK  status: ('A' for Active; 'I' for Inactive)
REMARK    1  A    between atoms: C_1  and  C_2
REMARK    2  A    between atoms: C_3  and  C_33
REMARK    3  A    between atoms: C_5  and  C_31
REMARK    4  A    between atoms: C_6  and  C_30
REMARK    5  A    between atoms: C_7  and  C_8
REMARK    6  A    between atoms: C_8  and  O_9
REMARK    7  A    between atoms: O_9  and  C_10
REMARK    8  A    between atoms: C_13  and  C_18
REMARK    9  A    between atoms: C_15  and  O_16
REMARK   10  A    between atoms: O_16  and  C_17
REMARK   11  A    between atoms: N_19  and  N_20
REMARK   12  A    between atoms: C_21  and  C_23
REMARK   13  A    between atoms: C_28  and  O_29
REMARK                            x       y       z     vdW  Elec       q    Type
REMARK                         _______ _______ _______ _____ _____    ______ ____
ROOT
ATOM      1  C   UNL     1       2.387   1.414  -0.014  0.00  0.00    +0.162 A 
ATOM      2  C   UNL     1       2.406   0.027  -0.021  0.00  0.00    +0.050 A 
ATOM      3  C   UNL     1       1.223  -0.683  -0.013  0.00  0.00    +0.013 A 
ATOM      4  C   UNL     1       0.002  -0.004   0.002  0.00  0.00    -0.002 A 
ATOM      5  C   UNL     1      -0.017   1.393   0.010  0.00  0.00    +0.059 A 
ATOM      6  C   UNL     1       1.173   2.097   0.002  0.00  0.00    +0.162 A 
ENDROOT
BRANCH   6   7
ATOM      7  O   UNL     1       1.158   3.457   0.010  0.00  0.00    -0.491 OA
ATOM      8  C   UNL     1      -0.122   4.092   0.025  0.00  0.00    +0.277 C 
ENDBRANCH   6   7
BRANCH   4   9
ATOM      9  C   UNL     1      -1.263  -0.760   0.011  0.00  0.00    +0.138 C 
ATOM     10  N   UNL     1      -1.244  -2.058   0.003  0.00  0.00    -0.187 NA
BRANCH  10  11
ATOM     11  N   UNL     1      -2.446  -2.777   0.011  0.00  0.00    -0.203 N 
ATOM     12  C   UNL     1      -2.426  -4.125   0.004  0.00  0.00    +0.267 C 
ATOM     13  O   UNL     1      -1.364  -4.717  -0.010  0.00  0.00    -0.268 OA
ATOM     14  H   UNL     1      -3.294  -2.305   0.022  0.00  0.00    +0.178 HD
BRANCH  12  15
ATOM     15  C   UNL     1      -3.692  -4.881   0.013  0.00  0.00    +0.080 A 
ATOM     16  C   UNL     1      -4.915  -4.205   0.034  0.00  0.00    +0.017 A 
ATOM     17  C   UNL     1      -6.094  -4.918   0.037  0.00  0.00    +0.001 A 
ATOM     18  C   UNL     1      -6.074  -6.303   0.029  0.00  0.00    +0.004 A 
ATOM     19  C   UNL     1      -4.872  -6.984   0.013  0.00  0.00    +0.046 A 
ATOM     20  C   UNL     1      -3.676  -6.283   0.005  0.00  0.00    +0.129 A 
BRANCH  20  21
ATOM     21  O   UNL     1      -2.495  -6.950  -0.010  0.00  0.00    -0.506 OA
ATOM     22  H   UNL     1      -2.144  -7.149   0.869  0.00  0.00    +0.292 HD
ENDBRANCH  20  21
ENDBRANCH  12  15
ENDBRANCH  10  11
ENDBRANCH   4   9
BRANCH   1  23
ATOM     23  O   UNL     1       3.555   2.108  -0.021  0.00  0.00    -0.484 OA
BRANCH  23  24
ATOM     24  C   UNL     1       4.763   1.345  -0.037  0.00  0.00    +0.265 C 
BRANCH  24  31
ATOM     25  C   UNL     1       5.880   2.242  -2.546  0.00  0.00    +0.044 C 
ATOM     26  C   UNL     1       6.481   2.707  -1.244  0.00  0.00    -0.040 A 
ATOM     27  C   UNL     1       7.564   3.566  -1.251  0.00  0.00    -0.033 A 
ATOM     28  C   UNL     1       8.119   3.989  -0.056  0.00  0.00    +0.024 A 
ATOM     29  C   UNL     1       7.587   3.555   1.144  0.00  0.00    -0.033 A 
ATOM     30  C   UNL     1       6.501   2.699   1.150  0.00  0.00    -0.040 A 
ATOM     31  C   UNL     1       5.947   2.278  -0.044  0.00  0.00    -0.004 A 
ATOM     32  C   UNL     1       5.921   2.227   2.458  0.00  0.00    +0.044 C 
ATOM     33  C   UNL     1       8.191   4.015   2.446  0.00  0.00    +0.045 C 
ATOM     34 BR   UNL     1       9.604   5.159  -0.065  0.00  0.00    -0.050 Br
ATOM     35  C   UNL     1       8.143   4.039  -2.560  0.00  0.00    +0.045 C 
ENDBRANCH  24  31
ENDBRANCH  23  24
ENDBRANCH   1  23
TORSDOF 8
