REMARK  Name = ZINC38555967
REMARK  4 active torsions:
REMARK  status: ('A' for Active; 'I' for Inactive)
REMARK    1  A    between atoms: C_1  and  C_2
REMARK    2  A    between atoms: C_5  and  N_8
REMARK    3  A    between atoms: C_9  and  O_33
REMARK    4  A    between atoms: C_11  and  C_18
REMARK                            x       y       z     vdW  Elec       q    Type
REMARK                         _______ _______ _______ _____ _____    ______ ____
ROOT
ATOM      1  N   UNL     1      -0.183  -4.287  -0.037  0.00  0.00    -0.228 N 
ATOM      2  C   UNL     1       0.179  -4.897   1.244  0.00  0.00    +0.225 C 
ATOM      3  C   UNL     1      -0.461  -6.283   1.349  0.00  0.00    +0.145 C 
ATOM      4  C   UNL     1      -0.229  -7.035   0.062  0.00  0.00    +0.229 C 
ATOM      5  O   UNL     1      -0.062  -8.235   0.082  0.00  0.00    -0.275 OA
ATOM      6  N   UNL     1      -0.207  -6.372  -1.109  0.00  0.00    -0.239 N 
ATOM      7  C   UNL     1      -0.307  -5.033  -1.146  0.00  0.00    +0.315 C 
ATOM      8  O   UNL     1      -0.510  -4.484  -2.211  0.00  0.00    -0.252 OA
ATOM      9  H   UNL     1      -0.122  -6.869  -1.938  0.00  0.00    +0.159 HD
ENDROOT
BRANCH   3  10
ATOM     10  C   UNL     1      -1.964  -6.136   1.592  0.00  0.00    +0.117 C 
ATOM     11  C   UNL     1      -2.580  -7.498   1.808  0.00  0.00    +0.038 A 
ATOM     12  H   UNL     1      -1.257  -8.486   3.079  0.00  0.00    +0.166 HD
ATOM     13  C   UNL     1      -3.748  -7.877   1.241  0.00  0.00    -0.016 A 
ATOM     14  C   UNL     1      -4.012  -9.231   1.672  0.00  0.00    +0.003 A 
ATOM     15  C   UNL     1      -5.055 -10.126   1.411  0.00  0.00    +0.010 A 
ATOM     16  C   UNL     1      -4.977 -11.361   2.005  0.00  0.00    +0.001 A 
ATOM     17  C   UNL     1      -3.921 -11.717   2.826  0.00  0.00    +0.002 A 
ATOM     18  C   UNL     1      -2.876 -10.852   3.103  0.00  0.00    +0.026 A 
ATOM     19  C   UNL     1      -2.927  -9.591   2.514  0.00  0.00    +0.047 A 
ATOM     20  N   UNL     1      -2.084  -8.519   2.572  0.00  0.00    -0.356 N 
ATOM     21  C   UNL     1      -4.562  -6.985   0.338  0.00  0.00    +0.052 C 
ATOM     22  C   UNL     1      -4.063  -5.545   0.519  0.00  0.00    +0.086 C 
ATOM     23  N   UNL     1      -2.596  -5.514   0.416  0.00  0.00    -0.307 NA
ATOM     24  H   UNL     1      -2.260  -4.573   0.280  0.00  0.00    +0.123 HD
ENDBRANCH   3  10
BRANCH   1  29
ATOM     25  C   UNL     1      -1.093   1.306  -0.313  0.00  0.00    +0.044 C 
ATOM     26  C   UNL     1      -0.852  -0.180  -0.240  0.00  0.00    -0.050 A 
ATOM     27  C   UNL     1       0.394  -0.659   0.124  0.00  0.00    +0.005 A 
ATOM     28  C   UNL     1       0.619  -2.020   0.192  0.00  0.00    +0.024 A 
ATOM     29  C   UNL     1      -0.407  -2.907  -0.105  0.00  0.00    +0.040 A 
ATOM     30  C   UNL     1      -1.657  -2.423  -0.469  0.00  0.00    +0.024 A 
ATOM     31  C   UNL     1      -1.877  -1.061  -0.530  0.00  0.00    +0.005 A 
ENDBRANCH   1  29
BRANCH   2  32
ATOM     32  O   UNL     1      -0.291  -4.074   2.313  0.00  0.00    -0.373 OA
ATOM     33  H   UNL     1       0.143  -3.212   2.366  0.00  0.00    +0.212 HD
ENDBRANCH   2  32
TORSDOF 3
