REMARK  Name = ZINC41593549
REMARK  11 active torsions:
REMARK  status: ('A' for Active; 'I' for Inactive)
REMARK    1  A    between atoms: C_1  and  C_2
REMARK    2  A    between atoms: N_5  and  C_8
REMARK    3  A    between atoms: C_8  and  C_10
REMARK    4  A    between atoms: C_8  and  C_27
REMARK    5  A    between atoms: C_10  and  N_11
REMARK    6  A    between atoms: C_12  and  C_14
REMARK    7  A    between atoms: N_16  and  C_17
REMARK    8  A    between atoms: C_22  and  C_23
REMARK    9  A    between atoms: C_23  and  C_24
REMARK   10  A    between atoms: C_27  and  C_28
REMARK   11  A    between atoms: C_27  and  C_29
REMARK                            x       y       z     vdW  Elec       q    Type
REMARK                         _______ _______ _______ _____ _____    ______ ____
ROOT
ATOM      1  N   UNL     1      -2.955  -4.019   0.483  0.00  0.00    -0.309 N 
ATOM      2  C   UNL     1      -4.251  -4.377   0.386  0.00  0.00    +0.299 C 
ATOM      3  O   UNL     1      -4.769  -5.026   1.271  0.00  0.00    -0.265 OA
ATOM      4  H   UNL     1      -2.541  -3.500  -0.224  0.00  0.00    +0.149 HD
ENDROOT
BRANCH   2   5
ATOM      5  C   UNL     1      -5.049  -3.974  -0.810  0.00  0.00    +0.303 C 
ATOM      6  O   UNL     1      -4.531  -3.325  -1.695  0.00  0.00    -0.265 OA
ATOM      7  N   UNL     1      -6.345  -4.332  -0.907  0.00  0.00    -0.277 N 
ATOM      8  H   UNL     1      -6.772  -4.811  -0.180  0.00  0.00    +0.155 HD
BRANCH   7   9
ATOM      9  C   UNL     1      -7.074  -4.013  -2.056  0.00  0.00    +0.037 A 
ATOM     10  C   UNL     1      -6.706  -2.922  -2.833  0.00  0.00    +0.023 A 
ATOM     11  C   UNL     1      -7.428  -2.609  -3.968  0.00  0.00    +0.002 A 
ATOM     12  C   UNL     1      -8.517  -3.382  -4.331  0.00  0.00    +0.000 A 
ATOM     13  C   UNL     1      -8.886  -4.468  -3.560  0.00  0.00    +0.006 A 
ATOM     14  C   UNL     1      -8.164  -4.790  -2.427  0.00  0.00    -0.017 A 
BRANCH  14  15
ATOM     15  C   UNL     1      -8.562  -5.979  -1.591  0.00  0.00    +0.132 C 
BRANCH  15  16
ATOM     16  C   UNL     1      -9.453  -5.525  -0.464  0.00  0.00    +0.215 C 
ATOM     17  O   UNL     1      -9.737  -4.351  -0.350  0.00  0.00    -0.276 OA
ATOM     18  N   UNL     1      -9.935  -6.423   0.418  0.00  0.00    -0.329 N 
ATOM     19  H   UNL     1      -9.708  -7.361   0.328  0.00  0.00    +0.145 HD
ATOM     20  H   UNL     1     -10.509  -6.130   1.144  0.00  0.00    +0.145 HD
ENDBRANCH  15  16
ENDBRANCH  14  15
ENDBRANCH   7   9
ENDBRANCH   2   5
BRANCH   1  21
ATOM     21  C   UNL     1      -2.172  -4.413   1.657  0.00  0.00    +0.089 C 
BRANCH  21  22
ATOM     22  C   UNL     1      -0.751  -3.860   1.531  0.00  0.00    -0.049 C 
BRANCH  22  27
ATOM     23  C   UNL     1      -2.003   1.647   2.327  0.00  0.00    +0.007 C 
ATOM     24  C   UNL     1      -2.112   0.131   2.147  0.00  0.00    -0.018 C 
ATOM     25  C   UNL     1      -1.319  -0.574   3.252  0.00  0.00    -0.016 C 
ATOM     26  C   UNL     1      -1.366  -2.086   3.021  0.00  0.00    -0.078 C 
ATOM     27  N   UNL     1      -0.775  -2.403   1.715  0.00  0.00    +0.383 N 
ATOM     28  C   UNL     1      -1.572  -1.789   0.646  0.00  0.00    -0.078 C 
ATOM     29  C   UNL     1      -1.534  -0.266   0.786  0.00  0.00    -0.016 C 
ATOM     30  H   UNL     1       0.168  -2.045   1.678  0.00  0.00    -0.081 HD
ENDBRANCH  22  27
BRANCH  22  31
ATOM     31  C   UNL     1       0.139  -4.494   2.602  0.00  0.00    -0.029 C 
ATOM     32  C   UNL     1       0.267  -5.996   2.335  0.00  0.00    +0.005 C 
ATOM     33  C   UNL     1       1.526  -3.850   2.559  0.00  0.00    +0.005 C 
ENDBRANCH  22  31
ENDBRANCH  21  22
ENDBRANCH   1  21
TORSDOF 8
