REMARK  Name = ZINC61406054
REMARK  7 active torsions:
REMARK  status: ('A' for Active; 'I' for Inactive)
REMARK    1  A    between atoms: C_1  and  C_2
REMARK    2  A    between atoms: C_2  and  C_3
REMARK    3  A    between atoms: C_3  and  C_5
REMARK    4  A    between atoms: C_3  and  N_23
REMARK    5  A    between atoms: C_5  and  C_7
REMARK    6  A    between atoms: C_5  and  S_13
REMARK    7  A    between atoms: S_13  and  C_14
REMARK                            x       y       z     vdW  Elec       q    Type
REMARK                         _______ _______ _______ _____ _____    ______ ____
ROOT
ATOM      1  C   UNL     1       0.874  -2.021   1.030  0.00  0.00    +0.076 C 
ENDROOT
BRANCH   1   2
ATOM      2  C   UNL     1       1.357  -2.502   2.374  0.00  0.00    +0.003 A 
ATOM      3  C   UNL     1       2.472  -3.211   2.677  0.00  0.00    +0.027 A 
ATOM      4  C   UNL     1       2.716  -3.546   3.996  0.00  0.00    +0.025 A 
ATOM      5  C   UNL     1       1.833  -3.155   4.947  0.00  0.00    +0.060 A 
ATOM      6  S   UNL     1       0.613  -2.279   3.982  0.00  0.00    -0.099 S 
ATOM      7 BR   UNL     1       4.258  -4.535   4.466  0.00  0.00    -0.050 Br
ENDBRANCH   1   2
BRANCH   1   8
ATOM      8  C   UNL     1       0.777  -0.494   1.040  0.00  0.00    -0.057 C 
BRANCH   8   9
ATOM      9  N   UNL     1       0.248  -0.028  -0.249  0.00  0.00    +0.381 N 
ATOM     10  H   UNL     1      -0.668  -0.423  -0.399  0.00  0.00    -0.090 HD
ATOM     11  H   UNL     1       0.184   0.979  -0.243  0.00  0.00    -0.090 HD
ATOM     12  H   UNL     1       0.866  -0.321  -0.991  0.00  0.00    -0.090 HD
ENDBRANCH   8   9
BRANCH   8  14
ATOM     13  C   UNL     1       2.051   1.623   1.414  0.00  0.00    +0.002 C 
ATOM     14  C   UNL     1       2.167   0.104   1.267  0.00  0.00    -0.018 C 
ENDBRANCH   8  14
ENDBRANCH   1   8
BRANCH   1  15
ATOM     15  S   UNL     1      -0.760  -2.728   0.686  0.00  0.00    -0.079 S 
BRANCH  15  16
ATOM     16  C   UNL     1      -0.446  -4.451   0.489  0.00  0.00    +0.196 A 
ATOM     17  N   UNL     1       0.731  -5.034   0.503  0.00  0.00    -0.122 NA
ATOM     18  N   UNL     1       0.603  -6.303   0.332  0.00  0.00    -0.129 NA
ATOM     19  C   UNL     1      -0.675  -6.606   0.197  0.00  0.00    +0.162 A 
ATOM     20  N   UNL     1      -1.380  -5.426   0.299  0.00  0.00    -0.278 N 
ATOM     21  C   UNL     1      -2.744  -5.424   0.203  0.00  0.00    +0.095 A 
ATOM     22  C   UNL     1      -3.417  -6.576   0.010  0.00  0.00    +0.018 A 
ATOM     23  C   UNL     1      -2.725  -7.797  -0.096  0.00  0.00    +0.005 A 
ATOM     24  C   UNL     1      -1.368  -7.816  -0.010  0.00  0.00    +0.049 A 
ENDBRANCH  15  16
ENDBRANCH   1  15
TORSDOF 6
