REMARK  Name = ZINC12484595
REMARK  9 active torsions:
REMARK  status: ('A' for Active; 'I' for Inactive)
REMARK    1  A    between atoms: C_3  and  S_19
REMARK    2  A    between atoms: C_6  and  N_7
REMARK    3  A    between atoms: C_8  and  C_10
REMARK    4  A    between atoms: C_10  and  O_11
REMARK    5  A    between atoms: O_11  and  C_12
REMARK    6  A    between atoms: S_19  and  N_22
REMARK    7  A    between atoms: N_22  and  C_23
REMARK    8  A    between atoms: C_26  and  S_29
REMARK    9  A    between atoms: S_29  and  N_32
REMARK                            x       y       z     vdW  Elec       q    Type
REMARK                         _______ _______ _______ _____ _____    ______ ____
ROOT
ATOM      1  C   UNL     1       5.779  -2.872   1.055  0.00  0.00    +0.025 A 
ATOM      2  C   UNL     1       4.522  -3.182   0.575  0.00  0.00    +0.030 A 
ATOM      3  C   UNL     1       3.939  -2.394  -0.401  0.00  0.00    +0.109 A 
ATOM      4  C   UNL     1       4.614  -1.296  -0.902  0.00  0.00    +0.030 A 
ATOM      5  C   UNL     1       5.870  -0.978  -0.422  0.00  0.00    +0.025 A 
ATOM      6  C   UNL     1       6.458  -1.767   0.558  0.00  0.00    +0.034 A 
ENDROOT
BRANCH   6   7
ATOM      7  N   UNL     1       7.731  -1.449   1.043  0.00  0.00    -0.283 N 
ATOM      8  C   UNL     1       8.572  -2.432   1.422  0.00  0.00    +0.255 C 
ATOM      9  O   UNL     1       8.263  -3.593   1.256  0.00  0.00    -0.272 OA
ATOM     10  H   UNL     1       8.008  -0.522   1.107  0.00  0.00    +0.155 HD
BRANCH   8  11
ATOM     11  C   UNL     1       9.897  -2.088   2.053  0.00  0.00    +0.324 C 
BRANCH  11  12
ATOM     12  O   UNL     1      10.602  -3.291   2.365  0.00  0.00    -0.483 OA
BRANCH  12  13
ATOM     13  C   UNL     1      11.825  -3.157   2.944  0.00  0.00    +0.121 A 
ATOM     14  C   UNL     1      12.337  -1.893   3.201  0.00  0.00    +0.047 A 
ATOM     15  C   UNL     1      13.577  -1.759   3.794  0.00  0.00    +0.023 A 
ATOM     16  C   UNL     1      14.314  -2.884   4.122  0.00  0.00    +0.041 A 
ATOM     17  C   UNL     1      13.807  -4.145   3.861  0.00  0.00    +0.023 A 
ATOM     18  C   UNL     1      12.565  -4.283   3.273  0.00  0.00    +0.047 A 
ATOM     19 CL   UNL     1      15.875  -2.712   4.861  0.00  0.00    -0.084 Cl
ENDBRANCH  12  13
ENDBRANCH  11  12
ENDBRANCH   8  11
ENDBRANCH   6   7
BRANCH   3  20
ATOM     20  S   UNL     1       2.335  -2.794  -1.011  0.00  0.00    +0.072 S 
ATOM     21  O   UNL     1       2.095  -4.151  -0.665  0.00  0.00    -0.150 OA
ATOM     22  O   UNL     1       2.284  -2.329  -2.353  0.00  0.00    -0.150 OA
BRANCH  20  23
ATOM     23  N   UNL     1       1.246  -1.887  -0.155  0.00  0.00    -0.216 N 
ATOM     24  H   UNL     1       0.684  -1.243  -0.614  0.00  0.00    +0.174 HD
BRANCH  23  25
ATOM     25  C   UNL     1       1.135  -2.050   1.228  0.00  0.00    +0.048 A 
ATOM     26  C   UNL     1       1.089  -0.938   2.058  0.00  0.00    +0.026 A 
ATOM     27  C   UNL     1       0.980  -1.103   3.425  0.00  0.00    +0.030 A 
ATOM     28  C   UNL     1       0.916  -2.374   3.967  0.00  0.00    +0.105 A 
ATOM     29  C   UNL     1       0.961  -3.483   3.143  0.00  0.00    +0.030 A 
ATOM     30  C   UNL     1       1.070  -3.325   1.775  0.00  0.00    +0.026 A 
BRANCH  28  31
ATOM     31  S   UNL     1       0.777  -2.580   5.711  0.00  0.00    +0.056 S 
ATOM     32  O   UNL     1       1.284  -3.873   6.009  0.00  0.00    -0.153 OA
ATOM     33  O   UNL     1       1.305  -1.400   6.303  0.00  0.00    -0.153 OA
BRANCH  31  34
ATOM     34  N   UNL     1      -0.838  -2.610   6.074  0.00  0.00    -0.204 NA
ATOM     35  H   UNL     1      -1.496  -2.520   5.366  0.00  0.00    +0.144 HD
ATOM     36  H   UNL     1      -1.127  -2.716   6.994  0.00  0.00    +0.144 HD
ENDBRANCH  31  34
ENDBRANCH  28  31
ENDBRANCH  23  25
ENDBRANCH  20  23
ENDBRANCH   3  20
TORSDOF 9
