REMARK  Name = ZINC08923405
REMARK  10 active torsions:
REMARK  status: ('A' for Active; 'I' for Inactive)
REMARK    1  A    between atoms: C_1  and  C_2
REMARK    2  A    between atoms: C_2  and  C_3
REMARK    3  A    between atoms: C_2  and  N_58
REMARK    4  A    between atoms: C_11  and  O_32
REMARK    5  A    between atoms: C_13  and  C_16
REMARK    6  A    between atoms: C_19  and  O_24
REMARK    7  A    between atoms: C_20  and  O_22
REMARK    8  A    between atoms: O_22  and  C_23
REMARK    9  A    between atoms: O_24  and  C_25
REMARK   10  A    between atoms: C_25  and  C_27
REMARK                            x       y       z     vdW  Elec       q    Type
REMARK                         _______ _______ _______ _____ _____    ______ ____
ROOT
ATOM      1  C   UNL     1      -9.356  -0.426  -6.485  0.00  0.00    -0.073 C 
ATOM      2  C   UNL     1      -9.929  -0.154  -5.091  0.00  0.00    +0.018 C 
ATOM      3  C   UNL     1      -9.237  -1.084  -4.101  0.00  0.00    -0.027 A 
ATOM      4  C   UNL     1      -8.573  -2.175  -4.551  0.00  0.00    -0.021 A 
ATOM      5  S   UNL     1      -7.935  -2.953  -3.091  0.00  0.00    -0.080 S 
ATOM      6  C   UNL     1      -8.539  -1.859  -1.922  0.00  0.00    +0.080 A 
ATOM      7  C   UNL     1      -9.228  -0.890  -2.664  0.00  0.00    +0.067 A 
ATOM      8  C   UNL     1      -9.866   0.219  -1.908  0.00  0.00    +0.220 C 
ATOM      9  N   UNL     1      -9.579   0.334  -0.642  0.00  0.00    -0.223 NA
ATOM     10  C   UNL     1      -8.604  -0.483   0.069  0.00  0.00    +0.224 C 
ATOM     11  N   UNL     1      -8.452  -1.812  -0.552  0.00  0.00    -0.313 N 
ATOM     12  C   UNL     1      -8.429  -2.606  -5.976  0.00  0.00    -0.035 C 
ATOM     13  H   UNL     1      -8.298  -2.610  -0.022  0.00  0.00    +0.149 HD
ATOM     14  N   UNL     1      -9.440  -1.872  -6.776  0.00  0.00    +0.384 N 
ATOM     15  H   UNL     1     -10.376  -2.211  -6.522  0.00  0.00    -0.081 HD
ENDROOT
BRANCH  10  16
ATOM     16  C   UNL     1      -7.272   0.220   0.059  0.00  0.00    -0.002 A 
ATOM     17  C   UNL     1      -6.103  -0.516   0.103  0.00  0.00    +0.011 A 
ATOM     18  C   UNL     1      -4.878   0.124   0.087  0.00  0.00    +0.050 A 
ATOM     19  C   UNL     1      -4.820   1.508   0.040  0.00  0.00    +0.173 A 
ATOM     20  C   UNL     1      -5.997   2.249  -0.004  0.00  0.00    +0.163 A 
ATOM     21  C   UNL     1      -7.221   1.601   0.005  0.00  0.00    +0.056 A 
BRANCH  20  22
ATOM     22  O   UNL     1      -5.946   3.607  -0.058  0.00  0.00    -0.491 OA
ATOM     23  C   UNL     1      -7.193   4.302  -0.101  0.00  0.00    +0.277 C 
ENDBRANCH  20  22
BRANCH  19  24
ATOM     24  O   UNL     1      -3.616   2.140   0.031  0.00  0.00    -0.418 OA
BRANCH  24  25
ATOM     25  C   UNL     1      -3.128   2.545   1.221  0.00  0.00    +0.351 C 
ATOM     26  O   UNL     1      -3.800   2.423   2.227  0.00  0.00    -0.244 OA
BRANCH  25  27
ATOM     27  C   UNL     1      -1.789   3.131   1.302  0.00  0.00    +0.097 A 
ATOM     28  C   UNL     1      -1.108   3.606   2.413  0.00  0.00    +0.022 A 
ATOM     29  C   UNL     1       0.153   4.106   2.207  0.00  0.00    +0.008 A 
ATOM     30  C   UNL     1       0.664   4.117   0.947  0.00  0.00    +0.046 A 
ATOM     31  S   UNL     1      -0.609   3.424  -0.004  0.00  0.00    -0.090 S 
ENDBRANCH  25  27
ENDBRANCH  24  25
ENDBRANCH  19  24
ENDBRANCH  10  16
BRANCH  14  33
ATOM     32  C   UNL     1      -7.822  -1.636  -8.628  0.00  0.00    -0.014 C 
ATOM     33  C   UNL     1      -9.216  -2.112  -8.218  0.00  0.00    -0.074 C 
ATOM     34  C   UNL     1      -9.347  -3.611  -8.499  0.00  0.00    -0.014 C 
ENDBRANCH  14  33
BRANCH   8  35
ATOM     35  O   UNL     1     -10.714   1.081  -2.515  0.00  0.00    -0.492 OA
ATOM     36  H   UNL     1     -11.069   1.762  -1.927  0.00  0.00    +0.294 HD
ENDBRANCH   8  35
TORSDOF 7
