REMARK  Name = ZINC38688945
REMARK  7 active torsions:
REMARK  status: ('A' for Active; 'I' for Inactive)
REMARK    1  A    between atoms: C_7  and  C_10
REMARK    2  A    between atoms: N_11  and  N_12
REMARK    3  A    between atoms: C_13  and  C_15
REMARK    4  A    between atoms: C_17  and  C_28
REMARK    5  A    between atoms: C_28  and  N_29
REMARK    6  A    between atoms: N_29  and  C_30
REMARK    7  A    between atoms: C_35  and  C_36
REMARK                            x       y       z     vdW  Elec       q    Type
REMARK                         _______ _______ _______ _____ _____    ______ ____
ROOT
ATOM      1  C   UNL     1      -0.356  -7.713   0.007  0.00  0.00    +0.240 C 
ATOM      2  C   UNL     1      -0.734  -8.117  -1.434  0.00  0.00    +0.154 C 
ATOM      3  N   UNL     1      -0.131  -9.458  -1.554  0.00  0.00    -0.176 N 
ATOM      4  N   UNL     1       0.492  -9.746  -0.339  0.00  0.00    -0.077 NA
ATOM      5  N   UNL     1       0.402  -8.864   0.514  0.00  0.00    -0.156 NA
ATOM      6  C   UNL     1      -0.176 -10.285  -2.674  0.00  0.00    +0.228 A 
ATOM      7  C   UNL     1       0.333 -11.659  -2.748  0.00  0.00    +0.204 A 
ATOM      8  N   UNL     1       0.116 -12.112  -3.951  0.00  0.00    -0.032 NA
ATOM      9  O   UNL     1      -0.523 -11.088  -4.693  0.00  0.00    -0.239 OA
ATOM     10  N   UNL     1      -0.681  -9.972  -3.834  0.00  0.00    -0.030 NA
ATOM     11  N   UNL     1       0.942 -12.358  -1.712  0.00  0.00    -0.338 N 
ATOM     12  H   UNL     1       1.061 -11.937  -0.846  0.00  0.00    +0.144 HD
ATOM     13  H   UNL     1       1.247 -13.268  -1.854  0.00  0.00    +0.144 HD
ENDROOT
BRANCH   1  15
ATOM     14  N   UNL     1      -0.068  -5.259  -0.101  0.00  0.00    -0.205 N 
ATOM     15  C   UNL     1       0.503  -6.475   0.001  0.00  0.00    +0.261 C 
ATOM     16  O   UNL     1       1.709  -6.574   0.088  0.00  0.00    -0.272 OA
ATOM     17  H   UNL     1      -1.032  -5.180  -0.171  0.00  0.00    +0.177 HD
BRANCH  14  19
ATOM     18  C   UNL     1       0.177  -2.926  -0.206  0.00  0.00    +0.136 C 
ATOM     19  N   UNL     1       0.732  -4.108  -0.107  0.00  0.00    -0.188 NA
BRANCH  18  26
ATOM     20  C   UNL     1      -0.854   1.479  -0.506  0.00  0.00    +0.001 A 
ATOM     21  C   UNL     1       0.264   2.318  -0.473  0.00  0.00    +0.002 A 
ATOM     22  C   UNL     1       1.522   1.830  -0.362  0.00  0.00    +0.026 A 
ATOM     23  C   UNL     1       1.730   0.428  -0.275  0.00  0.00    +0.043 A 
ATOM     24  N   UNL     1       2.832  -0.284  -0.164  0.00  0.00    -0.380 N 
ATOM     25  C   UNL     1       2.485  -1.708  -0.113  0.00  0.00    +0.150 C 
ATOM     26  C   UNL     1       0.977  -1.774  -0.212  0.00  0.00    +0.000 C 
ATOM     27  C   UNL     1       0.549  -0.453  -0.309  0.00  0.00    +0.004 A 
ATOM     28  C   UNL     1      -0.732   0.130  -0.427  0.00  0.00    +0.010 A 
ATOM     29  H   UNL     1       3.732   0.076  -0.122  0.00  0.00    +0.160 HD
ENDBRANCH  18  26
ENDBRANCH  14  19
ENDBRANCH   1  15
BRANCH   2  30
ATOM     30  C   UNL     1      -0.122  -7.148  -2.448  0.00  0.00    +0.128 C 
BRANCH  30  31
ATOM     31  N   UNL     1       1.337  -7.283  -2.434  0.00  0.00    -0.341 N 
ATOM     32  H   UNL     1       1.755  -7.972  -1.895  0.00  0.00    +0.146 HD
BRANCH  31  33
ATOM     33  C   UNL     1       2.120  -6.425  -3.194  0.00  0.00    +0.039 A 
ATOM     34  C   UNL     1       1.524  -5.502  -4.044  0.00  0.00    +0.024 A 
ATOM     35  C   UNL     1       2.304  -4.649  -4.797  0.00  0.00    +0.002 A 
ATOM     36  C   UNL     1       3.687  -4.706  -4.713  0.00  0.00    +0.001 A 
ATOM     37  C   UNL     1       4.297  -5.614  -3.876  0.00  0.00    +0.015 A 
ATOM     38  C   UNL     1       3.520  -6.481  -3.103  0.00  0.00    +0.057 A 
BRANCH  38  39
ATOM     39  C   UNL     1       4.166  -7.451  -2.200  0.00  0.00    +0.243 C 
ATOM     40  O   UNL     1       3.493  -8.272  -1.608  0.00  0.00    -0.270 OA
ATOM     41  N   UNL     1       5.503  -7.428  -2.032  0.00  0.00    -0.325 N 
ATOM     42  H   UNL     1       6.040  -6.773  -2.505  0.00  0.00    +0.145 HD
ATOM     43  H   UNL     1       5.928  -8.066  -1.438  0.00  0.00    +0.145 HD
ENDBRANCH  38  39
ENDBRANCH  31  33
ENDBRANCH  30  31
ENDBRANCH   2  30
TORSDOF 7
