REMARK  Name = ZINC15020023
REMARK  6 active torsions:
REMARK  status: ('A' for Active; 'I' for Inactive)
REMARK    1  A    between atoms: C_2  and  N_24
REMARK    2  A    between atoms: C_5  and  N_7
REMARK    3  A    between atoms: C_9  and  N_23
REMARK    4  A    between atoms: N_12  and  C_13
REMARK    5  A    between atoms: C_16  and  N_19
REMARK    6  A    between atoms: C_20  and  N_22
REMARK                            x       y       z     vdW  Elec       q    Type
REMARK                         _______ _______ _______ _____ _____    ______ ____
ROOT
ATOM      1  N   UNL     1       0.569  -2.184  -0.580  0.00  0.00    -0.246 NA
ATOM      2  C   UNL     1       0.019  -2.829   0.439  0.00  0.00    +0.087 C 
ATOM      3  C   UNL     1       0.110  -4.294   0.517  0.00  0.00    +0.052 C 
ATOM      4  C   UNL     1      -0.454  -4.955   1.560  0.00  0.00    +0.054 C 
ATOM      5  C   UNL     1      -1.128  -4.233   2.574  0.00  0.00    +0.087 C 
ATOM      6  N   UNL     1      -1.679  -4.878   3.592  0.00  0.00    -0.246 NA
ATOM      7  C   UNL     1      -1.218  -2.767   2.497  0.00  0.00    +0.052 C 
ATOM      8  C   UNL     1      -0.651  -2.106   1.455  0.00  0.00    +0.054 C 
ENDROOT
BRANCH   1  13
ATOM      9  C   UNL     1       0.059   1.242  -1.675  0.00  0.00    +0.025 A 
ATOM     10  C   UNL     1       0.638   1.935  -0.615  0.00  0.00    +0.025 A 
ATOM     11  C   UNL     1       1.193   1.242   0.457  0.00  0.00    +0.025 A 
ATOM     12  C   UNL     1       1.173  -0.129   0.474  0.00  0.00    +0.029 A 
ATOM     13  C   UNL     1       0.591  -0.833  -0.591  0.00  0.00    +0.065 A 
ATOM     14  C   UNL     1       0.033  -0.129  -1.669  0.00  0.00    +0.029 A 
BRANCH  10  15
ATOM     15  N   UNL     1       0.662   3.328  -0.628  0.00  0.00    -0.358 N 
ATOM     16  H   UNL     1       0.276   3.813  -1.374  0.00  0.00    +0.142 HD
ATOM     17  H   UNL     1       1.064   3.813   0.110  0.00  0.00    +0.142 HD
ENDBRANCH  10  15
ENDBRANCH   1  13
BRANCH   6  18
ATOM     18  C   UNL     1      -1.500  -6.211   3.724  0.00  0.00    +0.065 A 
ATOM     19  C   UNL     1      -0.205  -6.745   3.783  0.00  0.00    +0.029 A 
ATOM     20  C   UNL     1      -0.029  -8.098   3.917  0.00  0.00    +0.025 A 
ATOM     21  C   UNL     1      -1.135  -8.942   3.993  0.00  0.00    +0.025 A 
ATOM     22  C   UNL     1      -2.423  -8.417   3.934  0.00  0.00    +0.025 A 
ATOM     23  C   UNL     1      -2.610  -7.065   3.807  0.00  0.00    +0.029 A 
BRANCH  21  24
ATOM     24  N   UNL     1      -0.951 -10.316   4.128  0.00  0.00    -0.358 N 
ATOM     25  H   UNL     1      -0.054 -10.684   4.169  0.00  0.00    +0.142 HD
ATOM     26  H   UNL     1      -1.720 -10.905   4.182  0.00  0.00    +0.142 HD
ENDBRANCH  21  24
ENDBRANCH   6  18
BRANCH   7  27
ATOM     27  N   UNL     1      -1.880  -2.058   3.492  0.00  0.00    -0.356 N 
ATOM     28  H   UNL     1      -2.283  -2.530   4.238  0.00  0.00    +0.142 HD
ATOM     29  H   UNL     1      -1.939  -1.091   3.442  0.00  0.00    +0.142 HD
ENDBRANCH   7  27
BRANCH   3  30
ATOM     30  N   UNL     1       0.772  -5.003  -0.478  0.00  0.00    -0.356 N 
ATOM     31  H   UNL     1       1.174  -4.531  -1.224  0.00  0.00    +0.142 HD
ATOM     32  H   UNL     1       0.832  -5.970  -0.427  0.00  0.00    +0.142 HD
ENDBRANCH   3  30
TORSDOF 6
