REMARK  Name = ZINC63503303
REMARK  5 active torsions:
REMARK  status: ('A' for Active; 'I' for Inactive)
REMARK    1  A    between atoms: C_1  and  C_2
REMARK    2  A    between atoms: C_2  and  O_3
REMARK    3  A    between atoms: O_3  and  C_4
REMARK    4  A    between atoms: C_7  and  C_10
REMARK    5  A    between atoms: C_25  and  C_27
REMARK                            x       y       z     vdW  Elec       q    Type
REMARK                         _______ _______ _______ _____ _____    ______ ____
ROOT
ATOM      1  C   UNL     1      -2.012  -6.103  -0.019  0.00  0.00    +0.133 C 
ATOM      2  C   UNL     1      -2.475  -6.459  -1.436  0.00  0.00    +0.131 C 
ATOM      3  C   UNL     1      -3.000  -7.888  -1.375  0.00  0.00    -0.035 C 
ATOM      4  C   UNL     1      -2.315  -8.578  -2.280  0.00  0.00    -0.001 A 
ATOM      5  C   UNL     1      -2.416  -9.976  -2.728  0.00  0.00    +0.010 A 
ATOM      6  C   UNL     1      -1.532 -10.364  -3.685  0.00  0.00    +0.001 A 
ATOM      7  C   UNL     1      -0.568  -9.512  -4.233  0.00  0.00    +0.002 A 
ATOM      8  C   UNL     1      -0.406  -8.211  -3.883  0.00  0.00    +0.026 A 
ATOM      9  C   UNL     1      -1.282  -7.685  -2.889  0.00  0.00    +0.043 A 
ATOM     10  N   UNL     1      -1.361  -6.465  -2.386  0.00  0.00    -0.375 N 
ATOM     11  C   UNL     1      -4.043  -8.326  -0.377  0.00  0.00    +0.052 C 
ATOM     12  C   UNL     1      -3.557  -7.857   1.006  0.00  0.00    +0.113 C 
ATOM     13  N   UNL     1      -3.089  -6.470   0.914  0.00  0.00    -0.285 N 
ATOM     14  C   UNL     1      -3.651  -5.523   1.691  0.00  0.00    +0.283 C 
ATOM     15  O   UNL     1      -3.365  -4.352   1.526  0.00  0.00    -0.267 OA
ATOM     16  H   UNL     1      -0.791  -5.710  -2.597  0.00  0.00    +0.160 HD
ENDROOT
BRANCH  14  17
ATOM     17  C   UNL     1      -4.610  -5.905   2.737  0.00  0.00    +0.191 A 
ATOM     18  C   UNL     1      -5.359  -5.037   3.466  0.00  0.00    +0.063 A 
ATOM     19  C   UNL     1      -6.158  -5.856   4.376  0.00  0.00    +0.022 A 
ATOM     20  C   UNL     1      -7.107  -5.574   5.362  0.00  0.00    +0.027 A 
ATOM     21  C   UNL     1      -7.688  -6.598   6.057  0.00  0.00    +0.019 A 
ATOM     22  C   UNL     1      -7.340  -7.916   5.788  0.00  0.00    +0.019 A 
ATOM     23  C   UNL     1      -6.407  -8.215   4.820  0.00  0.00    +0.048 A 
ATOM     24  C   UNL     1      -5.803  -7.190   4.101  0.00  0.00    +0.136 A 
ATOM     25  O   UNL     1      -4.884  -7.171   3.116  0.00  0.00    -0.450 OA
ATOM     26 BR   UNL     1      -8.972  -6.218   7.392  0.00  0.00    -0.050 Br
ENDBRANCH  14  17
BRANCH   1  30
ATOM     27  C   UNL     1      -1.245  -1.907   0.240  0.00  0.00    +0.121 A 
ATOM     28  C   UNL     1      -2.120  -2.395  -0.719  0.00  0.00    +0.046 A 
ATOM     29  C   UNL     1      -2.367  -3.752  -0.801  0.00  0.00    +0.009 A 
ATOM     30  C   UNL     1      -1.742  -4.623   0.072  0.00  0.00    -0.025 A 
ATOM     31  C   UNL     1      -0.869  -4.139   1.029  0.00  0.00    +0.009 A 
ATOM     32  C   UNL     1      -0.615  -2.783   1.111  0.00  0.00    +0.046 A 
BRANCH  27  33
ATOM     33  O   UNL     1      -1.001  -0.572   0.322  0.00  0.00    -0.492 OA
BRANCH  33  35
ATOM     34  C   UNL     1      -1.286   1.728  -0.362  0.00  0.00    +0.048 C 
ATOM     35  C   UNL     1      -1.685   0.271  -0.607  0.00  0.00    +0.225 C 
ENDBRANCH  33  35
ENDBRANCH  27  33
ENDBRANCH   1  30
TORSDOF 4
