REMARK  Name = ZINC04257898
REMARK  10 active torsions:
REMARK  status: ('A' for Active; 'I' for Inactive)
REMARK    1  A    between atoms: C_1  and  C_2
REMARK    2  A    between atoms: N_4  and  C_5
REMARK    3  A    between atoms: C_7  and  O_32
REMARK    4  A    between atoms: C_9  and  O_31
REMARK    5  A    between atoms: C_11  and  C_29
REMARK    6  A    between atoms: C_14  and  O_16
REMARK    7  A    between atoms: O_16  and  C_17
REMARK    8  A    between atoms: C_17  and  C_18
REMARK    9  A    between atoms: C_18  and  C_19
REMARK   10  A    between atoms: C_29  and  O_30
REMARK                            x       y       z     vdW  Elec       q    Type
REMARK                         _______ _______ _______ _____ _____    ______ ____
ROOT
ATOM      1  C   UNL     1      -0.775   1.909  -3.541  0.00  0.00    +0.160 C 
ATOM      2  C   UNL     1      -0.198   1.525  -4.907  0.00  0.00    +0.171 C 
ATOM      3  C   UNL     1      -0.396   0.023  -5.129  0.00  0.00    +0.176 C 
ATOM      4  C   UNL     1       0.266  -0.746  -3.982  0.00  0.00    +0.178 C 
ATOM      5  O   UNL     1      -0.295  -0.320  -2.739  0.00  0.00    -0.341 OA
ATOM      6  C   UNL     1      -0.099   1.067  -2.455  0.00  0.00    +0.273 C 
ENDROOT
BRANCH   1  10
ATOM      7  C   UNL     1      -4.555   2.329  -3.978  0.00  0.00    +0.109 C 
ATOM      8  C   UNL     1      -3.071   2.591  -3.989  0.00  0.00    +0.210 C 
ATOM      9  O   UNL     1      -2.644   3.645  -4.411  0.00  0.00    -0.276 OA
ATOM     10  N   UNL     1      -2.218   1.654  -3.530  0.00  0.00    -0.305 N 
ATOM     11  H   UNL     1      -2.559   0.811  -3.193  0.00  0.00    +0.149 HD
ENDBRANCH   1  10
BRANCH   3  12
ATOM     12  O   UNL     1      -1.793  -0.275  -5.162  0.00  0.00    -0.387 OA
ATOM     13  H   UNL     1      -1.992  -1.212  -5.300  0.00  0.00    +0.210 HD
ENDBRANCH   3  12
BRANCH   2  14
ATOM     14  O   UNL     1       1.197   1.834  -4.940  0.00  0.00    -0.387 OA
ATOM     15  H   UNL     1       1.628   1.617  -5.778  0.00  0.00    +0.210 HD
ENDBRANCH   2  14
BRANCH   6  16
ATOM     16  O   UNL     1      -0.672   1.379  -1.184  0.00  0.00    -0.349 OA
BRANCH  16  17
ATOM     17  C   UNL     1       0.034   0.819  -0.075  0.00  0.00    +0.168 C 
BRANCH  17  18
ATOM     18  C   UNL     1      -0.665   1.216   1.227  0.00  0.00    +0.064 C 
BRANCH  18  19
ATOM     19  C   UNL     1       0.080   0.626   2.397  0.00  0.00    -0.037 A 
ATOM     20  C   UNL     1      -0.318  -0.561   2.933  0.00  0.00    +0.004 A 
ATOM     21  C   UNL     1       0.360  -1.124   4.011  0.00  0.00    +0.001 A 
ATOM     22  C   UNL     1       1.435  -0.500   4.566  0.00  0.00    +0.008 A 
ATOM     23  C   UNL     1       1.872   0.729   4.044  0.00  0.00    -0.018 A 
ATOM     24  C   UNL     1       1.184   1.300   2.943  0.00  0.00    -0.015 A 
ATOM     25  C   UNL     1       1.622   2.529   2.421  0.00  0.00    +0.009 A 
ATOM     26  C   UNL     1       2.696   3.153   2.976  0.00  0.00    +0.001 A 
ATOM     27  C   UNL     1       3.373   2.591   4.057  0.00  0.00    +0.001 A 
ATOM     28  C   UNL     1       2.978   1.403   4.590  0.00  0.00    +0.008 A 
ENDBRANCH  18  19
ENDBRANCH  17  18
ENDBRANCH  16  17
ENDBRANCH   6  16
BRANCH   4  29
ATOM     29  C   UNL     1       0.021  -2.245  -4.165  0.00  0.00    +0.190 C 
BRANCH  29  30
ATOM     30  O   UNL     1       0.735  -2.970  -3.162  0.00  0.00    -0.392 OA
ATOM     31  H   UNL     1       0.625  -3.930  -3.217  0.00  0.00    +0.210 HD
ENDBRANCH  29  30
ENDBRANCH   4  29
TORSDOF 9
