REMARK  Name = ZINC55162748
REMARK  7 active torsions:
REMARK  status: ('A' for Active; 'I' for Inactive)
REMARK    1  A    between atoms: C_1  and  C_2
REMARK    2  A    between atoms: C_2  and  C_3
REMARK    3  A    between atoms: C_3  and  C_4
REMARK    4  A    between atoms: C_7  and  N_10
REMARK    5  A    between atoms: C_11  and  C_13
REMARK    6  A    between atoms: C_18  and  C_21
REMARK    7  A    between atoms: C_21  and  N_22
REMARK                            x       y       z     vdW  Elec       q    Type
REMARK                         _______ _______ _______ _____ _____    ______ ____
ROOT
ATOM      1  N   UNL     1      -2.982  -4.159   2.321  0.00  0.00    -0.312 N 
ATOM      2  C   UNL     1      -4.064  -4.853   2.725  0.00  0.00    +0.216 C 
ATOM      3  O   UNL     1      -4.386  -5.868   2.144  0.00  0.00    -0.276 OA
ATOM      4  H   UNL     1      -2.724  -3.348   2.786  0.00  0.00    +0.149 HD
ENDROOT
BRANCH   1   8
ATOM      5  C   UNL     1      -1.413  -2.063   0.004  0.00  0.00    -0.011 C 
ATOM      6  C   UNL     1      -0.784  -2.572   1.303  0.00  0.00    +0.005 C 
ATOM      7  C   UNL     1      -0.763  -4.102   1.295  0.00  0.00    +0.022 C 
ATOM      8  C   UNL     1      -2.194  -4.631   1.180  0.00  0.00    +0.073 C 
ATOM      9  C   UNL     1      -2.823  -4.122  -0.119  0.00  0.00    +0.022 C 
ATOM     10  C   UNL     1      -2.844  -2.592  -0.110  0.00  0.00    +0.005 C 
BRANCH   5  11
ATOM     11  C   UNL     1      -1.433  -0.534   0.013  0.00  0.00    +0.003 C 
BRANCH  11  13
ATOM     12  C   UNL     1      -0.019   1.526   0.010  0.00  0.00    +0.004 C 
ATOM     13  C   UNL     1       0.002  -0.004   0.002  0.00  0.00    -0.003 C 
ENDBRANCH  11  13
ENDBRANCH   5  11
ENDBRANCH   1   8
BRANCH   2  14
ATOM     14  C   UNL     1      -4.875  -4.368   3.900  0.00  0.00    +0.075 C 
ATOM     15  C   UNL     1      -5.422  -2.971   3.600  0.00  0.00    +0.013 C 
ATOM     16  C   UNL     1      -6.245  -2.479   4.792  0.00  0.00    +0.001 C 
ATOM     17  C   UNL     1      -7.409  -3.440   5.040  0.00  0.00    +0.002 C 
ATOM     18  C   UNL     1      -6.862  -4.837   5.340  0.00  0.00    -0.028 C 
ATOM     19  C   UNL     1      -6.039  -5.330   4.148  0.00  0.00    +0.014 C 
BRANCH  18  20
ATOM     20  C   UNL     1      -8.026  -5.798   5.588  0.00  0.00    -0.083 C 
BRANCH  20  21
ATOM     21  N   UNL     1      -8.745  -5.394   6.803  0.00  0.00    +0.378 N 
ATOM     22  H   UNL     1      -8.115  -5.418   7.591  0.00  0.00    -0.090 HD
ATOM     23  H   UNL     1      -9.102  -4.457   6.687  0.00  0.00    -0.090 HD
ATOM     24  H   UNL     1      -9.513  -6.027   6.967  0.00  0.00    -0.090 HD
ENDBRANCH  20  21
ENDBRANCH  18  20
ENDBRANCH   2  14
TORSDOF 6
