REMARK  Name = ZINC47763874
REMARK  10 active torsions:
REMARK  status: ('A' for Active; 'I' for Inactive)
REMARK    1  A    between atoms: C_1  and  C_2
REMARK    2  A    between atoms: C_2  and  O_3
REMARK    3  A    between atoms: O_3  and  C_4
REMARK    4  A    between atoms: C_6  and  C_24
REMARK    5  A    between atoms: C_9  and  N_10
REMARK    6  A    between atoms: N_13  and  C_14
REMARK    7  A    between atoms: C_16  and  C_22
REMARK    8  A    between atoms: C_16  and  C_23
REMARK    9  A    between atoms: C_18  and  C_20
REMARK   10  A    between atoms: C_18  and  C_21
REMARK                            x       y       z     vdW  Elec       q    Type
REMARK                         _______ _______ _______ _____ _____    ______ ____
ROOT
ATOM      1  N   UNL     1      -3.898  -1.621  -0.049  0.00  0.00    -0.266 N 
ATOM      2  C   UNL     1      -5.129  -2.159  -0.159  0.00  0.00    +0.304 C 
ATOM      3  O   UNL     1      -5.264  -3.366  -0.195  0.00  0.00    -0.252 OA
ATOM      4  N   UNL     1      -6.210  -1.357  -0.230  0.00  0.00    -0.296 N 
ATOM      5  H   UNL     1      -3.796  -0.663   0.066  0.00  0.00    +0.156 HD
ATOM      6  H   UNL     1      -6.103  -0.394  -0.202  0.00  0.00    +0.151 HD
ENDROOT
BRANCH   4   7
ATOM      7  C   UNL     1      -7.552  -1.943  -0.350  0.00  0.00    +0.072 C 
ATOM      8  C   UNL     1      -7.862  -2.189  -1.828  0.00  0.00    +0.009 C 
ATOM      9  C   UNL     1      -9.261  -2.788  -1.971  0.00  0.00    -0.072 C 
ATOM     10  N   UNL     1     -10.274  -1.974  -1.316  0.00  0.00    +0.386 N 
ATOM     11  C   UNL     1      -9.997  -1.505   0.032  0.00  0.00    -0.072 C 
ATOM     12  C   UNL     1      -8.583  -0.958   0.198  0.00  0.00    +0.009 C 
ATOM     13  C   UNL     1     -10.262  -2.592   1.076  0.00  0.00    -0.010 C 
ATOM     14  C   UNL     1     -10.976  -0.344   0.330  0.00  0.00    -0.010 C 
ATOM     15  C   UNL     1      -9.271  -4.232  -1.473  0.00  0.00    -0.010 C 
ATOM     16  C   UNL     1      -9.593  -2.821  -3.481  0.00  0.00    -0.010 C 
ATOM     17  H   UNL     1     -10.465  -1.161  -1.907  0.00  0.00    -0.084 HD
ATOM     18  H   UNL     1     -11.149  -2.504  -1.299  0.00  0.00    -0.084 HD
ENDBRANCH   4   7
BRANCH   1  24
ATOM     19  C   UNL     1      -1.576  -2.035   0.495  0.00  0.00    +0.142 A 
ATOM     20  C   UNL     1      -0.461  -2.857   0.447  0.00  0.00    +0.051 A 
ATOM     21  C   UNL     1      -0.531  -4.079  -0.196  0.00  0.00    -0.047 A 
ATOM     22  C   UNL     1      -1.710  -4.485  -0.793  0.00  0.00    +0.005 A 
ATOM     23  C   UNL     1      -2.826  -3.671  -0.749  0.00  0.00    +0.027 A 
ATOM     24  C   UNL     1      -2.766  -2.446  -0.100  0.00  0.00    +0.077 A 
ATOM     25  C   UNL     1       0.683  -4.971  -0.248  0.00  0.00    +0.044 C 
BRANCH  19  26
ATOM     26  O   UNL     1      -1.509  -0.833   1.127  0.00  0.00    -0.490 OA
BRANCH  26  28
ATOM     27  C   UNL     1      -0.373   0.897   2.375  0.00  0.00    +0.048 C 
ATOM     28  C   UNL     1      -0.256  -0.478   1.715  0.00  0.00    +0.226 C 
ENDBRANCH  26  28
ENDBRANCH  19  26
ENDBRANCH   1  24
TORSDOF 4
