REMARK  Name = ZINC07640230
REMARK  7 active torsions:
REMARK  status: ('A' for Active; 'I' for Inactive)
REMARK    1  A    between atoms: C_1  and  N_51
REMARK    2  A    between atoms: C_2  and  C_3
REMARK    3  A    between atoms: C_2  and  N_51
REMARK    4  A    between atoms: C_12  and  C_13
REMARK    5  A    between atoms: C_12  and  N_51
REMARK    6  A    between atoms: N_15  and  C_16
REMARK    7  A    between atoms: C_17  and  C_25
REMARK                            x       y       z     vdW  Elec       q    Type
REMARK                         _______ _______ _______ _____ _____    ______ ____
ROOT
ATOM      1  C   UNL     1       8.220  -2.071   0.754  0.00  0.00    +0.201 C 
ATOM      2  O   UNL     1       7.790  -2.233  -0.368  0.00  0.00    -0.278 OA
ATOM      3  N   UNL     1       9.468  -2.474   1.063  0.00  0.00    -0.281 N 
ATOM      4  H   UNL     1       9.812  -2.345   1.960  0.00  0.00    +0.155 HD
ENDROOT
BRANCH   3   5
ATOM      5  C   UNL     1      10.261  -3.075   0.096  0.00  0.00    +0.084 A 
ATOM      6  C   UNL     1      11.560  -3.547   0.218  0.00  0.00    +0.068 A 
ATOM      7  C   UNL     1      12.171  -4.143  -0.958  0.00  0.00    -0.023 A 
ATOM      8  C   UNL     1      11.394  -4.162  -2.062  0.00  0.00    -0.004 A 
ATOM      9  S   UNL     1       9.873  -3.410  -1.559  0.00  0.00    -0.077 S 
ATOM     10  C   UNL     1      11.756  -4.702  -3.412  0.00  0.00    +0.043 C 
ATOM     11  C   UNL     1      13.278  -4.898  -3.462  0.00  0.00    +0.005 C 
ATOM     12  C   UNL     1      13.724  -5.633  -2.195  0.00  0.00    +0.005 C 
ATOM     13  C   UNL     1      13.585  -4.710  -0.983  0.00  0.00    +0.037 C 
BRANCH   6  14
ATOM     14  C   UNL     1      12.287  -3.452   1.488  0.00  0.00    +0.244 C 
ATOM     15  O   UNL     1      12.219  -4.358   2.297  0.00  0.00    -0.270 OA
ATOM     16  N   UNL     1      13.031  -2.361   1.758  0.00  0.00    -0.325 N 
ATOM     17  H   UNL     1      13.086  -1.639   1.113  0.00  0.00    +0.145 HD
ATOM     18  H   UNL     1      13.513  -2.299   2.598  0.00  0.00    +0.145 HD
ENDBRANCH   6  14
ENDBRANCH   3   5
BRANCH   1  19
ATOM     19  C   UNL     1       7.358  -1.418   1.805  0.00  0.00    +0.019 C 
BRANCH  19  21
ATOM     20  C   UNL     1       6.194  -0.036   0.193  0.00  0.00    -0.095 C 
ATOM     21  N   UNL     1       6.043  -1.097   1.211  0.00  0.00    +0.386 N 
ATOM     22  H   UNL     1       5.666  -1.940   0.761  0.00  0.00    -0.081 HD
BRANCH  21  23
ATOM     23  C   UNL     1       5.107  -0.655   2.265  0.00  0.00    -0.043 C 
BRANCH  23  24
ATOM     24  C   UNL     1       3.725  -0.548   1.674  0.00  0.00    -0.060 A 
ATOM     25  C   UNL     1       2.885  -1.646   1.677  0.00  0.00    +0.005 A 
ATOM     26  C   UNL     1       1.617  -1.553   1.135  0.00  0.00    +0.050 A 
ATOM     27  C   UNL     1       1.183  -0.356   0.589  0.00  0.00    +0.166 A 
ATOM     28  C   UNL     1       2.028   0.751   0.586  0.00  0.00    +0.166 A 
ATOM     29  C   UNL     1       3.298   0.650   1.131  0.00  0.00    +0.051 A 
ATOM     30  O   UNL     1       1.376   1.797  -0.001  0.00  0.00    -0.453 OA
ATOM     31  C   UNL     1      -0.018   1.436   0.010  0.00  0.00    +0.466 C 
ATOM     32  O   UNL     1       0.002  -0.004   0.002  0.00  0.00    -0.453 OA
ENDBRANCH  23  24
ENDBRANCH  21  23
ENDBRANCH  19  21
ENDBRANCH   1  19
TORSDOF 6
