REMARK  Name = ZINC64886073
REMARK  8 active torsions:
REMARK  status: ('A' for Active; 'I' for Inactive)
REMARK    1  A    between atoms: C_1  and  C_2
REMARK    2  A    between atoms: C_5  and  C_8
REMARK    3  A    between atoms: C_10  and  C_13
REMARK    4  A    between atoms: N_15  and  N_16
REMARK    5  A    between atoms: N_19  and  C_20
REMARK    6  A    between atoms: C_20  and  C_21
REMARK    7  A    between atoms: C_21  and  C_22
REMARK    8  A    between atoms: C_22  and  N_23
REMARK                            x       y       z     vdW  Elec       q    Type
REMARK                         _______ _______ _______ _____ _____    ______ ____
ROOT
ATOM      1  C   UNL     1       0.104  -7.583   1.546  0.00  0.00    +0.298 C 
ATOM      2  O   UNL     1       0.102  -7.466   2.756  0.00  0.00    -0.265 OA
ATOM      3  N   UNL     1       0.120  -8.810   0.988  0.00  0.00    -0.227 N 
ATOM      4  H   UNL     1       0.121  -8.903   0.022  0.00  0.00    +0.173 HD
ENDROOT
BRANCH   3   5
ATOM      5  N   UNL     1       0.135  -9.950   1.802  0.00  0.00    -0.218 N 
ATOM      6  C   UNL     1       0.152 -11.177   1.243  0.00  0.00    +0.316 C 
ATOM      7  O   UNL     1       0.165 -12.166   1.949  0.00  0.00    -0.251 OA
ATOM      8  N   UNL     1       0.153 -11.306  -0.099  0.00  0.00    -0.298 N 
ATOM      9  H   UNL     1       0.134  -9.857   2.767  0.00  0.00    +0.174 HD
ATOM     10  H   UNL     1       0.142 -10.517  -0.662  0.00  0.00    +0.150 HD
BRANCH   8  11
ATOM     11  C   UNL     1       0.171 -12.639  -0.706  0.00  0.00    +0.107 C 
BRANCH  11  12
ATOM     12  C   UNL     1       0.168 -12.506  -2.230  0.00  0.00    +0.040 C 
BRANCH  12  13
ATOM     13  C   UNL     1       0.187 -13.898  -2.864  0.00  0.00    +0.124 C 
BRANCH  13  14
ATOM     14  N   UNL     1       0.184 -13.770  -4.323  0.00  0.00    -0.338 N 
ATOM     15  C   UNL     1      -0.918 -13.708  -5.131  0.00  0.00    +0.104 A 
ATOM     16  C   UNL     1      -0.469 -13.593  -6.396  0.00  0.00    +0.101 A 
ATOM     17  N   UNL     1       0.872 -13.585  -6.360  0.00  0.00    -0.352 N 
ATOM     18  C   UNL     1       1.270 -13.686  -5.122  0.00  0.00    +0.173 A 
ATOM     19  H   UNL     1       1.453 -13.512  -7.133  0.00  0.00    +0.166 HD
ENDBRANCH  13  14
ENDBRANCH  12  13
ENDBRANCH  11  12
ENDBRANCH   8  11
ENDBRANCH   3   5
BRANCH   1  22
ATOM     20  C   UNL     1       0.059  -4.256  -0.021  0.00  0.00    +0.114 A 
ATOM     21  C   UNL     1       0.070  -5.094   1.118  0.00  0.00    +0.086 A 
ATOM     22  C   UNL     1       0.087  -6.383   0.689  0.00  0.00    +0.223 A 
ATOM     23  O   UNL     1       0.087  -6.370  -0.659  0.00  0.00    -0.349 OA
ATOM     24  N   UNL     1       0.064  -5.021  -1.086  0.00  0.00    -0.077 NA
BRANCH  20  29
ATOM     25  C   UNL     1      -0.018   1.503   0.010  0.00  0.00    +0.044 C 
ATOM     26  C   UNL     1       0.002  -0.004   0.002  0.00  0.00    -0.050 A 
ATOM     27  C   UNL     1       0.006  -0.687  -1.201  0.00  0.00    +0.004 A 
ATOM     28  C   UNL     1       0.024  -2.067  -1.214  0.00  0.00    +0.010 A 
ATOM     29  C   UNL     1       0.040  -2.772  -0.013  0.00  0.00    +0.004 A 
ATOM     30  C   UNL     1       0.036  -2.080   1.196  0.00  0.00    +0.010 A 
ATOM     31  C   UNL     1       0.023  -0.700   1.198  0.00  0.00    +0.004 A 
ENDBRANCH  20  29
ENDBRANCH   1  22
TORSDOF 7
