REMARK  Name = ZINC22053017
REMARK  11 active torsions:
REMARK  status: ('A' for Active; 'I' for Inactive)
REMARK    1  A    between atoms: C_1  and  C_2
REMARK    2  A    between atoms: C_2  and  C_4
REMARK    3  A    between atoms: C_2  and  N_22
REMARK    4  A    between atoms: C_12  and  N_14
REMARK    5  A    between atoms: N_14  and  C_15
REMARK    6  A    between atoms: C_15  and  C_16
REMARK    7  A    between atoms: N_25  and  S_28
REMARK    8  A    between atoms: S_28  and  C_31
REMARK    9  A    between atoms: C_34  and  C_37
REMARK   10  A    between atoms: C_37  and  C_38
REMARK   11  A    between atoms: C_37  and  C_39
REMARK                            x       y       z     vdW  Elec       q    Type
REMARK                         _______ _______ _______ _____ _____    ______ ____
ROOT
ATOM      1  C   UNL     1       0.811  -0.604   1.154  0.00  0.00    +0.032 C 
ATOM      2  C   UNL     1       0.002  -0.004   0.002  0.00  0.00    +0.120 C 
ENDROOT
BRANCH   2   3
ATOM      3  C   UNL     1      -1.405  -0.543   0.042  0.00  0.00    +0.127 A 
ATOM      4  N   UNL     1      -2.288   0.067   0.796  0.00  0.00    -0.342 N 
ATOM      5  C   UNL     1      -3.551  -0.380   0.861  0.00  0.00    +0.051 A 
ATOM      6  C   UNL     1      -4.520   0.247   1.656  0.00  0.00    +0.026 A 
ATOM      7  C   UNL     1      -5.790  -0.248   1.685  0.00  0.00    +0.002 A 
ATOM      8  C   UNL     1      -6.140  -1.369   0.937  0.00  0.00    +0.001 A 
ATOM      9  C   UNL     1      -5.221  -2.003   0.153  0.00  0.00    +0.013 A 
ATOM     10  C   UNL     1      -3.909  -1.519   0.101  0.00  0.00    +0.038 A 
ATOM     11  C   UNL     1      -2.912  -2.134  -0.694  0.00  0.00    +0.130 A 
ATOM     12  N   UNL     1      -1.694  -1.608  -0.689  0.00  0.00    -0.217 NA
ATOM     13  H   UNL     1      -2.026   0.846   1.311  0.00  0.00    +0.167 HD
BRANCH  11  14
ATOM     14  N   UNL     1      -3.199  -3.246  -1.456  0.00  0.00    -0.324 N 
ATOM     15  H   UNL     1      -4.095  -3.619  -1.452  0.00  0.00    +0.148 HD
BRANCH  14  16
ATOM     16  C   UNL     1      -2.151  -3.866  -2.271  0.00  0.00    +0.138 C 
BRANCH  16  17
ATOM     17  C   UNL     1      -2.721  -5.056  -3.001  0.00  0.00    -0.030 A 
ATOM     18  C   UNL     1      -2.689  -6.307  -2.414  0.00  0.00    +0.005 A 
ATOM     19  C   UNL     1      -3.211  -7.398  -3.083  0.00  0.00    +0.000 A 
ATOM     20  C   UNL     1      -3.765  -7.237  -4.340  0.00  0.00    +0.000 A 
ATOM     21  C   UNL     1      -3.797  -5.986  -4.926  0.00  0.00    +0.000 A 
ATOM     22  C   UNL     1      -3.279  -4.894  -4.255  0.00  0.00    +0.005 A 
ENDBRANCH  16  17
ENDBRANCH  14  16
ENDBRANCH  11  14
ENDBRANCH   2   3
BRANCH   2  23
ATOM     23  N   UNL     1       0.628  -0.365  -1.277  0.00  0.00    -0.290 NA
ATOM     24  C   UNL     1       2.043   0.030  -1.300  0.00  0.00    +0.102 C 
ATOM     25  C   UNL     1       2.703  -0.521  -2.568  0.00  0.00    +0.125 C 
ATOM     26  N   UNL     1       1.917  -0.086  -3.732  0.00  0.00    -0.174 NA
ATOM     27  C   UNL     1       0.465  -0.325  -3.720  0.00  0.00    +0.125 C 
ATOM     28  C   UNL     1      -0.107   0.219  -2.406  0.00  0.00    +0.102 C 
BRANCH  26  29
ATOM     29  S   UNL     1       2.645   0.654  -5.022  0.00  0.00    +0.061 S 
ATOM     30  O   UNL     1       1.641   1.424  -5.669  0.00  0.00    -0.153 OA
ATOM     31  O   UNL     1       3.849   1.230  -4.533  0.00  0.00    -0.153 OA
BRANCH  29  32
ATOM     32  C   UNL     1       3.115  -0.613  -6.152  0.00  0.00    +0.105 A 
ATOM     33  C   UNL     1       4.359  -1.208  -6.046  0.00  0.00    +0.029 A 
ATOM     34  C   UNL     1       4.728  -2.202  -6.933  0.00  0.00    +0.006 A 
ATOM     35  C   UNL     1       3.853  -2.602  -7.925  0.00  0.00    -0.045 A 
ATOM     36  C   UNL     1       2.609  -2.008  -8.031  0.00  0.00    +0.006 A 
ATOM     37  C   UNL     1       2.239  -1.017  -7.141  0.00  0.00    +0.029 A 
BRANCH  35  38
ATOM     38  C   UNL     1       4.255  -3.685  -8.892  0.00  0.00    +0.013 C 
ATOM     39  C   UNL     1       3.276  -4.856  -8.783  0.00  0.00    +0.012 C 
ATOM     40  C   UNL     1       4.230  -3.131 -10.318  0.00  0.00    +0.012 C 
ENDBRANCH  35  38
ENDBRANCH  29  32
ENDBRANCH  26  29
ENDBRANCH   2  23
TORSDOF 8
