REMARK  Name = ZINC05198506
REMARK  6 active torsions:
REMARK  status: ('A' for Active; 'I' for Inactive)
REMARK    1  A    between atoms: C_5  and  O_7
REMARK    2  A    between atoms: O_7  and  C_8
REMARK    3  A    between atoms: C_8  and  C_9
REMARK    4  A    between atoms: C_9  and  S_10
REMARK    5  A    between atoms: S_10  and  C_11
REMARK    6  A    between atoms: C_15  and  N_17
REMARK                            x       y       z     vdW  Elec       q    Type
REMARK                         _______ _______ _______ _____ _____    ______ ____
ROOT
ATOM      1  C   UNL     1       1.113   2.021   0.002  0.00  0.00    +0.192 A 
ATOM      2  N   UNL     1      -0.016   1.327   0.009  0.00  0.00    -0.207 NA
ATOM      3  C   UNL     1       0.002  -0.004   0.002  0.00  0.00    +0.122 A 
ATOM      4  C   UNL     1       1.227  -0.665  -0.013  0.00  0.00    +0.086 A 
ATOM      5  C   UNL     1       2.391   0.098  -0.020  0.00  0.00    +0.122 A 
ATOM      6  N   UNL     1       2.296   1.425  -0.012  0.00  0.00    -0.207 NA
ATOM      7  N   UNL     1      -1.183  -0.723   0.010  0.00  0.00    -0.343 N 
ATOM      8  H   UNL     1      -2.034  -0.255   0.021  0.00  0.00    +0.144 HD
ATOM      9  H   UNL     1      -1.163  -1.692   0.004  0.00  0.00    +0.144 HD
ENDROOT
BRANCH   5  10
ATOM     10  N   UNL     1       3.634  -0.518  -0.035  0.00  0.00    -0.343 N 
ATOM     11  H   UNL     1       3.695  -1.486  -0.040  0.00  0.00    +0.144 HD
ATOM     12  H   UNL     1       4.441   0.020  -0.040  0.00  0.00    +0.144 HD
ENDBRANCH   5  10
BRANCH   1  13
ATOM     13  S   UNL     1       1.038   3.781   0.012  0.00  0.00    -0.083 S 
BRANCH  13  14
ATOM     14  C   UNL     1       2.805   4.171  -0.003  0.00  0.00    +0.118 C 
BRANCH  14  15
ATOM     15  C   UNL     1       2.993   5.689   0.003  0.00  0.00    +0.240 C 
BRANCH  15  16
ATOM     16  O   UNL     1       4.388   5.997  -0.008  0.00  0.00    -0.490 OA
BRANCH  16  21
ATOM     17  C   UNL     1       4.093   9.623   0.013  0.00  0.00    +0.004 A 
ATOM     18  C   UNL     1       5.426   9.991   0.002  0.00  0.00    +0.002 A 
ATOM     19  C   UNL     1       6.412   9.022  -0.012  0.00  0.00    +0.023 A 
ATOM     20  C   UNL     1       6.068   7.683  -0.015  0.00  0.00    +0.083 A 
ATOM     21  C   UNL     1       4.730   7.313  -0.005  0.00  0.00    +0.139 A 
ATOM     22  C   UNL     1       3.743   8.287   0.004  0.00  0.00    +0.047 A 
ATOM     23 CL   UNL     1       7.307   6.467  -0.034  0.00  0.00    -0.080 Cl
ENDBRANCH  16  21
ENDBRANCH  15  16
ENDBRANCH  14  15
ENDBRANCH  13  14
ENDBRANCH   1  13
TORSDOF 6
