REMARK  Name = ZINC22066066
REMARK  12 active torsions:
REMARK  status: ('A' for Active; 'I' for Inactive)
REMARK    1  A    between atoms: C_1  and  C_2
REMARK    2  A    between atoms: C_2  and  C_3
REMARK    3  A    between atoms: C_2  and  C_4
REMARK    4  A    between atoms: C_8  and  C_28
REMARK    5  A    between atoms: C_9  and  O_10
REMARK    6  A    between atoms: O_10  and  C_11
REMARK    7  A    between atoms: C_13  and  O_27
REMARK    8  A    between atoms: C_15  and  O_26
REMARK    9  A    between atoms: C_17  and  O_25
REMARK   10  A    between atoms: C_19  and  C_22
REMARK   11  A    between atoms: C_28  and  C_29
REMARK   12  A    between atoms: C_28  and  C_30
REMARK                            x       y       z     vdW  Elec       q    Type
REMARK                         _______ _______ _______ _____ _____    ______ ____
ROOT
ATOM      1  C   UNL     1       2.183  -0.571  -1.550  0.00  0.00    +0.340 C 
ATOM      2  C   UNL     1       0.995  -1.533  -1.475  0.00  0.00    +0.214 C 
ATOM      3  C   UNL     1      -0.036  -0.984  -0.484  0.00  0.00    +0.180 C 
ATOM      4  C   UNL     1      -0.454   0.422  -0.926  0.00  0.00    +0.186 C 
ATOM      5  C   UNL     1       0.790   1.309  -1.023  0.00  0.00    +0.266 C 
ATOM      6  O   UNL     1       1.721   0.725  -1.937  0.00  0.00    -0.322 OA
ENDROOT
BRANCH   5   7
ATOM      7  C   UNL     1       0.395   2.678  -1.514  0.00  0.00    +0.387 C 
ATOM      8  O   UNL     1       0.757   3.057  -2.603  0.00  0.00    -0.243 OA
ATOM      9  O   UNL     1      -0.361   3.475  -0.743  0.00  0.00    -0.243 OA
ENDBRANCH   5   7
BRANCH   4  10
ATOM     10  O   UNL     1      -1.090   0.351  -2.204  0.00  0.00    -0.386 OA
ATOM     11  H   UNL     1      -1.460   1.268  -2.686  0.00  0.00    +0.210 HD
ENDBRANCH   4  10
BRANCH   3  12
ATOM     12  O   UNL     1       0.542  -0.922   0.821  0.00  0.00    -0.386 OA
ATOM     13  H   UNL     1      -0.053  -0.551   1.669  0.00  0.00    +0.210 HD
ENDBRANCH   3  12
BRANCH   2  14
ATOM     14  O   UNL     1       1.446  -2.815  -1.033  0.00  0.00    -0.383 OA
ATOM     15  H   UNL     1       0.729  -3.641  -0.918  0.00  0.00    +0.210 HD
ENDBRANCH   2  14
BRANCH   1  16
ATOM     16  O   UNL     1       2.813  -0.490  -0.270  0.00  0.00    -0.460 OA
BRANCH  16  22
ATOM     17  C   UNL     1       5.110  -0.658  -0.865  0.00  0.00    -0.003 A 
ATOM     18  C   UNL     1       6.390  -0.140  -0.831  0.00  0.00    +0.007 A 
ATOM     19  C   UNL     1       6.642   1.042  -0.159  0.00  0.00    +0.001 A 
ATOM     20  C   UNL     1       5.612   1.711   0.476  0.00  0.00    +0.007 A 
ATOM     21  C   UNL     1       4.329   1.200   0.440  0.00  0.00    -0.003 A 
ATOM     22  C   UNL     1       4.074   0.015  -0.233  0.00  0.00    +0.131 A 
BRANCH  17  24
ATOM     23  C   UNL     1       5.134  -1.768  -3.082  0.00  0.00    +0.012 C 
ATOM     24  C   UNL     1       4.838  -1.950  -1.592  0.00  0.00    +0.016 C 
ATOM     25  C   UNL     1       5.734  -3.053  -1.024  0.00  0.00    +0.012 C 
ENDBRANCH  17  24
BRANCH  21  26
ATOM     26  C   UNL     1       3.207   1.931   1.132  0.00  0.00    +0.016 C 
ATOM     27  C   UNL     1       3.592   2.196   2.588  0.00  0.00    +0.012 C 
ATOM     28  C   UNL     1       2.950   3.262   0.422  0.00  0.00    +0.012 C 
ENDBRANCH  21  26
ENDBRANCH  16  22
ENDBRANCH   1  16
TORSDOF 8
