REMARK  Name = ZINC12867993
REMARK  17 active torsions:
REMARK  status: ('A' for Active; 'I' for Inactive)
REMARK    1  A    between atoms: C_1  and  C_2
REMARK    2  A    between atoms: C_11  and  O_22
REMARK    3  A    between atoms: C_12  and  C_21
REMARK    4  A    between atoms: C_14  and  O_20
REMARK    5  A    between atoms: C_16  and  O_19
REMARK    6  A    between atoms: C_23  and  O_40
REMARK    7  A    between atoms: C_26  and  C_28
REMARK    8  A    between atoms: C_28  and  C_29
REMARK    9  A    between atoms: C_28  and  C_30
REMARK   10  A    between atoms: C_28  and  O_39
REMARK   11  A    between atoms: C_30  and  C_32
REMARK   12  A    between atoms: C_30  and  O_38
REMARK   13  A    between atoms: C_32  and  C_33
REMARK   14  A    between atoms: C_33  and  C_34
REMARK   15  A    between atoms: C_34  and  C_35
REMARK   16  A    between atoms: C_34  and  C_36
REMARK   17  A    between atoms: C_34  and  O_37
REMARK                            x       y       z     vdW  Elec       q    Type
REMARK                         _______ _______ _______ _____ _____    ______ ____
ROOT
ATOM      1  C   UNL     1       1.764  -0.588  -3.409  0.00  0.00    +0.015 C 
ATOM      2  C   UNL     1       1.590  -0.941  -1.931  0.00  0.00    +0.006 C 
ATOM      3  C   UNL     1       0.513  -0.069  -1.316  0.00  0.00    +0.011 C 
ATOM      4  C   UNL     1       0.765   1.362  -1.803  0.00  0.00    +0.009 C 
ATOM      5  C   UNL     1       2.189   1.821  -1.708  0.00  0.00    +0.027 C 
ATOM      6  C   UNL     1       3.247   0.788  -1.438  0.00  0.00    -0.031 C 
ATOM      7  C   UNL     1       4.524   1.227  -1.425  0.00  0.00    +0.051 C 
ATOM      8  C   UNL     1       4.671   2.672  -1.705  0.00  0.00    +0.188 C 
ATOM      9  O   UNL     1       5.523   3.078  -2.468  0.00  0.00    -0.290 OA
ATOM     10  C   UNL     1       3.733   3.624  -1.016  0.00  0.00    +0.136 C 
ATOM     11  C   UNL     1       2.387   2.998  -0.745  0.00  0.00    +0.013 C 
ATOM     12  C   UNL     1       2.208   2.496   0.673  0.00  0.00    +0.044 C 
ATOM     13  C   UNL     1       2.761   3.410   1.736  0.00  0.00    +0.144 C 
ATOM     14  C   UNL     1       4.186   3.840   1.469  0.00  0.00    +0.146 C 
ATOM     15  C   UNL     1       4.370   4.410   0.082  0.00  0.00    +0.077 C 
ATOM     16  C   UNL     1       1.297   4.030  -1.040  0.00  0.00    +0.015 C 
ATOM     17  C   UNL     1       2.896  -0.620  -1.154  0.00  0.00    +0.093 C 
ATOM     18  C   UNL     1       3.827  -1.728  -1.648  0.00  0.00    +0.040 C 
ATOM     19  C   UNL     1       2.904  -2.980  -1.657  0.00  0.00    +0.010 C 
ATOM     20  C   UNL     1       1.451  -2.450  -1.772  0.00  0.00    +0.032 C 
ENDROOT
BRANCH  14  21
ATOM     21  O   UNL     1       5.044   2.708   1.620  0.00  0.00    -0.389 OA
ATOM     22  H   UNL     1       4.985   2.283   2.487  0.00  0.00    +0.210 HD
ENDBRANCH  14  21
BRANCH  13  23
ATOM     23  O   UNL     1       2.714   2.732   2.994  0.00  0.00    -0.389 OA
ATOM     24  H   UNL     1       3.001   3.273   3.742  0.00  0.00    +0.210 HD
ENDBRANCH  13  23
BRANCH  10  25
ATOM     25  O   UNL     1       3.447   4.600  -2.019  0.00  0.00    -0.380 OA
ATOM     26  H   UNL     1       4.227   5.071  -2.343  0.00  0.00    +0.211 HD
ENDBRANCH  10  25
BRANCH  20  27
ATOM     27  C   UNL     1       0.663  -2.780  -0.503  0.00  0.00    +0.092 C 
ATOM     28  C   UNL     1       1.550  -2.549   0.722  0.00  0.00    +0.044 C 
BRANCH  27  29
ATOM     29  O   UNL     1      -0.488  -1.937  -0.424  0.00  0.00    -0.386 OA
ATOM     30  H   UNL     1      -1.096  -2.031  -1.170  0.00  0.00    +0.210 HD
ENDBRANCH  27  29
BRANCH  27  31
ATOM     31  C   UNL     1       0.221  -4.244  -0.544  0.00  0.00    +0.146 C 
BRANCH  31  32
ATOM     32  O   UNL     1      -0.607  -4.460  -1.689  0.00  0.00    -0.389 OA
ATOM     33  H   UNL     1      -1.408  -3.920  -1.702  0.00  0.00    +0.210 HD
ENDBRANCH  31  32
BRANCH  31  34
ATOM     34  C   UNL     1      -0.567  -4.575   0.725  0.00  0.00    +0.037 C 
BRANCH  34  35
ATOM     35  C   UNL     1      -0.901  -6.068   0.743  0.00  0.00    +0.037 C 
BRANCH  35  36
ATOM     36  C   UNL     1      -1.690  -6.399   2.012  0.00  0.00    +0.061 C 
ATOM     37  C   UNL     1      -2.985  -5.585   2.034  0.00  0.00    +0.041 C 
ATOM     38  C   UNL     1      -2.024  -7.891   2.030  0.00  0.00    +0.041 C 
BRANCH  36  39
ATOM     39  O   UNL     1      -0.903  -6.073   3.160  0.00  0.00    -0.389 OA
ATOM     40  H   UNL     1      -0.065  -6.552   3.211  0.00  0.00    +0.210 HD
ENDBRANCH  36  39
ENDBRANCH  35  36
ENDBRANCH  34  35
ENDBRANCH  31  34
ENDBRANCH  27  31
ENDBRANCH  20  27
BRANCH  17  41
ATOM     41  O   UNL     1       2.673  -0.778   0.249  0.00  0.00    -0.384 OA
ATOM     42  H   UNL     1       3.449  -0.593   0.794  0.00  0.00    +0.211 HD
ENDBRANCH  17  41
TORSDOF 12
