REMARK  Name = ZINC13692037
REMARK  5 active torsions:
REMARK  status: ('A' for Active; 'I' for Inactive)
REMARK    1  A    between atoms: C_8  and  C_10
REMARK    2  A    between atoms: C_11  and  N_25
REMARK    3  A    between atoms: N_12  and  N_16
REMARK    4  A    between atoms: C_17  and  C_18
REMARK    5  A    between atoms: C_21  and  O_24
REMARK                            x       y       z     vdW  Elec       q    Type
REMARK                         _______ _______ _______ _____ _____    ______ ____
ROOT
ATOM      1  C   UNL     1       1.524   7.274   0.029  0.00  0.00    +0.088 C 
ATOM      2  C   UNL     1       0.578   8.296   0.042  0.00  0.00    +0.117 C 
ATOM      3  N   UNL     1       1.168   9.521   0.050  0.00  0.00    -0.203 N 
ATOM      4  C   UNL     1       2.624   9.326   0.031  0.00  0.00    +0.213 C 
ATOM      5  C   UNL     1       2.818   7.825   0.018  0.00  0.00    +0.188 C 
ATOM      6  O   UNL     1       3.873   7.221   0.000  0.00  0.00    -0.290 OA
ENDROOT
BRANCH   1  14
ATOM      7  C   UNL     1      -1.246   1.769   0.015  0.00  0.00    +0.002 A 
ATOM      8  C   UNL     1      -0.041   1.080   0.002  0.00  0.00    +0.001 A 
ATOM      9  C   UNL     1       1.145   1.790  -0.007  0.00  0.00    +0.017 A 
ATOM     10  C   UNL     1       1.114   3.162   0.003  0.00  0.00    +0.040 A 
ATOM     11  C   UNL     1      -0.093   3.898   0.022  0.00  0.00    +0.079 A 
ATOM     12  C   UNL     1      -1.287   3.139   0.031  0.00  0.00    +0.029 A 
ATOM     13  N   UNL     1       0.039   5.240   0.031  0.00  0.00    -0.239 NA
ATOM     14  C   UNL     1       1.216   5.834   0.022  0.00  0.00    +0.116 A 
ATOM     15  S   UNL     1       2.342   4.446  -0.002  0.00  0.00    -0.067 S 
ENDBRANCH   1  14
BRANCH   2  16
ATOM     16  N   UNL     1      -0.772   8.093   0.050  0.00  0.00    -0.345 N 
ATOM     17  H   UNL     1      -1.127   7.193   0.123  0.00  0.00    +0.144 HD
ATOM     18  H   UNL     1      -1.376   8.849  -0.018  0.00  0.00    +0.144 HD
ENDBRANCH   2  16
BRANCH   3  19
ATOM     19  N   UNL     1       0.503  10.754   0.067  0.00  0.00    -0.186 NA
ATOM     20  C   UNL     1       1.181  11.856   0.169  0.00  0.00    +0.138 C 
BRANCH  20  21
ATOM     21  C   UNL     1       0.478  13.145   0.299  0.00  0.00    -0.005 A 
ATOM     22  C   UNL     1      -0.919  13.184   0.308  0.00  0.00    +0.013 A 
ATOM     23  C   UNL     1      -1.571  14.391   0.436  0.00  0.00    +0.046 A 
ATOM     24  C   UNL     1      -0.843  15.569   0.545  0.00  0.00    +0.117 A 
ATOM     25  C   UNL     1       0.545  15.536   0.530  0.00  0.00    +0.046 A 
ATOM     26  C   UNL     1       1.207  14.333   0.408  0.00  0.00    +0.013 A 
BRANCH  24  27
ATOM     27  O   UNL     1      -1.491  16.757   0.665  0.00  0.00    -0.507 OA
ATOM     28  H   UNL     1      -1.686  17.186  -0.179  0.00  0.00    +0.292 HD
ENDBRANCH  24  27
ENDBRANCH  20  21
ENDBRANCH   3  19
TORSDOF 5
