REMARK  Name = ZINC52587706
REMARK  9 active torsions:
REMARK  status: ('A' for Active; 'I' for Inactive)
REMARK    1  A    between atoms: C_1  and  C_2
REMARK    2  A    between atoms: C_7  and  C_9
REMARK    3  A    between atoms: C_7  and  N_23
REMARK    4  A    between atoms: C_9  and  N_10
REMARK    5  A    between atoms: N_13  and  N_14
REMARK    6  A    between atoms: N_14  and  C_15
REMARK    7  A    between atoms: C_15  and  C_22
REMARK    8  A    between atoms: N_23  and  C_24
REMARK    9  A    between atoms: N_23  and  C_25
REMARK                            x       y       z     vdW  Elec       q    Type
REMARK                         _______ _______ _______ _____ _____    ______ ____
ROOT
ATOM      1  N   UNL     1       3.005  -2.111   2.094  0.00  0.00    -0.300 N 
ATOM      2  C   UNL     1       3.967  -2.473   2.966  0.00  0.00    +0.313 C 
ATOM      3  O   UNL     1       3.680  -3.124   3.952  0.00  0.00    -0.252 OA
ATOM      4  N   UNL     1       5.247  -2.115   2.744  0.00  0.00    -0.234 N 
ATOM      5  H   UNL     1       3.234  -1.593   1.307  0.00  0.00    +0.150 HD
ATOM      6  H   UNL     1       5.940  -2.375   3.371  0.00  0.00    +0.171 HD
ENDROOT
BRANCH   4   7
ATOM      7  N   UNL     1       5.569  -1.384   1.635  0.00  0.00    -0.232 NA
ATOM      8  H   UNL     1       5.034  -0.530   1.597  0.00  0.00    +0.145 HD
BRANCH   7   9
ATOM      9  C   UNL     1       7.011  -1.105   1.590  0.00  0.00    +0.054 C 
ATOM     10  C   UNL     1       7.414  -0.401   2.885  0.00  0.00    +0.047 C 
ATOM     11  C   UNL     1       8.646   0.515   2.640  0.00  0.00    +0.168 C 
ATOM     12  S   UNL     1       8.199   1.193   0.981  0.00  0.00    -0.029 S 
ATOM     13  O   UNL     1       9.385   1.402   0.227  0.00  0.00    -0.174 OA
ATOM     14  O   UNL     1       7.275   2.260   1.146  0.00  0.00    -0.174 OA
ATOM     15  C   UNL     1       7.314  -0.281   0.323  0.00  0.00    +0.189 C 
ATOM     16  C   UNL     1       7.764  -2.434   1.503  0.00  0.00    +0.031 C 
ENDBRANCH   7   9
ENDBRANCH   4   7
BRANCH   1  17
ATOM     17  C   UNL     1       1.614  -2.501   2.336  0.00  0.00    +0.094 C 
BRANCH  17  23
ATOM     18  C   UNL     1       0.003   1.414  -0.320  0.00  0.00    +0.007 C 
ATOM     19  C   UNL     1      -0.056  -0.108  -0.177  0.00  0.00    -0.015 C 
ATOM     20  C   UNL     1       0.468  -0.761  -1.458  0.00  0.00    +0.003 C 
ATOM     21  C   UNL     1       0.409  -2.284  -1.315  0.00  0.00    -0.001 C 
ATOM     22  C   UNL     1       1.273  -2.719  -0.130  0.00  0.00    -0.010 C 
ATOM     23  C   UNL     1       0.749  -2.066   1.151  0.00  0.00    -0.050 C 
ATOM     24  C   UNL     1       0.808  -0.544   1.008  0.00  0.00    -0.007 C 
BRANCH  23  25
ATOM     25  N   UNL     1      -0.641  -2.483   1.379  0.00  0.00    +0.381 N 
ATOM     26  C   UNL     1      -0.701  -3.946   1.491  0.00  0.00    -0.096 C 
ATOM     27  C   UNL     1      -1.136  -1.876   2.622  0.00  0.00    -0.096 C 
ATOM     28  H   UNL     1      -1.214  -2.181   0.606  0.00  0.00    -0.082 HD
ENDBRANCH  23  25
ENDBRANCH  17  23
ENDBRANCH   1  17
TORSDOF 5
