REMARK  Name = ZINC58949037
REMARK  6 active torsions:
REMARK  status: ('A' for Active; 'I' for Inactive)
REMARK    1  A    between atoms: C_1  and  C_2
REMARK    2  A    between atoms: C_3  and  C_19
REMARK    3  A    between atoms: C_4  and  C_13
REMARK    4  A    between atoms: C_6  and  C_10
REMARK    5  A    between atoms: C_7  and  N_9
REMARK    6  A    between atoms: C_19  and  C_21
REMARK                            x       y       z     vdW  Elec       q    Type
REMARK                         _______ _______ _______ _____ _____    ______ ____
ROOT
ATOM      1  C   UNL     1      -0.145   1.498  -0.047  0.00  0.00    +0.086 C 
ATOM      2  C   UNL     1      -0.058  -0.007  -0.025  0.00  0.00    +0.112 C 
ATOM      3  C   UNL     1      -1.192  -0.724   0.058  0.00  0.00    +0.045 C 
ATOM      4  C   UNL     1      -1.160  -2.228   0.084  0.00  0.00    +0.102 C 
ATOM      5  C   UNL     1       0.181  -2.721  -0.386  0.00  0.00    +0.083 C 
ATOM      6  C   UNL     1       1.247  -1.884  -0.446  0.00  0.00    +0.193 C 
ATOM      7  O   UNL     1       1.147  -0.591  -0.095  0.00  0.00    -0.446 OA
ENDROOT
BRANCH   4   8
ATOM      8  C   UNL     1      -1.403  -2.709   1.492  0.00  0.00    +0.003 A 
ATOM      9  C   UNL     1      -2.393  -3.506   1.962  0.00  0.00    +0.013 A 
ATOM     10  C   UNL     1      -2.419  -3.821   3.308  0.00  0.00    +0.023 A 
ATOM     11  C   UNL     1      -1.452  -3.322   4.117  0.00  0.00    +0.055 A 
ATOM     12  S   UNL     1      -0.458  -2.383   2.970  0.00  0.00    -0.085 S 
ATOM     13 BR   UNL     1      -1.214  -3.566   5.978  0.00  0.00    -0.043 Br
ENDBRANCH   4   8
BRANCH   5  14
ATOM     14  C   UNL     1       0.332  -4.066  -0.767  0.00  0.00    +0.243 C 
ATOM     15  O   UNL     1      -0.059  -4.436  -1.861  0.00  0.00    -0.271 OA
ATOM     16  N   UNL     1       0.908  -4.946   0.076  0.00  0.00    -0.325 N 
ATOM     17  H   UNL     1       1.218  -4.651   0.946  0.00  0.00    +0.145 HD
ATOM     18  H   UNL     1       1.012  -5.873  -0.187  0.00  0.00    +0.145 HD
ENDBRANCH   5  14
BRANCH   6  19
ATOM     19  N   UNL     1       2.454  -2.368  -0.878  0.00  0.00    -0.329 N 
ATOM     20  H   UNL     1       2.519  -3.272  -1.222  0.00  0.00    +0.145 HD
ATOM     21  H   UNL     1       3.244  -1.806  -0.840  0.00  0.00    +0.145 HD
ENDBRANCH   6  19
BRANCH   3  22
ATOM     22  C   UNL     1      -2.429  -0.057   0.122  0.00  0.00    +0.160 C 
ATOM     23  O   UNL     1      -2.467   1.157   0.102  0.00  0.00    -0.293 OA
ATOM     24  C   UNL     1      -3.708  -0.849   0.216  0.00  0.00    +0.091 C 
ENDBRANCH   3  22
TORSDOF 4
