REMARK  Name = ZINC40392476
REMARK  14 active torsions:
REMARK  status: ('A' for Active; 'I' for Inactive)
REMARK    1  A    between atoms: C_1  and  C_2
REMARK    2  A    between atoms: C_2  and  N_3
REMARK    3  A    between atoms: C_4  and  C_23
REMARK    4  A    between atoms: C_5  and  C_18
REMARK    5  A    between atoms: C_6  and  C_11
REMARK    6  A    between atoms: C_16  and  C_17
REMARK    7  A    between atoms: C_18  and  O_20
REMARK    8  A    between atoms: O_20  and  C_21
REMARK    9  A    between atoms: C_21  and  C_22
REMARK   10  A    between atoms: C_23  and  N_24
REMARK   11  A    between atoms: N_33  and  C_34
REMARK   12  A    between atoms: C_34  and  C_35
REMARK   13  A    between atoms: C_34  and  C_36
REMARK   14  A    between atoms: C_34  and  C_37
REMARK                            x       y       z     vdW  Elec       q    Type
REMARK                         _______ _______ _______ _____ _____    ______ ____
ROOT
ATOM      1  N   UNL     1      -1.924  -0.356   0.361  0.00  0.00    -0.261 N 
ATOM      2  C   UNL     1      -2.323  -1.368   1.187  0.00  0.00    +0.010 C 
ATOM      3  C   UNL     1      -3.365  -2.163   0.861  0.00  0.00    +0.076 C 
ATOM      4  C   UNL     1      -4.075  -1.894  -0.450  0.00  0.00    +0.144 C 
ATOM      5  N   UNL     1      -3.567  -0.778  -1.267  0.00  0.00    -0.288 N 
ATOM      6  C   UNL     1      -2.518  -0.071  -0.804  0.00  0.00    +0.307 C 
ATOM      7  O   UNL     1      -2.094   0.854  -1.469  0.00  0.00    -0.252 OA
ATOM      8  H   UNL     1      -3.980  -0.557  -2.116  0.00  0.00    +0.151 HD
ENDROOT
BRANCH   4   9
ATOM      9  C   UNL     1      -5.526  -1.622  -0.145  0.00  0.00    -0.020 A 
ATOM     10  C   UNL     1      -5.905  -1.240   1.128  0.00  0.00    +0.006 A 
ATOM     11  C   UNL     1      -7.235  -0.991   1.408  0.00  0.00    +0.000 A 
ATOM     12  C   UNL     1      -8.187  -1.124   0.414  0.00  0.00    +0.000 A 
ATOM     13  C   UNL     1      -7.808  -1.505  -0.859  0.00  0.00    +0.004 A 
ATOM     14  C   UNL     1      -6.477  -1.750  -1.140  0.00  0.00    -0.045 A 
ATOM     15  C   UNL     1      -6.063  -2.160  -2.530  0.00  0.00    +0.044 C 
ENDBRANCH   4   9
BRANCH   1  17
ATOM     16  C   UNL     1      -1.295   1.690   1.543  0.00  0.00    +0.025 C 
ATOM     17  C   UNL     1      -0.786   0.467   0.778  0.00  0.00    +0.111 C 
ENDBRANCH   1  17
BRANCH   3  18
ATOM     18  C   UNL     1      -3.779  -3.213   1.714  0.00  0.00    +0.339 C 
ATOM     19  O   UNL     1      -3.250  -3.358   2.800  0.00  0.00    -0.245 OA
BRANCH  18  20
ATOM     20  O   UNL     1      -4.761  -4.053   1.324  0.00  0.00    -0.462 OA
BRANCH  20  21
ATOM     21  C   UNL     1      -5.205  -5.019   2.278  0.00  0.00    +0.229 C 
ATOM     22  C   UNL     1      -6.224  -5.952   1.622  0.00  0.00    +0.048 C 
ENDBRANCH  20  21
ENDBRANCH  18  20
ENDBRANCH   3  18
BRANCH   2  23
ATOM     23  C   UNL     1      -1.589  -1.602   2.482  0.00  0.00    -0.026 C 
BRANCH  23  24
ATOM     24  N   UNL     1      -0.652  -2.722   2.318  0.00  0.00    +0.384 N 
ATOM     25  C   UNL     1      -0.150  -3.100   3.638  0.00  0.00    -0.077 C 
ATOM     26  C   UNL     1       0.187  -4.574   3.640  0.00  0.00    +0.000 C 
ATOM     27  C   UNL     1       1.677  -4.759   3.299  0.00  0.00    +0.107 C 
ATOM     28  N   UNL     1       2.100  -3.821   2.240  0.00  0.00    -0.287 N 
ATOM     29  C   UNL     1       1.275  -3.534   1.084  0.00  0.00    +0.091 C 
ATOM     30  C   UNL     1       0.342  -2.340   1.390  0.00  0.00    -0.059 C 
ATOM     31  C   UNL     1       3.297  -3.210   2.352  0.00  0.00    +0.303 C 
ATOM     32  O   UNL     1       4.045  -3.502   3.265  0.00  0.00    -0.253 OA
ATOM     33  N   UNL     1       3.663  -2.276   1.453  0.00  0.00    -0.294 N 
ATOM     34  H   UNL     1       3.039  -1.991   0.768  0.00  0.00    +0.151 HD
ATOM     35  H   UNL     1      -1.159  -3.506   1.936  0.00  0.00    -0.081 HD
BRANCH  33  36
ATOM     36  C   UNL     1       5.005  -1.692   1.510  0.00  0.00    +0.028 C 
ATOM     37  C   UNL     1       6.051  -2.796   1.342  0.00  0.00    +0.031 C 
ATOM     38  C   UNL     1       5.163  -0.665   0.386  0.00  0.00    +0.031 C 
ATOM     39  C   UNL     1       5.205  -1.002   2.861  0.00  0.00    +0.031 C 
ENDBRANCH  33  36
ENDBRANCH  23  24
ENDBRANCH   2  23
TORSDOF 8
