REMARK  Name = ZINC63704049
REMARK  11 active torsions:
REMARK  status: ('A' for Active; 'I' for Inactive)
REMARK    1  A    between atoms: C_1  and  C_2
REMARK    2  A    between atoms: N_6  and  C_8
REMARK    3  A    between atoms: C_8  and  C_9
REMARK    4  A    between atoms: C_8  and  C_10
REMARK    5  A    between atoms: C_8  and  C_11
REMARK    6  A    between atoms: C_11  and  N_12
REMARK    7  A    between atoms: C_13  and  C_15
REMARK    8  A    between atoms: C_15  and  C_16
REMARK    9  A    between atoms: C_16  and  C_17
REMARK   10  A    between atoms: C_17  and  C_18
REMARK   11  A    between atoms: C_18  and  C_19
REMARK                            x       y       z     vdW  Elec       q    Type
REMARK                         _______ _______ _______ _____ _____    ______ ____
ROOT
ATOM      1  N   UNL     1       2.189  -4.461   1.137  0.00  0.00    -0.317 N 
ATOM      2  C   UNL     1       2.323  -5.782   0.909  0.00  0.00    +0.213 C 
ATOM      3  O   UNL     1       1.929  -6.582   1.731  0.00  0.00    -0.276 OA
ATOM      4  H   UNL     1       2.503  -3.821   0.480  0.00  0.00    +0.149 HD
ENDROOT
BRANCH   1   5
ATOM      5  C   UNL     1       1.568  -3.991   2.378  0.00  0.00    +0.092 C 
BRANCH   5   6
ATOM      6  C   UNL     1       1.539  -2.461   2.387  0.00  0.00    -0.055 C 
ATOM      7  C   UNL     1       2.969  -1.923   2.296  0.00  0.00    -0.008 C 
ATOM      8  C   UNL     1       0.891  -1.970   3.683  0.00  0.00    -0.008 C 
BRANCH   6  14
ATOM      9  C   UNL     1      -0.019   1.526   0.010  0.00  0.00    +0.005 C 
ATOM     10  C   UNL     1       0.002  -0.004   0.002  0.00  0.00    -0.031 C 
ATOM     11  C   UNL     1      -1.434  -0.535   0.018  0.00  0.00    -0.001 C 
ATOM     12  C   UNL     1      -1.402  -2.064   0.089  0.00  0.00    -0.018 C 
ATOM     13  C   UNL     1      -0.610  -2.496   1.325  0.00  0.00    -0.078 C 
ATOM     14  N   UNL     1       0.761  -1.980   1.237  0.00  0.00    +0.384 N 
ATOM     15  C   UNL     1       0.742  -0.512   1.241  0.00  0.00    -0.075 C 
ATOM     16  H   UNL     1       1.189  -2.307   0.384  0.00  0.00    -0.081 HD
ENDBRANCH   6  14
ENDBRANCH   5   6
ENDBRANCH   1   5
BRANCH   2  17
ATOM     17  C   UNL     1       2.961  -6.266  -0.367  0.00  0.00    +0.096 C 
BRANCH  17  18
ATOM     18  C   UNL     1       2.990  -7.795  -0.376  0.00  0.00    +0.009 C 
BRANCH  18  19
ATOM     19  C   UNL     1       3.639  -8.286  -1.672  0.00  0.00    +0.002 C 
BRANCH  19  20
ATOM     20  C   UNL     1       3.667  -9.816  -1.680  0.00  0.00    +0.016 C 
BRANCH  20  21
ATOM     21  C   UNL     1       4.316 -10.307  -2.976  0.00  0.00    +0.069 C 
ATOM     22  C   UNL     1       4.329 -11.849  -3.040  0.00  0.00    +0.108 C 
ATOM     23  C   UNL     1       4.023 -12.410  -4.432  0.00  0.00    +0.105 C 
ATOM     24  C   UNL     1       3.761 -11.322  -5.495  0.00  0.00    +0.093 C 
ATOM     25  S   UNL     1       3.270  -9.890  -4.439  0.00  0.00    -0.154 S 
ATOM     26  N   UNL     1       5.240 -13.153  -4.793  0.00  0.00    -0.294 N 
ATOM     27  C   UNL     1       6.125 -13.056  -3.791  0.00  0.00    +0.300 C 
ATOM     28  O   UNL     1       7.223 -13.577  -3.823  0.00  0.00    -0.253 OA
ATOM     29  N   UNL     1       5.689 -12.331  -2.752  0.00  0.00    -0.294 N 
ATOM     30  H   UNL     1       5.380 -13.636  -5.623  0.00  0.00    +0.151 HD
ATOM     31  H   UNL     1       6.190 -12.152  -1.940  0.00  0.00    +0.151 HD
ENDBRANCH  20  21
ENDBRANCH  19  20
ENDBRANCH  18  19
ENDBRANCH  17  18
ENDBRANCH   2  17
TORSDOF 8
