REMARK  Name = ZINC00864982
REMARK  11 active torsions:
REMARK  status: ('A' for Active; 'I' for Inactive)
REMARK    1  A    between atoms: C_1  and  C_2
REMARK    2  A    between atoms: C_5  and  C_8
REMARK    3  A    between atoms: C_11  and  O_14
REMARK    4  A    between atoms: O_14  and  C_15
REMARK    5  A    between atoms: C_15  and  C_16
REMARK    6  A    between atoms: N_18  and  C_19
REMARK    7  A    between atoms: C_22  and  S_25
REMARK    8  A    between atoms: S_25  and  N_28
REMARK    9  A    between atoms: N_28  and  C_29
REMARK   10  A    between atoms: C_30  and  C_35
REMARK   11  A    between atoms: C_31  and  C_34
REMARK                            x       y       z     vdW  Elec       q    Type
REMARK                         _______ _______ _______ _____ _____    ______ ____
ROOT
ATOM      1  C   UNL     1      -0.717   1.573   1.248  0.00  0.00    +0.255 C 
ATOM      2  O   UNL     1      -1.709   2.264   1.150  0.00  0.00    -0.272 OA
ATOM      3  N   UNL     1      -0.242   1.246   2.466  0.00  0.00    -0.283 N 
ATOM      4  H   UNL     1       0.511   0.639   2.546  0.00  0.00    +0.155 HD
ENDROOT
BRANCH   3   5
ATOM      5  C   UNL     1      -0.833   1.782   3.615  0.00  0.00    +0.034 A 
ATOM      6  C   UNL     1      -0.052   2.086   4.722  0.00  0.00    +0.025 A 
ATOM      7  C   UNL     1      -0.639   2.621   5.853  0.00  0.00    +0.030 A 
ATOM      8  C   UNL     1      -2.003   2.842   5.887  0.00  0.00    +0.109 A 
ATOM      9  C   UNL     1      -2.784   2.535   4.788  0.00  0.00    +0.030 A 
ATOM     10  C   UNL     1      -2.203   2.006   3.652  0.00  0.00    +0.025 A 
BRANCH   8  11
ATOM     11  S   UNL     1      -2.748   3.518   7.334  0.00  0.00    +0.075 S 
ATOM     12  O   UNL     1      -1.728   4.226   8.023  0.00  0.00    -0.150 OA
ATOM     13  O   UNL     1      -3.957   4.137   6.917  0.00  0.00    -0.150 OA
BRANCH  11  14
ATOM     14  N   UNL     1      -3.178   2.245   8.303  0.00  0.00    -0.183 N 
ATOM     15  H   UNL     1      -4.114   2.072   8.489  0.00  0.00    +0.177 HD
BRANCH  14  16
ATOM     16  C   UNL     1      -2.203   1.430   8.846  0.00  0.00    +0.240 A 
ATOM     17  C   UNL     1      -2.397   0.351   9.663  0.00  0.00    +0.035 A 
ATOM     18  C   UNL     1      -1.094  -0.117   9.921  0.00  0.00    +0.085 A 
ATOM     19  N   UNL     1      -0.281   0.678   9.283  0.00  0.00    -0.081 NA
ATOM     20  O   UNL     1      -0.875   1.541   8.681  0.00  0.00    -0.338 OA
ATOM     21  C   UNL     1      -0.714  -1.300  10.774  0.00  0.00    +0.069 C 
ATOM     22  C   UNL     1      -3.702  -0.208  10.168  0.00  0.00    +0.051 C 
ENDBRANCH  14  16
ENDBRANCH  11  14
ENDBRANCH   8  11
ENDBRANCH   3   5
BRANCH   1  23
ATOM     23  C   UNL     1      -0.016   1.080   0.008  0.00  0.00    +0.324 C 
BRANCH  23  24
ATOM     24  O   UNL     1      -0.705   1.556  -1.150  0.00  0.00    -0.483 OA
BRANCH  24  28
ATOM     25  C   UNL     1       0.833   0.472  -4.825  0.00  0.00    -0.018 A 
ATOM     26  C   UNL     1      -0.309   1.268  -4.753  0.00  0.00    +0.012 A 
ATOM     27  C   UNL     1      -0.821   1.628  -3.524  0.00  0.00    +0.046 A 
ATOM     28  C   UNL     1      -0.199   1.199  -2.359  0.00  0.00    +0.121 A 
ATOM     29  C   UNL     1       0.941   0.410  -2.427  0.00  0.00    +0.046 A 
ATOM     30  C   UNL     1       1.454   0.042  -3.653  0.00  0.00    +0.012 A 
BRANCH  25  35
ATOM     31  C   UNL     1       2.979  -1.040  -9.951  0.00  0.00    +0.044 C 
ATOM     32  C   UNL     1       2.418  -0.644  -8.609  0.00  0.00    -0.050 A 
ATOM     33  C   UNL     1       3.037  -1.073  -7.449  0.00  0.00    +0.004 A 
ATOM     34  C   UNL     1       2.527  -0.714  -6.218  0.00  0.00    +0.009 A 
ATOM     35  C   UNL     1       1.386   0.082  -6.145  0.00  0.00    -0.018 A 
ATOM     36  C   UNL     1       0.762   0.507  -7.317  0.00  0.00    +0.009 A 
ATOM     37  C   UNL     1       1.284   0.146  -8.543  0.00  0.00    +0.004 A 
ENDBRANCH  25  35
ENDBRANCH  24  28
ENDBRANCH  23  24
ENDBRANCH   1  23
TORSDOF 8
