REMARK  Name = ZINC44910182
REMARK  4 active torsions:
REMARK  status: ('A' for Active; 'I' for Inactive)
REMARK    1  A    between atoms: C_7  and  N_12
REMARK    2  A    between atoms: N_15  and  C_16
REMARK    3  A    between atoms: N_19  and  C_22
REMARK    4  A    between atoms: C_22  and  C_23
REMARK                            x       y       z     vdW  Elec       q    Type
REMARK                         _______ _______ _______ _____ _____    ______ ____
ROOT
ATOM      1  N   UNL     1      -0.062  -2.615  -0.749  0.00  0.00    -0.293 N 
ATOM      2  C   UNL     1      -1.278  -2.644  -0.168  0.00  0.00    +0.300 C 
ATOM      3  O   UNL     1      -1.401  -2.327   0.999  0.00  0.00    -0.253 OA
ATOM      4  N   UNL     1      -2.357  -3.025  -0.880  0.00  0.00    -0.297 N 
ATOM      5  H   UNL     1       0.036  -2.869  -1.681  0.00  0.00    +0.151 HD
ATOM      6  H   UNL     1      -2.258  -3.277  -1.812  0.00  0.00    +0.151 HD
ENDROOT
BRANCH   1  13
ATOM      7  C   UNL     1      -0.017   1.374   0.010  0.00  0.00    +0.000 A 
ATOM      8  C   UNL     1       1.171   2.083   0.002  0.00  0.00    +0.001 A 
ATOM      9  C   UNL     1       2.368   1.401  -0.022  0.00  0.00    +0.015 A 
ATOM     10  C   UNL     1       2.390   0.006  -0.032  0.00  0.00    +0.013 A 
ATOM     11  C   UNL     1       1.206  -0.705  -0.010  0.00  0.00    -0.014 A 
ATOM     12  C   UNL     1       0.002  -0.004   0.002  0.00  0.00    +0.006 A 
ATOM     13  C   UNL     1       1.111  -2.202   0.025  0.00  0.00    +0.107 C 
ATOM     14  C   UNL     1       2.333  -2.905  -0.539  0.00  0.00    +0.038 C 
ATOM     15  C   UNL     1       3.562  -2.526   0.301  0.00  0.00    +0.076 C 
ATOM     16  S   UNL     1       3.962  -0.796  -0.084  0.00  0.00    -0.125 S 
ENDBRANCH   1  13
BRANCH   4  17
ATOM     17  C   UNL     1      -3.678  -3.056  -0.248  0.00  0.00    +0.071 C 
ATOM     18  C   UNL     1      -3.872  -4.396   0.466  0.00  0.00    +0.004 C 
ATOM     19  C   UNL     1      -5.283  -4.453   1.056  0.00  0.00    -0.076 C 
ATOM     20  N   UNL     1      -6.273  -4.323  -0.020  0.00  0.00    +0.385 N 
ATOM     21  C   UNL     1      -6.139  -3.011  -0.663  0.00  0.00    -0.076 C 
ATOM     22  C   UNL     1      -4.761  -2.898  -1.319  0.00  0.00    +0.004 C 
ATOM     23  H   UNL     1      -6.121  -5.049  -0.704  0.00  0.00    -0.081 HD
BRANCH  20  24
ATOM     24  C   UNL     1      -7.624  -4.457   0.541  0.00  0.00    +0.018 C 
BRANCH  24  25
ATOM     25  C   UNL     1      -8.635  -4.446  -0.576  0.00  0.00    +0.194 C 
ATOM     26  O   UNL     1      -8.266  -4.338  -1.727  0.00  0.00    -0.278 OA
ATOM     27  N   UNL     1      -9.949  -4.557  -0.297  0.00  0.00    -0.331 N 
ATOM     28  H   UNL     1     -10.243  -4.644   0.623  0.00  0.00    +0.145 HD
ATOM     29  H   UNL     1     -10.599  -4.551  -1.017  0.00  0.00    +0.145 HD
ENDBRANCH  24  25
ENDBRANCH  20  24
ENDBRANCH   4  17
TORSDOF 4
