REMARK  Name = ZINC28639542
REMARK  9 active torsions:
REMARK  status: ('A' for Active; 'I' for Inactive)
REMARK    1  A    between atoms: C_1  and  C_2
REMARK    2  A    between atoms: C_2  and  C_3
REMARK    3  A    between atoms: C_2  and  C_4
REMARK    4  A    between atoms: C_8  and  C_10
REMARK    5  A    between atoms: C_10  and  C_11
REMARK    6  A    between atoms: C_11  and  C_13
REMARK    7  A    between atoms: C_11  and  N_24
REMARK    8  A    between atoms: C_19  and  C_21
REMARK    9  A    between atoms: C_25  and  C_27
REMARK                            x       y       z     vdW  Elec       q    Type
REMARK                         _______ _______ _______ _____ _____    ______ ____
ROOT
ATOM      1  C   UNL     1      -4.691  -2.437  -2.176  0.00  0.00    +0.165 C 
ENDROOT
BRANCH   1   2
ATOM      2  C   UNL     1      -5.354  -3.622  -2.829  0.00  0.00    +0.237 C 
ATOM      3  O   UNL     1      -6.560  -3.747  -2.778  0.00  0.00    -0.274 OA
ATOM      4  N   UNL     1      -4.608  -4.543  -3.471  0.00  0.00    -0.288 N 
ATOM      5  C   UNL     1      -3.135  -4.573  -3.519  0.00  0.00    +0.109 C 
ATOM      6  C   UNL     1      -2.777  -6.055  -3.793  0.00  0.00    +0.021 C 
ATOM      7  C   UNL     1      -3.912  -6.474  -4.764  0.00  0.00    +0.033 C 
ATOM      8  C   UNL     1      -5.128  -5.688  -4.233  0.00  0.00    +0.162 C 
BRANCH   8   9
ATOM      9  C   UNL     1      -5.958  -6.567  -3.334  0.00  0.00    +0.231 C 
ATOM     10  O   UNL     1      -6.106  -6.274  -2.166  0.00  0.00    -0.274 OA
ATOM     11  N   UNL     1      -6.535  -7.681  -3.827  0.00  0.00    -0.328 N 
ATOM     12  H   UNL     1      -6.417  -7.916  -4.761  0.00  0.00    +0.145 HD
ATOM     13  H   UNL     1      -7.069  -8.247  -3.248  0.00  0.00    +0.145 HD
ENDBRANCH   8   9
ENDBRANCH   1   2
BRANCH   1  14
ATOM     14  N   UNL     1      -5.631  -1.314  -2.133  0.00  0.00    -0.302 N 
ATOM     15  C   UNL     1      -5.753  -0.495  -3.197  0.00  0.00    +0.234 C 
ATOM     16  O   UNL     1      -5.084  -0.689  -4.190  0.00  0.00    -0.274 OA
ATOM     17  H   UNL     1      -6.166  -1.159  -1.339  0.00  0.00    +0.150 HD
BRANCH  15  18
ATOM     18  C   UNL     1      -6.720   0.660  -3.153  0.00  0.00    +0.159 C 
ATOM     19  C   UNL     1      -8.135   0.145  -3.421  0.00  0.00    +0.032 C 
ATOM     20  C   UNL     1      -9.070   1.348  -3.595  0.00  0.00    +0.011 C 
ATOM     21  C   UNL     1      -8.688   2.074  -4.887  0.00  0.00    +0.096 C 
ATOM     22  C   UNL     1      -7.205   2.305  -4.925  0.00  0.00    +0.214 C 
ATOM     23  O   UNL     1      -6.773   3.134  -5.697  0.00  0.00    -0.276 OA
ATOM     24  N   UNL     1      -6.340   1.644  -4.158  0.00  0.00    -0.304 N 
ATOM     25  H   UNL     1      -5.396   1.834  -4.275  0.00  0.00    +0.149 HD
ENDBRANCH  15  18
ENDBRANCH   1  14
BRANCH   1  26
ATOM     26  C   UNL     1      -4.274  -2.807  -0.752  0.00  0.00    +0.086 C 
BRANCH  26  31
ATOM     27  C   UNL     1      -1.845  -0.432   0.487  0.00  0.00    +0.087 A 
ATOM     28  N   UNL     1      -2.979   0.189   0.878  0.00  0.00    -0.349 N 
ATOM     29  H   UNL     1      -3.039   1.032   1.353  0.00  0.00    +0.166 HD
ATOM     30  C   UNL     1      -4.028  -0.595   0.479  0.00  0.00    +0.105 A 
ATOM     31  C   UNL     1      -3.500  -1.666  -0.142  0.00  0.00    +0.036 A 
ATOM     32  N   UNL     1      -2.165  -1.538  -0.128  0.00  0.00    -0.347 N 
ATOM     33  H   UNL     1      -1.536  -2.169  -0.512  0.00  0.00    +0.167 HD
BRANCH  27  35
ATOM     34  C   UNL     1      -0.431   1.600   0.630  0.00  0.00    +0.015 C 
ATOM     35  C   UNL     1      -0.444   0.072   0.716  0.00  0.00    +0.047 C 
ATOM     36  C   UNL     1       0.035  -0.365   2.102  0.00  0.00    +0.015 C 
ENDBRANCH  27  35
ENDBRANCH  26  31
ENDBRANCH   1  26
TORSDOF 7
