REMARK  Name = ZINC63573443
REMARK  5 active torsions:
REMARK  status: ('A' for Active; 'I' for Inactive)
REMARK    1  A    between atoms: C_1  and  C_2
REMARK    2  A    between atoms: C_5  and  C_8
REMARK    3  A    between atoms: C_15  and  O_20
REMARK    4  A    between atoms: O_20  and  C_21
REMARK    5  A    between atoms: N_27  and  C_28
REMARK                            x       y       z     vdW  Elec       q    Type
REMARK                         _______ _______ _______ _____ _____    ______ ____
ROOT
ATOM      1  C   UNL     1      -0.818  -4.624  -0.419  0.00  0.00    +0.134 C 
ATOM      2  C   UNL     1       0.691  -4.844  -0.574  0.00  0.00    +0.131 C 
ATOM      3  C   UNL     1       0.981  -6.246  -0.053  0.00  0.00    -0.035 C 
ATOM      4  C   UNL     1       1.588  -6.894  -1.040  0.00  0.00    +0.003 A 
ATOM      5  C   UNL     1       2.166  -8.244  -1.119  0.00  0.00    +0.055 A 
ATOM      6  C   UNL     1       2.714  -8.605  -2.313  0.00  0.00    +0.121 A 
ATOM      7  C   UNL     1       2.752  -7.773  -3.441  0.00  0.00    +0.047 A 
ATOM      8  C   UNL     1       2.253  -6.511  -3.477  0.00  0.00    +0.029 A 
ATOM      9  C   UNL     1       1.638  -6.005  -2.242  0.00  0.00    +0.043 A 
ATOM     10  N   UNL     1       1.102  -4.828  -1.979  0.00  0.00    -0.375 N 
ATOM     11  C   UNL     1       0.539  -6.711   1.313  0.00  0.00    +0.052 C 
ATOM     12  C   UNL     1      -0.959  -6.378   1.430  0.00  0.00    +0.114 C 
ATOM     13  N   UNL     1      -1.194  -5.012   0.949  0.00  0.00    -0.276 N 
ATOM     14  C   UNL     1      -1.758  -4.103   1.770  0.00  0.00    +0.307 C 
ATOM     15  O   UNL     1      -2.121  -3.030   1.329  0.00  0.00    -0.252 OA
ATOM     16  N   UNL     1      -1.919  -4.385   3.078  0.00  0.00    -0.269 N 
ATOM     17  H   UNL     1      -1.545  -5.199   3.448  0.00  0.00    +0.156 HD
ATOM     18  H   UNL     1       0.991  -4.087  -2.594  0.00  0.00    +0.160 HD
ENDROOT
BRANCH   1  23
ATOM     19  C   UNL     1      -2.080   0.947  -1.293  0.00  0.00    +0.044 C 
ATOM     20  C   UNL     1      -1.751  -0.506  -1.065  0.00  0.00    -0.050 A 
ATOM     21  C   UNL     1      -0.700  -0.855  -0.238  0.00  0.00    +0.004 A 
ATOM     22  C   UNL     1      -0.398  -2.188  -0.029  0.00  0.00    +0.006 A 
ATOM     23  C   UNL     1      -1.148  -3.171  -0.646  0.00  0.00    -0.025 A 
ATOM     24  C   UNL     1      -2.200  -2.822  -1.472  0.00  0.00    +0.006 A 
ATOM     25  C   UNL     1      -2.505  -1.490  -1.678  0.00  0.00    +0.004 A 
ENDBRANCH   1  23
BRANCH  16  26
ATOM     26  C   UNL     1      -2.626  -3.501   3.902  0.00  0.00    +0.035 A 
ATOM     27  C   UNL     1      -2.611  -2.138   3.635  0.00  0.00    +0.024 A 
ATOM     28  C   UNL     1      -3.310  -1.269   4.450  0.00  0.00    +0.017 A 
ATOM     29  C   UNL     1      -4.024  -1.754   5.531  0.00  0.00    +0.018 A 
ATOM     30  C   UNL     1      -4.041  -3.112   5.798  0.00  0.00    +0.017 A 
ATOM     31  C   UNL     1      -3.349  -3.986   4.984  0.00  0.00    +0.024 A 
ATOM     32 BR   UNL     1      -4.979  -0.561   6.644  0.00  0.00    -0.050 Br
ENDBRANCH  16  26
BRANCH   6  33
ATOM     33  O   UNL     1       3.256  -9.847  -2.417  0.00  0.00    -0.495 OA
ATOM     34  C   UNL     1       3.825 -10.203  -3.678  0.00  0.00    +0.277 C 
ENDBRANCH   6  33
TORSDOF 3
