REMARK  Name = ZINC50360680
REMARK  5 active torsions:
REMARK  status: ('A' for Active; 'I' for Inactive)
REMARK    1  A    between atoms: C_1  and  C_2
REMARK    2  A    between atoms: C_2  and  C_4
REMARK    3  A    between atoms: C_2  and  N_16
REMARK    4  A    between atoms: N_16  and  C_17
REMARK    5  A    between atoms: C_17  and  C_18
REMARK                            x       y       z     vdW  Elec       q    Type
REMARK                         _______ _______ _______ _____ _____    ______ ____
ROOT
ATOM      1  C   UNL     1      -0.019   1.526   0.010  0.00  0.00    -0.009 C 
ATOM      2  C   UNL     1       0.002  -0.004   0.002  0.00  0.00    -0.043 C 
ENDROOT
BRANCH   2   3
ATOM      3  C   UNL     1       0.731  -0.503   1.223  0.00  0.00    -0.060 A 
ATOM      4  C   UNL     1       0.077  -0.557   2.442  0.00  0.00    +0.004 A 
ATOM      5  C   UNL     1       0.737  -1.013   3.566  0.00  0.00    +0.028 A 
ATOM      6  C   UNL     1       2.059  -1.419   3.474  0.00  0.00    +0.067 A 
ATOM      7  C   UNL     1       2.719  -1.364   2.244  0.00  0.00    +0.067 A 
ATOM      8  C   UNL     1       2.047  -0.910   1.120  0.00  0.00    +0.029 A 
ATOM      9  N   UNL     1       4.014  -1.829   2.461  0.00  0.00    -0.306 N 
ATOM     10  H   UNL     1       4.709  -1.906   1.789  0.00  0.00    +0.170 HD
ATOM     11  C   UNL     1       4.137  -2.151   3.763  0.00  0.00    +0.325 A 
ATOM     12  O   UNL     1       5.145  -2.589   4.284  0.00  0.00    -0.247 OA
ATOM     13  N   UNL     1       2.974  -1.915   4.400  0.00  0.00    -0.306 N 
ATOM     14  H   UNL     1       2.803  -2.064   5.343  0.00  0.00    +0.170 HD
ENDBRANCH   2   3
BRANCH   2  15
ATOM     15  N   UNL     1      -1.376  -0.512   0.012  0.00  0.00    +0.388 N 
ATOM     16  H   UNL     1      -1.363  -1.518   0.090  0.00  0.00    -0.084 HD
ATOM     17  H   UNL     1      -1.873  -0.121   0.799  0.00  0.00    -0.084 HD
BRANCH  15  18
ATOM     18  C   UNL     1      -2.050  -0.126  -1.234  0.00  0.00    -0.006 C 
BRANCH  18  19
ATOM     19  C   UNL     1      -3.464  -0.648  -1.224  0.00  0.00    +0.091 A 
ATOM     20  C   UNL     1      -4.540   0.008  -0.753  0.00  0.00    +0.059 A 
ATOM     21  C   UNL     1      -5.653  -0.845  -0.940  0.00  0.00    +0.070 A 
ATOM     22  C   UNL     1      -5.189  -1.972  -1.514  0.00  0.00    +0.184 A 
ATOM     23  O   UNL     1      -3.863  -1.844  -1.687  0.00  0.00    -0.454 OA
ATOM     24 BR   UNL     1      -6.229  -3.475  -1.998  0.00  0.00    -0.007 Br
ATOM     25 BR   UNL     1      -7.448  -0.474  -0.473  0.00  0.00    -0.046 Br
ENDBRANCH  18  19
ENDBRANCH  15  18
ENDBRANCH   2  15
TORSDOF 4
