REMARK  Name = ZINC38546667
REMARK  10 active torsions:
REMARK  status: ('A' for Active; 'I' for Inactive)
REMARK    1  A    between atoms: C_1  and  C_2
REMARK    2  A    between atoms: C_2  and  C_32
REMARK    3  A    between atoms: C_4  and  N_25
REMARK    4  A    between atoms: C_5  and  C_9
REMARK    5  A    between atoms: C_9  and  C_11
REMARK    6  A    between atoms: C_9  and  N_16
REMARK    7  A    between atoms: N_19  and  C_22
REMARK    8  A    between atoms: C_22  and  C_23
REMARK    9  A    between atoms: C_23  and  O_24
REMARK   10  A    between atoms: N_25  and  C_26
REMARK                            x       y       z     vdW  Elec       q    Type
REMARK                         _______ _______ _______ _____ _____    ______ ____
ROOT
ATOM      1  C   UNL     1       0.640   1.301  -1.327  0.00  0.00    +0.011 C 
ATOM      2  C   UNL     1       0.462  -0.120  -0.789  0.00  0.00    -0.023 C 
ATOM      3  C   UNL     1      -1.022  -0.499  -0.820  0.00  0.00    +0.058 C 
ATOM      4  C   UNL     1      -1.202  -1.870  -0.225  0.00  0.00    +0.014 C 
ATOM      5  C   UNL     1      -0.367  -2.333   0.730  0.00  0.00    +0.003 C 
ATOM      6  C   UNL     1       0.702  -1.567   1.205  0.00  0.00    +0.160 C 
ATOM      7  O   UNL     1       1.430  -2.019   2.067  0.00  0.00    -0.292 OA
ATOM      8  C   UNL     1       0.960  -0.187   0.658  0.00  0.00    +0.086 C 
ATOM      9  C   UNL     1       1.261  -1.099  -1.651  0.00  0.00    +0.011 C 
ENDROOT
BRANCH   4  10
ATOM     10  N   UNL     1      -2.227  -2.658  -0.658  0.00  0.00    -0.318 N 
ATOM     11  H   UNL     1      -2.040  -3.523  -1.054  0.00  0.00    +0.152 HD
BRANCH  10  12
ATOM     12  C   UNL     1      -3.548  -2.219  -0.532  0.00  0.00    +0.031 A 
ATOM     13  C   UNL     1      -3.832  -1.067   0.190  0.00  0.00    +0.023 A 
ATOM     14  C   UNL     1      -5.139  -0.635   0.313  0.00  0.00    +0.002 A 
ATOM     15  C   UNL     1      -6.163  -1.350  -0.281  0.00  0.00    +0.000 A 
ATOM     16  C   UNL     1      -5.883  -2.497  -1.000  0.00  0.00    +0.002 A 
ATOM     17  C   UNL     1      -4.579  -2.930  -1.133  0.00  0.00    +0.023 A 
ENDBRANCH  10  12
ENDBRANCH   4  10
BRANCH   5  18
ATOM     18  C   UNL     1      -0.594  -3.710   1.299  0.00  0.00    +0.005 C 
BRANCH  18  19
ATOM     19  N   UNL     1       0.622  -4.516   1.129  0.00  0.00    +0.389 N 
ATOM     20  C   UNL     1       0.870  -4.732  -0.302  0.00  0.00    -0.062 C 
ATOM     21  C   UNL     1       2.147  -5.556  -0.480  0.00  0.00    +0.066 C 
ATOM     22  N   UNL     1       1.994  -6.846   0.208  0.00  0.00    -0.304 NA
ATOM     23  C   UNL     1       1.720  -6.645   1.639  0.00  0.00    +0.066 C 
ATOM     24  C   UNL     1       0.447  -5.812   1.799  0.00  0.00    -0.062 C 
ATOM     25  H   UNL     1       1.407  -4.031   1.537  0.00  0.00    -0.080 HD
BRANCH  22  26
ATOM     26  C   UNL     1       3.180  -7.691   0.013  0.00  0.00    +0.112 C 
BRANCH  26  27
ATOM     27  C   UNL     1       2.890  -9.103   0.524  0.00  0.00    +0.171 C 
BRANCH  27  28
ATOM     28  O   UNL     1       1.866  -9.698  -0.276  0.00  0.00    -0.394 OA
ATOM     29  H   UNL     1       1.630 -10.597  -0.008  0.00  0.00    +0.209 HD
ENDBRANCH  27  28
ENDBRANCH  26  27
ENDBRANCH  22  26
ENDBRANCH  18  19
BRANCH  18  30
ATOM     30  C   UNL     1      -0.924  -3.599   2.765  0.00  0.00    -0.019 A 
ATOM     31  C   UNL     1      -2.133  -3.654   3.375  0.00  0.00    +0.010 A 
ATOM     32  C   UNL     1      -2.197  -3.528   4.750  0.00  0.00    +0.008 A 
ATOM     33  C   UNL     1      -1.048  -3.354   5.448  0.00  0.00    +0.045 A 
ATOM     34  S   UNL     1       0.179  -3.371   4.151  0.00  0.00    -0.103 S 
ENDBRANCH  18  30
ENDBRANCH   5  18
TORSDOF 8
