REMARK  Name = ZINC39466506
REMARK  6 active torsions:
REMARK  status: ('A' for Active; 'I' for Inactive)
REMARK    1  A    between atoms: C_4  and  C_7
REMARK    2  A    between atoms: C_7  and  C_8
REMARK    3  A    between atoms: C_20  and  C_21
REMARK    4  A    between atoms: C_26  and  O_27
REMARK    5  A    between atoms: P_30  and  C_33
REMARK    6  A    between atoms: C_33  and  C_34
REMARK                            x       y       z     vdW  Elec       q    Type
REMARK                         _______ _______ _______ _____ _____    ______ ____
ROOT
ATOM      1  C   UNL     1       4.164  -0.959   1.377  0.00  0.00    -0.039 C 
ATOM      2  C   UNL     1       3.893  -2.120   1.970  0.00  0.00    -0.020 C 
ATOM      3  C   UNL     1       4.369  -2.347   3.377  0.00  0.00    +0.005 C 
ATOM      4  C   UNL     1       4.478  -3.832   3.703  0.00  0.00    -0.046 C 
ATOM      5  N   UNL     1       4.902  -4.006   5.103  0.00  0.00    +0.397 N 
ATOM      6  C   UNL     1       6.204  -3.388   5.348  0.00  0.00    -0.020 C 
ATOM      7  C   UNL     1       6.182  -1.893   4.997  0.00  0.00    -0.003 C 
ATOM      8  C   UNL     1       5.761  -1.725   3.540  0.00  0.00    +0.016 C 
ATOM      9  C   UNL     1       5.692  -0.273   3.155  0.00  0.00    -0.014 C 
ATOM     10  C   UNL     1       4.919   0.080   2.113  0.00  0.00    -0.015 C 
ATOM     11  C   UNL     1       6.601  -3.482   6.827  0.00  0.00    +0.156 C 
ATOM     12  O   UNL     1       6.714  -4.867   7.203  0.00  0.00    -0.319 OA
ATOM     13  P   UNL     1       5.478  -5.857   6.829  0.00  0.00    +0.262 P 
ATOM     14  O   UNL     1       4.390  -5.717   7.823  0.00  0.00    -0.274 OA
ATOM     15  N   UNL     1       4.966  -5.366   5.321  0.00  0.00    -0.291 NA
ATOM     16  H   UNL     1       4.710  -5.998   4.631  0.00  0.00    +0.111 HD
ATOM     17  H   UNL     1       4.212  -3.599   5.717  0.00  0.00    -0.055 HD
ENDROOT
BRANCH  10  18
ATOM     18  C   UNL     1       4.819   1.503   1.707  0.00  0.00    +0.024 A 
ATOM     19  C   UNL     1       5.473   1.951   0.561  0.00  0.00    +0.012 A 
ATOM     20  C   UNL     1       5.377   3.276   0.188  0.00  0.00    +0.001 A 
ATOM     21  C   UNL     1       4.634   4.162   0.948  0.00  0.00    +0.004 A 
ATOM     22  C   UNL     1       3.982   3.728   2.087  0.00  0.00    +0.046 A 
ATOM     23  C   UNL     1       4.065   2.399   2.470  0.00  0.00    +0.125 A 
BRANCH  23  24
ATOM     24  O   UNL     1       3.421   1.970   3.586  0.00  0.00    -0.506 OA
ATOM     25  H   UNL     1       3.948   2.034   4.394  0.00  0.00    +0.292 HD
ENDBRANCH  23  24
ENDBRANCH  10  18
BRANCH   1  26
ATOM     26  C   UNL     1       3.711  -0.707  -0.038  0.00  0.00    +0.070 C 
BRANCH  26  30
ATOM     27  C   UNL     1      -0.017   1.378   0.010  0.00  0.00    +0.000 A 
ATOM     28  C   UNL     1       1.171   2.086   0.002  0.00  0.00    +0.000 A 
ATOM     29  C   UNL     1       2.377   1.411  -0.013  0.00  0.00    +0.004 A 
ATOM     30  C   UNL     1       2.396   0.029  -0.020  0.00  0.00    -0.043 A 
ATOM     31  C   UNL     1       1.208  -0.679  -0.012  0.00  0.00    +0.004 A 
ATOM     32  C   UNL     1       0.002  -0.004   0.002  0.00  0.00    +0.000 A 
ENDBRANCH  26  30
ENDBRANCH   1  26
BRANCH  13  33
ATOM     33  C   UNL     1       6.051  -7.586   6.761  0.00  0.00    +0.147 C 
BRANCH  33  34
ATOM     34  C   UNL     1       6.611  -7.983   8.103  0.00  0.00    -0.037 A 
ATOM     35  C   UNL     1       7.952  -7.786   8.378  0.00  0.00    +0.004 A 
ATOM     36  C   UNL     1       8.465  -8.150   9.609  0.00  0.00    +0.000 A 
ATOM     37  C   UNL     1       7.638  -8.710  10.565  0.00  0.00    +0.000 A 
ATOM     38  C   UNL     1       6.297  -8.906  10.290  0.00  0.00    +0.000 A 
ATOM     39  C   UNL     1       5.783  -8.538   9.060  0.00  0.00    +0.004 A 
ENDBRANCH  33  34
ENDBRANCH  13  33
TORSDOF 6
