REMARK  Name = ZINC31164103
REMARK  12 active torsions:
REMARK  status: ('A' for Active; 'I' for Inactive)
REMARK    1  A    between atoms: C_1  and  C_2
REMARK    2  A    between atoms: C_4  and  O_38
REMARK    3  A    between atoms: C_6  and  O_37
REMARK    4  A    between atoms: C_8  and  O_36
REMARK    5  A    between atoms: C_10  and  O_13
REMARK    6  A    between atoms: O_13  and  C_14
REMARK    7  A    between atoms: C_18  and  O_35
REMARK    8  A    between atoms: C_20  and  O_33
REMARK    9  A    between atoms: C_21  and  O_32
REMARK   10  A    between atoms: C_24  and  C_25
REMARK   11  A    between atoms: C_28  and  O_31
REMARK   12  A    between atoms: O_33  and  C_34
REMARK                            x       y       z     vdW  Elec       q    Type
REMARK                         _______ _______ _______ _____ _____    ______ ____
ROOT
ATOM      1  C   UNL     1      -0.211  -1.506  -3.573  0.00  0.00    +0.214 A 
ATOM      2  C   UNL     1      -0.149  -1.088  -2.219  0.00  0.00    +0.238 A 
ATOM      3  O   UNL     1      -0.088   0.095  -1.922  0.00  0.00    -0.283 OA
ATOM      4  C   UNL     1      -0.169  -2.135  -1.184  0.00  0.00    +0.113 A 
ATOM      5  C   UNL     1      -0.105  -1.813   0.177  0.00  0.00    +0.135 A 
ATOM      6  C   UNL     1      -0.118  -2.824   1.119  0.00  0.00    +0.095 A 
ATOM      7  C   UNL     1      -0.190  -4.153   0.718  0.00  0.00    +0.168 A 
ATOM      8  C   UNL     1      -0.248  -4.483  -0.630  0.00  0.00    +0.203 A 
ATOM      9  C   UNL     1      -0.235  -3.479  -1.591  0.00  0.00    +0.188 A 
ATOM     10  O   UNL     1      -0.290  -3.781  -2.906  0.00  0.00    -0.447 OA
ATOM     11  C   UNL     1      -0.279  -2.836  -3.861  0.00  0.00    +0.181 A 
ENDROOT
BRANCH  11  12
ATOM     12  C   UNL     1      -0.342  -3.254  -5.274  0.00  0.00    +0.021 A 
ATOM     13  C   UNL     1      -1.252  -2.647  -6.144  0.00  0.00    +0.015 A 
ATOM     14  C   UNL     1      -1.304  -3.037  -7.465  0.00  0.00    +0.046 A 
ATOM     15  C   UNL     1      -0.462  -4.040  -7.929  0.00  0.00    +0.117 A 
ATOM     16  C   UNL     1       0.440  -4.650  -7.066  0.00  0.00    +0.046 A 
ATOM     17  C   UNL     1       0.503  -4.263  -5.745  0.00  0.00    +0.015 A 
BRANCH  15  18
ATOM     18  O   UNL     1      -0.520  -4.425  -9.230  0.00  0.00    -0.507 OA
ATOM     19  H   UNL     1       0.145  -5.219  -9.599  0.00  0.00    +0.292 HD
ENDBRANCH  15  18
ENDBRANCH  11  12
BRANCH   8  20
ATOM     20  O   UNL     1      -0.318  -5.788  -1.010  0.00  0.00    -0.501 OA
ATOM     21  H   UNL     1      -0.363  -6.049  -2.077  0.00  0.00    +0.292 HD
ENDBRANCH   8  20
BRANCH   7  22
ATOM     22  O   UNL     1      -0.203  -5.139   1.653  0.00  0.00    -0.491 OA
ATOM     23  C   UNL     1      -0.141  -4.735   3.022  0.00  0.00    +0.277 C 
ENDBRANCH   7  22
BRANCH   5  24
ATOM     24  O   UNL     1      -0.036  -0.514   0.570  0.00  0.00    -0.506 OA
ATOM     25  H   UNL     1       0.014  -0.265   1.640  0.00  0.00    +0.292 HD
ENDBRANCH   5  24
BRANCH   1  26
ATOM     26  O   UNL     1      -0.202  -0.587  -4.576  0.00  0.00    -0.453 OA
BRANCH  26  32
ATOM     27  C   UNL     1       2.100   2.516  -2.939  0.00  0.00    +0.041 C 
ATOM     28  C   UNL     1       1.205   1.754  -3.918  0.00  0.00    +0.150 C 
ATOM     29  C   UNL     1       0.993   2.598  -5.178  0.00  0.00    +0.174 C 
ATOM     30  C   UNL     1       0.146   1.804  -6.177  0.00  0.00    +0.180 C 
ATOM     31  C   UNL     1       0.845   0.475  -6.479  0.00  0.00    +0.214 C 
ATOM     32  C   UNL     1       1.063  -0.287  -5.169  0.00  0.00    +0.339 C 
ATOM     33  O   UNL     1       1.831   0.520  -4.273  0.00  0.00    -0.334 OA
BRANCH  31  34
ATOM     34  O   UNL     1       2.107   0.729  -7.100  0.00  0.00    -0.383 OA
ATOM     35  H   UNL     1       2.755  -0.111  -7.392  0.00  0.00    +0.210 HD
ENDBRANCH  31  34
BRANCH  30  36
ATOM     36  O   UNL     1       0.002   2.556  -7.384  0.00  0.00    -0.386 OA
ATOM     37  H   UNL     1      -0.578   2.143  -8.223  0.00  0.00    +0.210 HD
ENDBRANCH  30  36
BRANCH  29  38
ATOM     38  O   UNL     1       0.315   3.808  -4.833  0.00  0.00    -0.387 OA
ATOM     39  H   UNL     1       0.074   4.545  -5.613  0.00  0.00    +0.210 HD
ENDBRANCH  29  38
ENDBRANCH  26  32
ENDBRANCH   1  26
TORSDOF 10
