REMARK  Name = ZINC39653656
REMARK  12 active torsions:
REMARK  status: ('A' for Active; 'I' for Inactive)
REMARK    1  A    between atoms: C_1  and  C_2
REMARK    2  A    between atoms: C_2  and  O_3
REMARK    3  A    between atoms: O_3  and  C_4
REMARK    4  A    between atoms: C_7  and  C_10
REMARK    5  A    between atoms: C_10  and  C_11
REMARK    6  A    between atoms: C_11  and  N_12
REMARK    7  A    between atoms: C_13  and  C_15
REMARK    8  A    between atoms: C_26  and  C_28
REMARK    9  A    between atoms: C_30  and  O_36
REMARK   10  A    between atoms: C_32  and  O_34
REMARK   11  A    between atoms: O_34  and  C_35
REMARK   12  A    between atoms: O_36  and  C_37
REMARK                            x       y       z     vdW  Elec       q    Type
REMARK                         _______ _______ _______ _____ _____    ______ ____
ROOT
ATOM      1  C   UNL     1      -0.550 -10.802  -3.601  0.00  0.00    +0.100 C 
ATOM      2  C   UNL     1      -0.584 -11.195  -2.107  0.00  0.00    +0.121 C 
ATOM      3  N   UNL     1      -2.004 -11.525  -1.839  0.00  0.00    -0.296 N 
ATOM      4  C   UNL     1      -2.450 -12.247  -3.054  0.00  0.00    +0.115 C 
ATOM      5  C   UNL     1      -1.774 -11.498  -4.220  0.00  0.00    -0.004 C 
ATOM      6  C   UNL     1      -1.333 -12.484  -5.297  0.00  0.00    -0.010 C 
ATOM      7  C   UNL     1      -2.570 -13.120  -5.938  0.00  0.00    -0.082 C 
ATOM      8  N   UNL     1      -3.414 -12.071  -6.523  0.00  0.00    +0.379 N 
ATOM      9  C   UNL     1      -3.910 -11.180  -5.467  0.00  0.00    -0.082 C 
ATOM     10  C   UNL     1      -2.730 -10.463  -4.806  0.00  0.00    -0.010 C 
ATOM     11  C   UNL     1      -2.725 -11.236  -0.738  0.00  0.00    +0.247 C 
ATOM     12  O   UNL     1      -2.254 -10.525   0.128  0.00  0.00    -0.270 OA
ATOM     13  H   UNL     1      -2.873 -11.536  -7.186  0.00  0.00    -0.086 HD
ATOM     14  H   UNL     1      -4.197 -12.496  -6.997  0.00  0.00    -0.086 HD
ENDROOT
BRANCH  11  15
ATOM     15  C   UNL     1      -4.091 -11.782  -0.584  0.00  0.00    +0.044 A 
ATOM     16  C   UNL     1      -4.479 -12.909  -1.310  0.00  0.00    +0.059 A 
ATOM     17  C   UNL     1      -5.759 -13.418  -1.162  0.00  0.00    +0.124 A 
ATOM     18  C   UNL     1      -6.654 -12.809  -0.295  0.00  0.00    +0.091 A 
ATOM     19  C   UNL     1      -6.272 -11.688   0.428  0.00  0.00    +0.124 A 
ATOM     20  C   UNL     1      -4.993 -11.176   0.291  0.00  0.00    +0.059 A 
BRANCH  19  21
ATOM     21  O   UNL     1      -7.153 -11.095   1.276  0.00  0.00    -0.495 OA
ATOM     22  C   UNL     1      -8.454 -11.679   1.372  0.00  0.00    +0.277 C 
ENDBRANCH  19  21
BRANCH  17  23
ATOM     23  O   UNL     1      -6.138 -14.516  -1.869  0.00  0.00    -0.495 OA
ATOM     24  C   UNL     1      -7.472 -14.987  -1.668  0.00  0.00    +0.277 C 
ENDBRANCH  17  23
ENDBRANCH  11  15
BRANCH   1  26
ATOM     25  N   UNL     1      -0.192  -8.706  -4.863  0.00  0.00    -0.315 N 
ATOM     26  C   UNL     1      -0.663  -9.307  -3.753  0.00  0.00    +0.218 C 
ATOM     27  O   UNL     1      -1.178  -8.646  -2.877  0.00  0.00    -0.275 OA
ATOM     28  H   UNL     1       0.220  -9.235  -5.564  0.00  0.00    +0.149 HD
BRANCH  25  29
ATOM     29  C   UNL     1      -0.302  -7.252  -5.011  0.00  0.00    +0.109 C 
BRANCH  29  30
ATOM     30  C   UNL     1       0.304  -6.829  -6.351  0.00  0.00    +0.054 C 
BRANCH  30  34
ATOM     31  C   UNL     1      -0.016  -2.589  -6.782  0.00  0.00    +0.121 A 
ATOM     32  C   UNL     1       1.107  -3.144  -6.185  0.00  0.00    +0.046 A 
ATOM     33  C   UNL     1       1.208  -4.515  -6.046  0.00  0.00    +0.007 A 
ATOM     34  C   UNL     1       0.191  -5.334  -6.503  0.00  0.00    -0.046 A 
ATOM     35  C   UNL     1      -0.928  -4.783  -7.099  0.00  0.00    +0.007 A 
ATOM     36  C   UNL     1      -1.037  -3.413  -7.234  0.00  0.00    +0.046 A 
BRANCH  31  37
ATOM     37  O   UNL     1      -0.118  -1.241  -6.920  0.00  0.00    -0.492 OA
BRANCH  37  39
ATOM     38  C   UNL     1       0.679   1.027  -6.672  0.00  0.00    +0.048 C 
ATOM     39  C   UNL     1       0.971  -0.455  -6.432  0.00  0.00    +0.225 C 
ENDBRANCH  37  39
ENDBRANCH  31  37
ENDBRANCH  30  34
ENDBRANCH  29  30
ENDBRANCH  25  29
ENDBRANCH   1  26
TORSDOF 9
