REMARK  Name = ZINC06070013
REMARK  12 active torsions:
REMARK  status: ('A' for Active; 'I' for Inactive)
REMARK    1  A    between atoms: C_1  and  C_2
REMARK    2  A    between atoms: C_4  and  O_34
REMARK    3  A    between atoms: C_6  and  O_17
REMARK    4  A    between atoms: C_7  and  C_8
REMARK    5  A    between atoms: C_10  and  O_15
REMARK    6  A    between atoms: O_15  and  C_16
REMARK    7  A    between atoms: O_17  and  C_18
REMARK    8  A    between atoms: C_20  and  O_33
REMARK    9  A    between atoms: C_22  and  O_32
REMARK   10  A    between atoms: C_24  and  O_31
REMARK   11  A    between atoms: C_26  and  C_29
REMARK   12  A    between atoms: C_29  and  O_30
REMARK                            x       y       z     vdW  Elec       q    Type
REMARK                         _______ _______ _______ _____ _____    ______ ____
ROOT
ATOM      1  C   UNL     1      -0.018   1.503   0.010  0.00  0.00    +0.045 C 
ATOM      2  C   UNL     1       0.002  -0.004   0.002  0.00  0.00    -0.033 A 
ATOM      3  C   UNL     1       0.006  -0.686  -1.194  0.00  0.00    +0.049 A 
ATOM      4  C   UNL     1       0.025  -2.077  -1.207  0.00  0.00    +0.121 A 
ATOM      5  C   UNL     1       0.039  -2.787  -0.015  0.00  0.00    +0.091 A 
ATOM      6  C   UNL     1       0.035  -2.113   1.193  0.00  0.00    +0.138 A 
ATOM      7  C   UNL     1       0.023  -0.710   1.208  0.00  0.00    +0.062 A 
ENDROOT
BRANCH   7   8
ATOM      8  C   UNL     1       0.025   0.017   2.490  0.00  0.00    +0.146 A 
ATOM      9  C   UNL     1      -1.079  -0.025   3.288  0.00  0.00    +0.093 A 
ATOM     10  C   UNL     1      -1.079   0.667   4.512  0.00  0.00    +0.130 A 
ATOM     11  C   UNL     1       0.053   1.379   4.877  0.00  0.00    +0.137 A 
ATOM     12  C   UNL     1       1.157   1.387   4.020  0.00  0.00    +0.341 A 
ATOM     13  O   UNL     1       2.161   2.008   4.327  0.00  0.00    -0.245 OA
ATOM     14  O   UNL     1       1.120   0.707   2.860  0.00  0.00    -0.422 OA
BRANCH  10  15
ATOM     15  O   UNL     1      -2.167   0.640   5.319  0.00  0.00    -0.495 OA
ATOM     16  C   UNL     1      -2.083   1.370   6.545  0.00  0.00    +0.277 C 
ENDBRANCH  10  15
ENDBRANCH   7   8
BRANCH   4  17
ATOM     17  O   UNL     1       0.028  -2.742  -2.390  0.00  0.00    -0.507 OA
ATOM     18  H   UNL     1       0.912  -2.923  -2.737  0.00  0.00    +0.292 HD
ENDBRANCH   4  17
BRANCH   6  19
ATOM     19  O   UNL     1       0.049  -2.806   2.360  0.00  0.00    -0.460 OA
BRANCH  19  20
ATOM     20  C   UNL     1       0.067  -4.232   2.268  0.00  0.00    +0.339 C 
ATOM     21  C   UNL     1       0.205  -4.833   3.669  0.00  0.00    +0.214 C 
ATOM     22  C   UNL     1       0.163  -6.361   3.567  0.00  0.00    +0.180 C 
ATOM     23  C   UNL     1      -1.140  -6.780   2.881  0.00  0.00    +0.177 C 
ATOM     24  C   UNL     1      -1.227  -6.104   1.510  0.00  0.00    +0.179 C 
ATOM     25  O   UNL     1      -1.151  -4.686   1.674  0.00  0.00    -0.331 OA
BRANCH  23  26
ATOM     26  O   UNL     1      -1.158  -8.200   2.716  0.00  0.00    -0.386 OA
ATOM     27  H   UNL     1      -1.102  -8.693   3.546  0.00  0.00    +0.210 HD
ENDBRANCH  23  26
BRANCH  22  28
ATOM     28  O   UNL     1       0.220  -6.929   4.877  0.00  0.00    -0.386 OA
ATOM     29  H   UNL     1       1.019  -6.699   5.371  0.00  0.00    +0.210 HD
ENDBRANCH  22  28
BRANCH  21  30
ATOM     30  O   UNL     1       1.449  -4.426   4.242  0.00  0.00    -0.383 OA
ATOM     31  H   UNL     1       1.546  -3.468   4.332  0.00  0.00    +0.210 HD
ENDBRANCH  21  30
BRANCH  24  32
ATOM     32  C   UNL     1      -2.554  -6.470   0.843  0.00  0.00    +0.190 C 
BRANCH  32  33
ATOM     33  O   UNL     1      -2.585  -5.936  -0.482  0.00  0.00    -0.392 OA
ATOM     34  H   UNL     1      -3.400  -6.130  -0.965  0.00  0.00    +0.210 HD
ENDBRANCH  32  33
ENDBRANCH  24  32
ENDBRANCH  19  20
ENDBRANCH   6  19
TORSDOF 10
