REMARK  Name = ZINC39618013
REMARK  7 active torsions:
REMARK  status: ('A' for Active; 'I' for Inactive)
REMARK    1  A    between atoms: C_1  and  O_2
REMARK    2  A    between atoms: O_2  and  C_3
REMARK    3  A    between atoms: C_8  and  C_9
REMARK    4  A    between atoms: C_12  and  S_15
REMARK    5  A    between atoms: N_13  and  N_14
REMARK    6  A    between atoms: S_15  and  C_16
REMARK    7  A    between atoms: C_18  and  C_28
REMARK                            x       y       z     vdW  Elec       q    Type
REMARK                         _______ _______ _______ _____ _____    ______ ____
ROOT
ATOM      1  C   UNL     1      -1.718  -5.913  -3.284  0.00  0.00    +0.171 C 
ATOM      2  C   UNL     1      -2.416  -7.134  -3.853  0.00  0.00    -0.009 C 
ATOM      3  C   UNL     1      -2.173  -7.436  -5.196  0.00  0.00    +0.001 A 
ATOM      4  C   UNL     1      -2.781  -8.553  -5.805  0.00  0.00    +0.010 A 
ATOM      5  C   UNL     1      -2.529  -8.824  -7.114  0.00  0.00    +0.001 A 
ATOM      6  C   UNL     1      -1.678  -8.019  -7.869  0.00  0.00    +0.002 A 
ATOM      7  C   UNL     1      -1.062  -6.927  -7.337  0.00  0.00    +0.024 A 
ATOM      8  C   UNL     1      -1.278  -6.587  -5.989  0.00  0.00    +0.041 A 
ATOM      9  N   UNL     1      -0.672  -5.514  -5.468  0.00  0.00    -0.284 N 
ATOM     10  C   UNL     1      -0.822  -5.130  -4.217  0.00  0.00    +0.235 C 
ATOM     11  O   UNL     1      -0.239  -4.142  -3.811  0.00  0.00    -0.274 OA
ATOM     12  H   UNL     1      -0.091  -4.992  -6.043  0.00  0.00    +0.155 HD
ENDROOT
BRANCH   2  13
ATOM     13  C   UNL     1      -3.275  -7.934  -3.058  0.00  0.00    -0.020 A 
ATOM     14  C   UNL     1      -2.939  -9.268  -2.777  0.00  0.00    +0.008 A 
ATOM     15  C   UNL     1      -3.781 -10.037  -2.003  0.00  0.00    +0.001 A 
ATOM     16  C   UNL     1      -4.955  -9.497  -1.503  0.00  0.00    +0.000 A 
ATOM     17  C   UNL     1      -5.295  -8.182  -1.775  0.00  0.00    +0.001 A 
ATOM     18  C   UNL     1      -4.465  -7.395  -2.541  0.00  0.00    +0.008 A 
ENDBRANCH   2  13
BRANCH   1  19
ATOM     19  S   UNL     1      -0.716  -6.452  -1.871  0.00  0.00    -0.067 S 
BRANCH  19  23
ATOM     20  C   UNL     1       0.785  -3.472   0.162  0.00  0.00    +0.185 A 
ATOM     21  N   UNL     1       0.115  -2.864  -0.789  0.00  0.00    -0.127 NA
ATOM     22  N   UNL     1      -0.446  -3.731  -1.554  0.00  0.00    -0.121 NA
ATOM     23  C   UNL     1      -0.168  -4.946  -1.139  0.00  0.00    +0.210 A 
ATOM     24  N   UNL     1       0.630  -4.825  -0.036  0.00  0.00    -0.224 N 
BRANCH  20  30
ATOM     25  C   UNL     1       1.635  -1.430   1.315  0.00  0.00    +0.131 A 
ATOM     26  C   UNL     1       2.364  -0.833   2.331  0.00  0.00    +0.046 A 
ATOM     27  C   UNL     1       3.025  -1.615   3.260  0.00  0.00    +0.004 A 
ATOM     28  C   UNL     1       2.964  -2.995   3.183  0.00  0.00    +0.001 A 
ATOM     29  C   UNL     1       2.242  -3.604   2.178  0.00  0.00    +0.015 A 
ATOM     30  C   UNL     1       1.565  -2.826   1.238  0.00  0.00    +0.062 A 
BRANCH  25  32
ATOM     31  C   UNL     1       1.101   0.754   0.544  0.00  0.00    +0.277 C 
ATOM     32  O   UNL     1       0.985  -0.663   0.402  0.00  0.00    -0.494 OA
ENDBRANCH  25  32
ENDBRANCH  20  30
BRANCH  24  33
ATOM     33  N   UNL     1       1.161  -5.835   0.714  0.00  0.00    -0.295 N 
ATOM     34  H   UNL     1       0.537  -6.096   1.463  0.00  0.00    +0.163 HD
ATOM     35  H   UNL     1       1.387  -6.633   0.138  0.00  0.00    +0.163 HD
ENDBRANCH  24  33
ENDBRANCH  19  23
ENDBRANCH   1  19
TORSDOF 6
