REMARK  Name = ZINC12129431
REMARK  9 active torsions:
REMARK  status: ('A' for Active; 'I' for Inactive)
REMARK    1  A    between atoms: C_1  and  C_2
REMARK    2  A    between atoms: C_4  and  C_7
REMARK    3  A    between atoms: N_9  and  C_10
REMARK    4  A    between atoms: N_9  and  C_19
REMARK    5  A    between atoms: C_10  and  C_11
REMARK    6  A    between atoms: C_11  and  C_12
REMARK    7  A    between atoms: C_12  and  N_13
REMARK    8  A    between atoms: C_19  and  C_20
REMARK    9  A    between atoms: C_28  and  N_29
REMARK                            x       y       z     vdW  Elec       q    Type
REMARK                         _______ _______ _______ _____ _____    ______ ____
ROOT
ATOM      1  C   UNL     1      -3.115   0.952  -3.746  0.00  0.00    +0.008 A 
ATOM      2  C   UNL     1      -3.558   0.336  -2.615  0.00  0.00    +0.018 A 
ATOM      3  C   UNL     1      -4.838   0.672  -2.128  0.00  0.00    -0.001 A 
ATOM      4  C   UNL     1      -5.359   0.075  -0.971  0.00  0.00    +0.014 A 
ATOM      5  C   UNL     1      -6.602   0.422  -0.525  0.00  0.00    -0.043 A 
ATOM      6  C   UNL     1      -7.364   1.368  -1.209  0.00  0.00    -0.042 A 
ATOM      7  C   UNL     1      -6.885   1.965  -2.339  0.00  0.00    +0.030 A 
ATOM      8  C   UNL     1      -5.611   1.631  -2.827  0.00  0.00    +0.048 A 
ATOM      9  C   UNL     1      -3.926   1.897  -4.390  0.00  0.00    +0.104 A 
ATOM     10  C   UNL     1      -8.688   1.560  -0.499  0.00  0.00    +0.036 C 
ATOM     11  C   UNL     1      -8.838   0.330   0.420  0.00  0.00    +0.009 C 
ATOM     12  C   UNL     1      -7.372  -0.073   0.682  0.00  0.00    +0.036 C 
ATOM     13  N   UNL     1      -5.166   2.255  -3.971  0.00  0.00    -0.343 N 
ATOM     14  H   UNL     1      -5.735   2.946  -4.474  0.00  0.00    +0.167 HD
ENDROOT
BRANCH   9  15
ATOM     15  N   UNL     1      -3.460   2.520  -5.538  0.00  0.00    -0.312 N 
ATOM     16  C   UNL     1      -3.877   3.929  -5.580  0.00  0.00    +0.134 C 
ATOM     17  C   UNL     1      -3.293   4.592  -6.830  0.00  0.00    +0.178 C 
ATOM     18  O   UNL     1      -3.714   3.868  -7.989  0.00  0.00    -0.377 OA
ATOM     19  C   UNL     1      -3.324   2.492  -7.981  0.00  0.00    +0.178 C 
ATOM     20  C   UNL     1      -3.909   1.808  -6.743  0.00  0.00    +0.134 C 
ENDBRANCH   9  15
BRANCH   1  21
ATOM     21  C   UNL     1      -1.753   0.624  -4.300  0.00  0.00    +0.146 C 
BRANCH  21  24
ATOM     22  C   UNL     1      -0.436   2.654  -4.585  0.00  0.00    +0.266 C 
ATOM     23  O   UNL     1      -0.993   2.833  -5.651  0.00  0.00    -0.268 OA
ATOM     24  N   UNL     1      -0.778   1.603  -3.813  0.00  0.00    -0.292 N 
BRANCH  22  28
ATOM     25  C   UNL     1       2.786   4.424  -1.219  0.00  0.00    +0.073 C 
ATOM     26  C   UNL     1       2.067   4.341  -2.541  0.00  0.00    +0.076 A 
ATOM     27  N   UNL     1       1.133   3.504  -2.911  0.00  0.00    -0.240 NA
ATOM     28  C   UNL     1       0.613   3.585  -4.137  0.00  0.00    +0.133 A 
ATOM     29  C   UNL     1       1.088   4.572  -4.963  0.00  0.00    +0.080 A 
ATOM     30  S   UNL     1       2.267   5.338  -3.946  0.00  0.00    -0.080 S 
ENDBRANCH  22  28
BRANCH  24  31
ATOM     31  C   UNL     1      -0.176   1.440  -2.488  0.00  0.00    +0.110 C 
BRANCH  31  32
ATOM     32  C   UNL     1      -0.939   2.294  -1.473  0.00  0.00    +0.038 C 
BRANCH  32  33
ATOM     33  C   UNL     1      -0.309   2.124  -0.089  0.00  0.00    +0.109 C 
BRANCH  33  34
ATOM     34  N   UNL     1      -1.040   2.942   0.883  0.00  0.00    -0.301 N 
ATOM     35  C   UNL     1      -0.705   4.332   1.213  0.00  0.00    +0.108 C 
ATOM     36  C   UNL     1      -1.962   4.902   1.912  0.00  0.00    +0.028 C 
ATOM     37  C   UNL     1      -2.607   3.620   2.488  0.00  0.00    +0.097 C 
ATOM     38  C   UNL     1      -2.099   2.513   1.592  0.00  0.00    +0.216 C 
ATOM     39  O   UNL     1      -2.576   1.400   1.522  0.00  0.00    -0.276 OA
ENDBRANCH  33  34
ENDBRANCH  32  33
ENDBRANCH  31  32
ENDBRANCH  24  31
ENDBRANCH  21  24
ENDBRANCH   1  21
TORSDOF 8
