REMARK  Name = ZINC01673418
REMARK  7 active torsions:
REMARK  status: ('A' for Active; 'I' for Inactive)
REMARK    1  A    between atoms: C_4  and  C_7
REMARK    2  A    between atoms: N_13  and  C_14
REMARK    3  A    between atoms: C_14  and  C_16
REMARK    4  A    between atoms: C_14  and  O_20
REMARK    5  A    between atoms: N_21  and  C_22
REMARK    6  A    between atoms: C_22  and  C_24
REMARK    7  A    between atoms: C_22  and  O_28
REMARK                            x       y       z     vdW  Elec       q    Type
REMARK                         _______ _______ _______ _____ _____    ______ ____
ROOT
ATOM      1  C   UNL     1      -0.018   1.479   0.010  0.00  0.00    +0.167 A 
ATOM      2  N   UNL     1      -1.179   2.128   0.019  0.00  0.00    -0.195 NA
ATOM      3  C   UNL     1      -1.196   3.457   0.031  0.00  0.00    +0.222 A 
ATOM      4  N   UNL     1      -0.054   4.137   0.024  0.00  0.00    -0.181 NA
ATOM      5  C   UNL     1       1.106   3.489   0.010  0.00  0.00    +0.222 A 
ATOM      6  N   UNL     1       1.124   2.159   0.003  0.00  0.00    -0.195 NA
ATOM      7  N   UNL     1       2.292   4.195   0.002  0.00  0.00    -0.285 N 
ATOM      8  N   UNL     1      -2.400   4.131   0.046  0.00  0.00    -0.285 N 
ATOM      9  H   UNL     1       3.138   3.722  -0.009  0.00  0.00    +0.151 HD
ATOM     10  H   UNL     1      -3.234   3.635   0.051  0.00  0.00    +0.151 HD
ENDROOT
BRANCH   1  14
ATOM     11  C   UNL     1       0.040  -2.772  -0.014  0.00  0.00    +0.000 A 
ATOM     12  C   UNL     1      -1.169  -2.100   0.002  0.00  0.00    +0.001 A 
ATOM     13  C   UNL     1      -1.194  -0.720   0.010  0.00  0.00    +0.011 A 
ATOM     14  C   UNL     1       0.002  -0.004   0.002  0.00  0.00    +0.019 A 
ATOM     15  C   UNL     1       1.217  -0.687  -0.019  0.00  0.00    +0.011 A 
ATOM     16  C   UNL     1       1.230  -2.067  -0.021  0.00  0.00    +0.001 A 
ENDBRANCH   1  14
BRANCH   7  17
ATOM     17  C   UNL     1       2.271   5.660   0.009  0.00  0.00    +0.254 C 
BRANCH  17  18
ATOM     18  C   UNL     1       3.360   6.190  -0.926  0.00  0.00    +0.232 C 
ATOM     19 CL   UNL     1       4.971   5.608  -0.363  0.00  0.00    -0.079 Cl
ATOM     20 CL   UNL     1       3.057   5.593  -2.600  0.00  0.00    -0.079 Cl
ATOM     21 CL   UNL     1       3.335   7.993  -0.917  0.00  0.00    -0.079 Cl
ENDBRANCH  17  18
BRANCH  17  22
ATOM     22  O   UNL     1       2.511   6.133   1.336  0.00  0.00    -0.370 OA
ATOM     23  H   UNL     1       3.362   5.857   1.704  0.00  0.00    +0.212 HD
ENDBRANCH  17  22
ENDBRANCH   7  17
BRANCH   8  24
ATOM     24  C   UNL     1      -2.420   5.596   0.053  0.00  0.00    +0.254 C 
BRANCH  24  25
ATOM     25  C   UNL     1      -3.523   6.087   0.993  0.00  0.00    +0.232 C 
ATOM     26 CL   UNL     1      -5.117   5.467   0.424  0.00  0.00    -0.079 Cl
ATOM     27 CL   UNL     1      -3.204   5.481   2.662  0.00  0.00    -0.079 Cl
ATOM     28 CL   UNL     1      -3.547   7.889   1.003  0.00  0.00    -0.079 Cl
ENDBRANCH  24  25
BRANCH  24  29
ATOM     29  O   UNL     1      -2.673   6.076  -1.269  0.00  0.00    -0.370 OA
ATOM     30  H   UNL     1      -3.516   5.781  -1.640  0.00  0.00    +0.212 HD
ENDBRANCH  24  29
ENDBRANCH   8  24
TORSDOF 7
