REMARK  Name = ZINC20616166
REMARK  12 active torsions:
REMARK  status: ('A' for Active; 'I' for Inactive)
REMARK    1  A    between atoms: C_1  and  C_2
REMARK    2  A    between atoms: C_6  and  O_36
REMARK    3  A    between atoms: C_7  and  O_34
REMARK    4  A    between atoms: N_12  and  C_13
REMARK    5  A    between atoms: C_13  and  C_14
REMARK    6  A    between atoms: C_16  and  C_22
REMARK    7  A    between atoms: C_19  and  O_20
REMARK    8  A    between atoms: O_20  and  C_21
REMARK    9  A    between atoms: N_23  and  N_24
REMARK   10  A    between atoms: C_25  and  C_27
REMARK   11  A    between atoms: O_34  and  C_35
REMARK   12  A    between atoms: O_36  and  C_37
REMARK                            x       y       z     vdW  Elec       q    Type
REMARK                         _______ _______ _______ _____ _____    ______ ____
ROOT
ATOM      1  C   UNL     1      -0.129   1.506   0.385  0.00  0.00    -0.022 A 
ATOM      2  C   UNL     1      -0.137   0.132   0.275  0.00  0.00    +0.014 A 
ATOM      3  C   UNL     1       1.056  -0.584   0.397  0.00  0.00    -0.005 A 
ATOM      4  C   UNL     1       2.254   0.097   0.631  0.00  0.00    +0.013 A 
ATOM      5  C   UNL     1       2.253   1.470   0.741  0.00  0.00    +0.046 A 
ATOM      6  C   UNL     1       1.064   2.178   0.618  0.00  0.00    +0.121 A 
ENDROOT
BRANCH   6   7
ATOM      7  O   UNL     1       1.068   3.533   0.726  0.00  0.00    -0.495 OA
ATOM      8  C   UNL     1       2.329   4.161   0.966  0.00  0.00    +0.277 C 
ENDBRANCH   6   7
BRANCH   3   9
ATOM      9  C   UNL     1       1.052  -2.054   0.280  0.00  0.00    +0.138 C 
ATOM     10  N   UNL     1       2.162  -2.717   0.395  0.00  0.00    -0.187 NA
BRANCH  10  11
ATOM     11  N   UNL     1       2.158  -4.114   0.283  0.00  0.00    -0.203 N 
ATOM     12  C   UNL     1       3.310  -4.802   0.402  0.00  0.00    +0.265 C 
ATOM     13  O   UNL     1       4.353  -4.212   0.606  0.00  0.00    -0.268 OA
ATOM     14  H   UNL     1       1.214  -4.648   0.099  0.00  0.00    +0.178 HD
BRANCH  12  15
ATOM     15  C   UNL     1       3.306  -6.275   0.285  0.00  0.00    +0.057 A 
ATOM     16  C   UNL     1       2.109  -6.957   0.057  0.00  0.00    +0.014 A 
ATOM     17  C   UNL     1       2.112  -8.331  -0.056  0.00  0.00    +0.001 A 
ATOM     18  C   UNL     1       3.297  -9.036   0.066  0.00  0.00    +0.001 A 
ATOM     19  C   UNL     1       4.486  -8.369   0.296  0.00  0.00    +0.021 A 
ATOM     20  C   UNL     1       4.499  -6.992   0.407  0.00  0.00    +0.053 A 
ATOM     21 CL   UNL     1       5.992  -6.155   0.698  0.00  0.00    -0.083 Cl
ENDBRANCH  12  15
ENDBRANCH  10  11
ENDBRANCH   3   9
BRANCH   1  22
ATOM     22  C   UNL     1      -1.414   2.280   0.247  0.00  0.00    -0.038 C 
BRANCH  22  33
ATOM     23  C   UNL     1      -4.013   2.490  -1.039  0.00  0.00    -0.008 C 
ATOM     24  C   UNL     1      -2.843   3.431  -1.329  0.00  0.00    -0.040 C 
ATOM     25  C   UNL     1      -2.958   3.947  -2.740  0.00  0.00    -0.054 A 
ATOM     26  C   UNL     1      -4.210   4.330  -3.201  0.00  0.00    +0.051 A 
ATOM     27  C   UNL     1      -4.364   4.817  -4.486  0.00  0.00    +0.162 A 
ATOM     28  C   UNL     1      -3.255   4.924  -5.321  0.00  0.00    +0.162 A 
ATOM     29  C   UNL     1      -2.010   4.540  -4.858  0.00  0.00    +0.053 A 
ATOM     30  C   UNL     1      -1.861   4.051  -3.568  0.00  0.00    -0.044 A 
ATOM     31  C   UNL     1      -0.484   3.642  -3.111  0.00  0.00    +0.017 C 
ATOM     32  C   UNL     1      -0.449   3.538  -1.586  0.00  0.00    -0.073 C 
ATOM     33  N   UNL     1      -1.582   2.706  -1.149  0.00  0.00    +0.387 N 
ATOM     34  H   UNL     1      -1.613   1.800  -1.772  0.00  0.00    -0.080 HD
BRANCH  28  35
ATOM     35  O   UNL     1      -3.395   5.404  -6.586  0.00  0.00    -0.491 OA
ATOM     36  C   UNL     1      -2.213   5.486  -7.384  0.00  0.00    +0.277 C 
ENDBRANCH  28  35
BRANCH  27  37
ATOM     37  O   UNL     1      -5.593   5.191  -4.932  0.00  0.00    -0.491 OA
ATOM     38  C   UNL     1      -6.684   5.053  -4.020  0.00  0.00    +0.277 C 
ENDBRANCH  27  37
ENDBRANCH  22  33
ENDBRANCH   1  22
TORSDOF 8
