REMARK  Name = ZINC34685740
REMARK  10 active torsions:
REMARK  status: ('A' for Active; 'I' for Inactive)
REMARK    1  A    between atoms: C_1  and  C_2
REMARK    2  A    between atoms: C_2  and  C_3
REMARK    3  A    between atoms: C_2  and  C_4
REMARK    4  A    between atoms: C_12  and  O_23
REMARK    5  A    between atoms: C_15  and  C_17
REMARK    6  A    between atoms: O_23  and  C_24
REMARK    7  A    between atoms: C_24  and  C_25
REMARK    8  A    between atoms: C_28  and  C_30
REMARK    9  A    between atoms: N_35  and  C_38
REMARK   10  A    between atoms: C_38  and  C_39
REMARK                            x       y       z     vdW  Elec       q    Type
REMARK                         _______ _______ _______ _____ _____    ______ ____
ROOT
ATOM      1  C   UNL     1      -1.345  -0.806  -0.261  0.00  0.00    +0.219 C 
ATOM      2  O   UNL     1      -2.286  -0.041  -0.265  0.00  0.00    -0.275 OA
ATOM      3  N   UNL     1      -1.528  -2.098   0.076  0.00  0.00    -0.290 N 
ATOM      4  C   UNL     1      -0.393  -3.029   0.184  0.00  0.00    +0.113 C 
ATOM      5  C   UNL     1      -0.292  -3.481   1.640  0.00  0.00    +0.054 C 
ATOM      6  C   UNL     1      -1.641  -3.895   2.167  0.00  0.00    -0.040 A 
ATOM      7  C   UNL     1      -1.669  -4.714   3.290  0.00  0.00    +0.007 A 
ATOM      8  C   UNL     1      -2.868  -5.123   3.833  0.00  0.00    +0.046 A 
ATOM      9  C   UNL     1      -4.061  -4.713   3.254  0.00  0.00    +0.121 A 
ATOM     10  C   UNL     1      -4.034  -3.901   2.133  0.00  0.00    +0.051 A 
ATOM     11  C   UNL     1      -2.825  -3.495   1.587  0.00  0.00    -0.016 A 
ATOM     12  C   UNL     1      -2.865  -2.631   0.357  0.00  0.00    +0.137 C 
ENDROOT
BRANCH  12  13
ATOM     13  C   UNL     1      -3.824  -1.489   0.579  0.00  0.00    -0.023 A 
ATOM     14  C   UNL     1      -3.630  -0.620   1.636  0.00  0.00    +0.006 A 
ATOM     15  C   UNL     1      -4.508   0.428   1.840  0.00  0.00    +0.000 A 
ATOM     16  C   UNL     1      -5.581   0.606   0.987  0.00  0.00    +0.000 A 
ATOM     17  C   UNL     1      -5.775  -0.263  -0.071  0.00  0.00    +0.000 A 
ATOM     18  C   UNL     1      -4.894  -1.308  -0.277  0.00  0.00    +0.006 A 
ENDBRANCH  12  13
BRANCH   1  20
ATOM     19  C   UNL     1      -0.073   1.109  -1.192  0.00  0.00    +0.017 C 
ATOM     20  C   UNL     1       0.029  -0.312  -0.633  0.00  0.00    +0.069 C 
ATOM     21  C   UNL     1       0.923  -0.308   0.609  0.00  0.00    +0.017 C 
ENDBRANCH   1  20
BRANCH   9  22
ATOM     22  O   UNL     1      -5.249  -5.108   3.784  0.00  0.00    -0.484 OA
BRANCH  22  23
ATOM     23  C   UNL     1      -5.197  -5.946   4.940  0.00  0.00    +0.303 C 
BRANCH  23  24
ATOM     24  C   UNL     1      -6.599  -6.279   5.382  0.00  0.00    +0.143 A 
ATOM     25  C   UNL     1      -7.321  -7.345   4.972  0.00  0.00    +0.049 A 
ATOM     26  C   UNL     1      -8.563  -7.277   5.624  0.00  0.00    +0.055 A 
ATOM     27  C   UNL     1      -8.535  -6.160   6.408  0.00  0.00    +0.190 A 
ATOM     28  O   UNL     1      -7.331  -5.570   6.251  0.00  0.00    -0.452 OA
BRANCH  27  29
ATOM     29  C   UNL     1      -9.620  -5.686   7.272  0.00  0.00    +0.282 C 
ATOM     30  O   UNL     1     -10.615  -6.370   7.430  0.00  0.00    -0.267 OA
ATOM     31  N   UNL     1      -9.517  -4.494   7.893  0.00  0.00    -0.299 N 
ATOM     32  C   UNL     1      -8.388  -3.592   7.615  0.00  0.00    +0.089 C 
ATOM     33  C   UNL     1      -8.945  -2.200   7.299  0.00  0.00    -0.059 C 
ATOM     34  N   UNL     1      -9.815  -1.762   8.398  0.00  0.00    +0.384 N 
ATOM     35  C   UNL     1     -10.985  -2.643   8.492  0.00  0.00    -0.059 C 
ATOM     36  C   UNL     1     -10.532  -4.055   8.862  0.00  0.00    +0.089 C 
ATOM     37  H   UNL     1      -9.300  -1.794   9.266  0.00  0.00    -0.081 HD
BRANCH  34  38
ATOM     38  C   UNL     1     -10.260  -0.384   8.148  0.00  0.00    -0.052 C 
BRANCH  38  39
ATOM     39  C   UNL     1     -11.051   0.111   9.331  0.00  0.00    -0.053 C 
ATOM     40  C   UNL     1     -10.703   1.220   9.934  0.00  0.00    +0.002 C 
ENDBRANCH  38  39
ENDBRANCH  34  38
ENDBRANCH  27  29
ENDBRANCH  23  24
ENDBRANCH  22  23
ENDBRANCH   9  22
TORSDOF 8
