REMARK  Name = ZINC34380625
REMARK  10 active torsions:
REMARK  status: ('A' for Active; 'I' for Inactive)
REMARK    1  A    between atoms: C_1  and  C_2
REMARK    2  A    between atoms: C_5  and  N_9
REMARK    3  A    between atoms: C_14  and  C_29
REMARK    4  A    between atoms: C_17  and  C_22
REMARK    5  A    between atoms: C_17  and  C_26
REMARK    6  A    between atoms: C_22  and  C_24
REMARK    7  A    between atoms: C_22  and  O_25
REMARK    8  A    between atoms: C_33  and  O_36
REMARK    9  A    between atoms: C_34  and  O_35
REMARK   10  A    between atoms: O_36  and  C_37
REMARK                            x       y       z     vdW  Elec       q    Type
REMARK                         _______ _______ _______ _____ _____    ______ ____
ROOT
ATOM      1  N   UNL     1      -0.303  -4.307   0.317  0.00  0.00    -0.210 N 
ATOM      2  C   UNL     1      -0.249  -4.940  -0.900  0.00  0.00    +0.229 C 
ATOM      3  O   UNL     1      -0.123  -4.432  -1.994  0.00  0.00    -0.275 OA
ATOM      4  C   UNL     1      -0.376  -6.343  -0.592  0.00  0.00    +0.077 C 
ATOM      5  C   UNL     1      -0.090  -7.666  -1.174  0.00  0.00    -0.023 C 
ATOM      6  N   UNL     1      -0.334  -8.583  -0.007  0.00  0.00    +0.397 N 
ATOM      7  C   UNL     1      -0.179  -7.782   1.244  0.00  0.00    +0.074 C 
ATOM      8  C   UNL     1       0.401  -6.436   0.782  0.00  0.00    +0.089 C 
ATOM      9  C   UNL     1      -0.157  -5.169   1.367  0.00  0.00    +0.229 C 
ATOM     10  O   UNL     1      -0.424  -4.957   2.530  0.00  0.00    -0.275 OA
ATOM     11  H   UNL     1      -1.269  -8.959  -0.058  0.00  0.00    -0.083 HD
ATOM     12  H   UNL     1       0.339  -9.335  -0.017  0.00  0.00    -0.083 HD
ENDROOT
BRANCH   1  17
ATOM     13  C   UNL     1      -1.035   1.290   0.918  0.00  0.00    +0.045 C 
ATOM     14  C   UNL     1      -0.841  -0.196   0.759  0.00  0.00    -0.032 A 
ATOM     15  C   UNL     1      -0.803  -0.756  -0.505  0.00  0.00    +0.006 A 
ATOM     16  C   UNL     1      -0.625  -2.117  -0.654  0.00  0.00    +0.024 A 
ATOM     17  C   UNL     1      -0.484  -2.925   0.466  0.00  0.00    +0.045 A 
ATOM     18  C   UNL     1      -0.522  -2.362   1.734  0.00  0.00    +0.044 A 
ATOM     19  C   UNL     1      -0.695  -0.998   1.877  0.00  0.00    +0.046 A 
ATOM     20 CL   UNL     1      -0.737  -0.290   3.462  0.00  0.00    -0.083 Cl
ENDBRANCH   1  17
BRANCH   5  21
ATOM     21  C   UNL     1      -1.036  -7.971  -2.306  0.00  0.00    -0.015 A 
ATOM     22  C   UNL     1      -2.223  -8.635  -2.055  0.00  0.00    +0.006 A 
ATOM     23  C   UNL     1      -3.094  -8.916  -3.091  0.00  0.00    +0.004 A 
ATOM     24  C   UNL     1      -2.781  -8.536  -4.383  0.00  0.00    +0.049 A 
ATOM     25  C   UNL     1      -1.594  -7.870  -4.641  0.00  0.00    +0.161 A 
ATOM     26  C   UNL     1      -0.720  -7.581  -3.597  0.00  0.00    +0.160 A 
BRANCH  26  27
ATOM     27  O   UNL     1       0.444  -6.924  -3.845  0.00  0.00    -0.503 OA
ATOM     28  H   UNL     1       1.189  -7.506  -4.049  0.00  0.00    +0.292 HD
ENDBRANCH  26  27
BRANCH  25  29
ATOM     29  O   UNL     1      -1.285  -7.495  -5.912  0.00  0.00    -0.491 OA
ATOM     30  C   UNL     1      -2.231  -7.820  -6.932  0.00  0.00    +0.277 C 
ENDBRANCH  25  29
ENDBRANCH   5  21
BRANCH   7  31
ATOM     31  C   UNL     1       0.787  -8.459   2.181  0.00  0.00    +0.349 C 
ATOM     32  O   UNL     1       1.291  -9.525   1.871  0.00  0.00    -0.248 OA
ATOM     33  O   UNL     1       1.066  -7.941   3.249  0.00  0.00    -0.248 OA
ENDBRANCH   7  31
BRANCH   7  34
ATOM     34  C   UNL     1      -1.536  -7.595   1.925  0.00  0.00    +0.112 C 
ATOM     35  C   UNL     1      -2.106  -8.962   2.310  0.00  0.00    +0.037 C 
BRANCH  34  36
ATOM     36  O   UNL     1      -1.374  -6.799   3.100  0.00  0.00    -0.393 OA
ATOM     37  H   UNL     1      -2.196  -6.640   3.584  0.00  0.00    +0.210 HD
ENDBRANCH  34  36
ENDBRANCH   7  34
TORSDOF 7
