REMARK  Name = ZINC06195740
REMARK  10 active torsions:
REMARK  status: ('A' for Active; 'I' for Inactive)
REMARK    1  A    between atoms: C_1  and  C_2
REMARK    2  A    between atoms: C_2  and  O_3
REMARK    3  A    between atoms: O_3  and  C_4
REMARK    4  A    between atoms: C_6  and  C_12
REMARK    5  A    between atoms: C_9  and  O_10
REMARK    6  A    between atoms: C_22  and  C_35
REMARK    7  A    between atoms: C_23  and  C_24
REMARK    8  A    between atoms: N_26  and  C_27
REMARK    9  A    between atoms: C_32  and  O_33
REMARK   10  A    between atoms: O_33  and  C_34
REMARK                            x       y       z     vdW  Elec       q    Type
REMARK                         _______ _______ _______ _____ _____    ______ ____
ROOT
ATOM      1  C   UNL     1       5.936   3.672   0.294  0.00  0.00    +0.072 C 
ATOM      2  C   UNL     1       7.249   4.211   0.810  0.00  0.00    +0.111 C 
ATOM      3  C   UNL     1       8.370   3.462   0.754  0.00  0.00    +0.030 C 
ATOM      4  C   UNL     1       9.691   4.002   1.243  0.00  0.00    +0.052 C 
ATOM      5  C   UNL     1       9.452   4.991   2.384  0.00  0.00    +0.013 C 
ATOM      6  C   UNL     1       8.543   6.114   1.874  0.00  0.00    +0.075 C 
ATOM      7  C   UNL     1       7.272   5.513   1.341  0.00  0.00    +0.143 C 
ATOM      8  O   UNL     1       6.246   6.163   1.369  0.00  0.00    -0.297 OA
ATOM      9  N   UNL     1       8.332   2.190   0.249  0.00  0.00    -0.260 NA
ATOM     10  C   UNL     1       7.146   1.514   0.152  0.00  0.00    +0.047 C 
ATOM     11  C   UNL     1       5.979   2.177   0.179  0.00  0.00    +0.044 C 
ATOM     12  C   UNL     1       7.149   0.013   0.022  0.00  0.00    +0.066 C 
ENDROOT
BRANCH   1  15
ATOM     13  C   UNL     1       4.258   5.588  -2.496  0.00  0.00    +0.163 A 
ATOM     14  C   UNL     1       4.520   5.037  -1.252  0.00  0.00    +0.053 A 
ATOM     15  C   UNL     1       5.650   4.265  -1.062  0.00  0.00    -0.034 A 
ATOM     16  C   UNL     1       6.516   4.030  -2.114  0.00  0.00    +0.023 A 
ATOM     17  C   UNL     1       6.258   4.572  -3.360  0.00  0.00    +0.063 A 
ATOM     18  C   UNL     1       5.129   5.352  -3.555  0.00  0.00    +0.173 A 
ATOM     19 BR   UNL     1       7.445   4.250  -4.796  0.00  0.00    -0.046 Br
BRANCH  18  20
ATOM     20  O   UNL     1       4.873   5.886  -4.780  0.00  0.00    -0.503 OA
ATOM     21  H   UNL     1       4.338   5.319  -5.353  0.00  0.00    +0.292 HD
ENDBRANCH  18  20
BRANCH  13  22
ATOM     22  O   UNL     1       3.149   6.353  -2.683  0.00  0.00    -0.489 OA
BRANCH  22  24
ATOM     23  C   UNL     1       1.113   7.431  -1.952  0.00  0.00    +0.048 C 
ATOM     24  C   UNL     1       2.300   6.552  -1.551  0.00  0.00    +0.226 C 
ENDBRANCH  22  24
ENDBRANCH  13  22
ENDBRANCH   1  15
BRANCH  11  25
ATOM     25  C   UNL     1       4.766   1.451   0.093  0.00  0.00    +0.247 C 
ATOM     26  O   UNL     1       4.782   0.234   0.097  0.00  0.00    -0.270 OA
ATOM     27  N   UNL     1       3.592   2.109   0.008  0.00  0.00    -0.279 N 
ATOM     28  H   UNL     1       3.582   3.076  -0.058  0.00  0.00    +0.155 HD
BRANCH  27  29
ATOM     29  C   UNL     1       2.387   1.395   0.016  0.00  0.00    +0.076 A 
ATOM     30  C   UNL     1       2.315   0.147  -0.586  0.00  0.00    +0.027 A 
ATOM     31  C   UNL     1       1.125  -0.556  -0.577  0.00  0.00    +0.002 A 
ATOM     32  C   UNL     1       0.005  -0.019   0.031  0.00  0.00    +0.004 A 
ATOM     33  C   UNL     1       0.070   1.224   0.632  0.00  0.00    +0.047 A 
ATOM     34  C   UNL     1       1.258   1.936   0.627  0.00  0.00    +0.141 A 
BRANCH  34  35
ATOM     35  O   UNL     1       1.323   3.159   1.217  0.00  0.00    -0.493 OA
ATOM     36  C   UNL     1       0.127   3.651   1.824  0.00  0.00    +0.277 C 
ENDBRANCH  34  35
ENDBRANCH  27  29
ENDBRANCH  11  25
TORSDOF 7
