REMARK  Name = ZINC20505965
REMARK  6 active torsions:
REMARK  status: ('A' for Active; 'I' for Inactive)
REMARK    1  A    between atoms: C_1  and  C_2
REMARK    2  A    between atoms: C_2  and  C_3
REMARK    3  A    between atoms: C_2  and  C_4
REMARK    4  A    between atoms: C_4  and  C_6
REMARK    5  A    between atoms: C_4  and  N_18
REMARK    6  A    between atoms: N_8  and  C_9
REMARK                            x       y       z     vdW  Elec       q    Type
REMARK                         _______ _______ _______ _____ _____    ______ ____
ROOT
ATOM      1  C   UNL     1      -1.221  -2.007  -0.396  0.00  0.00    +0.203 C 
ATOM      2  O   UNL     1      -0.184  -2.569  -0.682  0.00  0.00    -0.277 OA
ATOM      3  N   UNL     1      -1.200  -0.722   0.010  0.00  0.00    -0.285 N 
ATOM      4  H   UNL     1      -2.130  -0.235   0.341  0.00  0.00    +0.155 HD
ENDROOT
BRANCH   3   5
ATOM      5  C   UNL     1       0.004  -0.007   0.011  0.00  0.00    +0.070 A 
ATOM      6  C   UNL     1       0.468   0.577  -1.161  0.00  0.00    +0.065 A 
ATOM      7  C   UNL     1       1.657   1.282  -1.156  0.00  0.00    +0.037 A 
ATOM      8  C   UNL     1       2.384   1.407   0.014  0.00  0.00    +0.021 A 
ATOM      9  C   UNL     1       1.924   0.827   1.183  0.00  0.00    +0.037 A 
ATOM     10  C   UNL     1       0.737   0.121   1.185  0.00  0.00    +0.065 A 
ATOM     11 CL   UNL     1       0.160  -0.607   2.652  0.00  0.00    -0.082 Cl
ATOM     12 BR   UNL     1       4.009   2.374   0.016  0.00  0.00    -0.050 Br
ATOM     13 CL   UNL     1      -0.440   0.414  -2.631  0.00  0.00    -0.082 Cl
ENDBRANCH   3   5
BRANCH   1  14
ATOM     14  C   UNL     1      -2.530  -2.746  -0.494  0.00  0.00    +0.016 C 
BRANCH  14  15
ATOM     15  N   UNL     1      -2.279  -4.193  -0.481  0.00  0.00    +0.386 N 
ATOM     16  H   UNL     1      -1.772  -4.468   0.456  0.00  0.00    -0.089 HD
ATOM     17  H   UNL     1      -1.641  -4.463  -1.335  0.00  0.00    -0.089 HD
ATOM     18  H   UNL     1      -3.235  -4.732  -0.553  0.00  0.00    -0.089 HD
ENDBRANCH  14  15
BRANCH  14  20
ATOM     19  C   UNL     1      -4.565  -3.113  -1.898  0.00  0.00    +0.006 C 
ATOM     20  C   UNL     1      -3.235  -2.363  -1.798  0.00  0.00    -0.023 C 
ATOM     21  C   UNL     1      -3.497  -0.856  -1.812  0.00  0.00    +0.006 C 
ENDBRANCH  14  20
ENDBRANCH   1  14
TORSDOF 4
