REMARK  Name = ZINC05208567
REMARK  7 active torsions:
REMARK  status: ('A' for Active; 'I' for Inactive)
REMARK    1  A    between atoms: C_3  and  C_6
REMARK    2  A    between atoms: C_11  and  O_30
REMARK    3  A    between atoms: C_17  and  N_18
REMARK    4  A    between atoms: N_19  and  C_22
REMARK    5  A    between atoms: C_22  and  C_23
REMARK    6  A    between atoms: C_23  and  C_24
REMARK    7  A    between atoms: C_24  and  N_25
REMARK                            x       y       z     vdW  Elec       q    Type
REMARK                         _______ _______ _______ _____ _____    ______ ____
ROOT
ATOM      1  C   UNL     1       3.714   0.756  -0.006  0.00  0.00    +0.127 C 
ATOM      2  C   UNL     1       4.234   0.005  -1.202  0.00  0.00    +0.010 A 
ATOM      3  C   UNL     1       3.668   0.236  -2.444  0.00  0.00    +0.012 A 
ATOM      4  C   UNL     1       4.128  -0.440  -3.557  0.00  0.00    +0.046 A 
ATOM      5  C   UNL     1       5.164  -1.355  -3.432  0.00  0.00    +0.120 A 
ATOM      6  C   UNL     1       5.733  -1.589  -2.191  0.00  0.00    +0.092 A 
ATOM      7  C   UNL     1       5.268  -0.908  -1.072  0.00  0.00    +0.138 A 
ATOM      8  O   UNL     1       5.839  -1.153   0.133  0.00  0.00    -0.437 OA
ATOM      9  C   UNL     1       5.186  -0.833   1.269  0.00  0.00    +0.229 A 
ATOM     10  C   UNL     1       4.149   0.079   1.262  0.00  0.00    +0.067 A 
ATOM     11  C   UNL     1       3.510   0.367   2.465  0.00  0.00    +0.107 A 
ATOM     12  N   UNL     1       3.920  -0.249   3.573  0.00  0.00    -0.320 N 
ATOM     13  C   UNL     1       4.912  -1.115   3.535  0.00  0.00    +0.204 A 
ATOM     14  N   UNL     1       5.537  -1.403   2.422  0.00  0.00    -0.202 NA
ENDROOT
BRANCH   1  17
ATOM     15  C   UNL     1       0.106   1.473  -0.238  0.00  0.00    +0.041 A 
ATOM     16  C   UNL     1       1.457   1.890  -0.269  0.00  0.00    +0.045 A 
ATOM     17  C   UNL     1       2.208   0.795  -0.058  0.00  0.00    +0.117 A 
ATOM     18  O   UNL     1       1.389  -0.258   0.098  0.00  0.00    -0.467 OA
ATOM     19  C   UNL     1       0.113   0.147  -0.011  0.00  0.00    +0.195 A 
ENDBRANCH   1  17
BRANCH  11  20
ATOM     20  N   UNL     1       2.466   1.277   2.510  0.00  0.00    -0.344 N 
ATOM     21  H   UNL     1       1.836   1.257   3.247  0.00  0.00    +0.144 HD
ATOM     22  H   UNL     1       2.366   1.935   1.803  0.00  0.00    +0.144 HD
ENDBRANCH  11  20
BRANCH   5  23
ATOM     23  O   UNL     1       5.619  -2.022  -4.525  0.00  0.00    -0.507 OA
ATOM     24  H   UNL     1       6.337  -1.572  -4.990  0.00  0.00    +0.292 HD
ENDBRANCH   5  23
BRANCH  12  25
ATOM     25  C   UNL     1       3.261   0.042   4.849  0.00  0.00    +0.126 C 
BRANCH  25  26
ATOM     26  C   UNL     1       2.017  -0.838   4.992  0.00  0.00    +0.043 C 
BRANCH  26  27
ATOM     27  C   UNL     1       1.329  -0.535   6.324  0.00  0.00    +0.124 C 
BRANCH  27  28
ATOM     28  N   UNL     1       0.138  -1.378   6.461  0.00  0.00    -0.338 N 
ATOM     29  C   UNL     1      -1.128  -1.069   6.041  0.00  0.00    +0.104 A 
ATOM     30  C   UNL     1      -1.911  -2.117   6.362  0.00  0.00    +0.101 A 
ATOM     31  N   UNL     1      -1.145  -3.040   6.961  0.00  0.00    -0.352 N 
ATOM     32  C   UNL     1       0.085  -2.606   7.020  0.00  0.00    +0.173 A 
ATOM     33  H   UNL     1      -1.454  -3.896   7.295  0.00  0.00    +0.166 HD
ENDBRANCH  27  28
ENDBRANCH  26  27
ENDBRANCH  25  26
ENDBRANCH  12  25
TORSDOF 7
