REMARK  Name = ZINC39683733
REMARK  8 active torsions:
REMARK  status: ('A' for Active; 'I' for Inactive)
REMARK    1  A    between atoms: C_4  and  C_7
REMARK    2  A    between atoms: C_7  and  C_8
REMARK    3  A    between atoms: C_8  and  C_9
REMARK    4  A    between atoms: C_9  and  C_10
REMARK    5  A    between atoms: C_14  and  C_23
REMARK    6  A    between atoms: N_25  and  C_26
REMARK    7  A    between atoms: C_26  and  C_27
REMARK    8  A    between atoms: C_27  and  C_28
REMARK                            x       y       z     vdW  Elec       q    Type
REMARK                         _______ _______ _______ _____ _____    ______ ____
ROOT
ATOM      1  C   UNL     1       5.961  -2.003   2.956  0.00  0.00    +0.216 C 
ATOM      2  O   UNL     1       5.331  -1.587   3.905  0.00  0.00    -0.276 OA
ATOM      3  N   UNL     1       7.142  -2.623   3.151  0.00  0.00    -0.300 N 
ATOM      4  C   UNL     1       8.051  -3.188   2.126  0.00  0.00    +0.121 C 
ATOM      5  C   UNL     1       9.470  -2.836   2.626  0.00  0.00    +0.100 C 
ATOM      6  C   UNL     1       9.315  -2.646   4.144  0.00  0.00    -0.004 C 
ATOM      7  C   UNL     1       7.828  -2.889   4.438  0.00  0.00    +0.115 C 
ATOM      8  C   UNL     1      10.175  -3.659   4.893  0.00  0.00    -0.010 C 
ATOM      9  C   UNL     1      10.050  -3.413   6.399  0.00  0.00    -0.082 C 
ATOM     10  N   UNL     1      10.485  -2.046   6.712  0.00  0.00    +0.379 N 
ATOM     11  C   UNL     1       9.595  -1.077   6.061  0.00  0.00    -0.082 C 
ATOM     12  C   UNL     1       9.701  -1.224   4.540  0.00  0.00    -0.010 C 
ATOM     13  H   UNL     1      10.459  -1.906   7.711  0.00  0.00    -0.086 HD
ATOM     14  H   UNL     1      11.428  -1.910   6.380  0.00  0.00    -0.086 HD
ENDROOT
BRANCH   5  15
ATOM     15  C   UNL     1      10.425  -3.963   2.330  0.00  0.00    +0.218 C 
ATOM     16  O   UNL     1      10.025  -5.107   2.307  0.00  0.00    -0.275 OA
ATOM     17  N   UNL     1      11.725  -3.699   2.090  0.00  0.00    -0.315 N 
ATOM     18  H   UNL     1      12.046  -2.784   2.108  0.00  0.00    +0.149 HD
BRANCH  17  19
ATOM     19  C   UNL     1      12.654  -4.795   1.803  0.00  0.00    +0.109 C 
BRANCH  19  20
ATOM     20  C   UNL     1      14.056  -4.228   1.570  0.00  0.00    +0.055 C 
BRANCH  20  21
ATOM     21  C   UNL     1      15.011  -5.355   1.275  0.00  0.00    -0.032 A 
ATOM     22  C   UNL     1      15.759  -5.913   2.295  0.00  0.00    +0.005 A 
ATOM     23  C   UNL     1      16.636  -6.947   2.024  0.00  0.00    +0.000 A 
ATOM     24  C   UNL     1      16.764  -7.424   0.733  0.00  0.00    +0.001 A 
ATOM     25  C   UNL     1      16.017  -6.867  -0.288  0.00  0.00    +0.015 A 
ATOM     26  C   UNL     1      15.136  -5.835  -0.016  0.00  0.00    +0.021 A 
ATOM     27 BR   UNL     1      14.108  -5.078  -1.411  0.00  0.00    -0.050 Br
ENDBRANCH  20  21
ENDBRANCH  19  20
ENDBRANCH  17  19
ENDBRANCH   5  15
BRANCH   1  28
ATOM     28  C   UNL     1       5.424  -1.827   1.559  0.00  0.00    +0.096 C 
BRANCH  28  29
ATOM     29  C   UNL     1       4.080  -1.098   1.618  0.00  0.00    +0.014 C 
BRANCH  29  30
ATOM     30  C   UNL     1       3.535  -0.919   0.200  0.00  0.00    +0.035 C 
BRANCH  30  34
ATOM     31  C   UNL     1      -0.218   1.115   0.361  0.00  0.00    +0.000 A 
ATOM     32  C   UNL     1       0.955   1.837   0.251  0.00  0.00    +0.000 A 
ATOM     33  C   UNL     1       2.170   1.179   0.199  0.00  0.00    +0.003 A 
ATOM     34  C   UNL     1       2.211  -0.201   0.258  0.00  0.00    -0.047 A 
ATOM     35  C   UNL     1       1.037  -0.924   0.369  0.00  0.00    +0.003 A 
ATOM     36  C   UNL     1      -0.177  -0.266   0.419  0.00  0.00    +0.000 A 
ENDBRANCH  30  34
ENDBRANCH  29  30
ENDBRANCH  28  29
ENDBRANCH   1  28
TORSDOF 8
