REMARK  Name = ZINC22049292
REMARK  12 active torsions:
REMARK  status: ('A' for Active; 'I' for Inactive)
REMARK    1  A    between atoms: C_1  and  C_2
REMARK    2  A    between atoms: C_2  and  C_3
REMARK    3  A    between atoms: C_3  and  C_39
REMARK    4  A    between atoms: C_5  and  O_27
REMARK    5  A    between atoms: C_7  and  C_26
REMARK    6  A    between atoms: C_8  and  C_25
REMARK    7  A    between atoms: C_19  and  C_24
REMARK    8  A    between atoms: C_21  and  O_23
REMARK    9  A    between atoms: O_27  and  C_28
REMARK   10  A    between atoms: C_28  and  C_30
REMARK   11  A    between atoms: C_30  and  S_31
REMARK   12  A    between atoms: S_31  and  C_32
REMARK                            x       y       z     vdW  Elec       q    Type
REMARK                         _______ _______ _______ _____ _____    ______ ____
ROOT
ATOM      1  C   UNL     1      -1.211   0.291  -2.144  0.00  0.00    -0.003 C 
ATOM      2  C   UNL     1       0.053  -0.413  -2.501  0.00  0.00    +0.054 C 
ATOM      3  C   UNL     1       1.052  -1.073  -1.608  0.00  0.00    +0.184 C 
ATOM      4  C   UNL     1       2.376  -0.352  -1.292  0.00  0.00    +0.018 C 
ATOM      5  C   UNL     1       2.847   0.613  -2.365  0.00  0.00    -0.004 C 
ATOM      6  C   UNL     1       2.015   1.873  -2.491  0.00  0.00    +0.004 C 
ATOM      7  C   UNL     1       1.706   2.558  -1.166  0.00  0.00    +0.008 C 
ATOM      8  C   UNL     1       1.273   1.591  -0.088  0.00  0.00    -0.014 C 
ATOM      9  C   UNL     1       2.268   0.451   0.011  0.00  0.00    +0.071 C 
ATOM     10  C   UNL     1       1.956  -0.249   1.295  0.00  0.00    +0.138 C 
ATOM     11  O   UNL     1       1.954  -1.422   1.547  0.00  0.00    -0.297 OA
ATOM     12  C   UNL     1       1.641   0.927   2.234  0.00  0.00    +0.075 C 
ATOM     13  C   UNL     1       1.575   2.188   1.329  0.00  0.00    +0.015 C 
ATOM     14  C   UNL     1      -0.150   1.139  -0.159  0.00  0.00    +0.022 C 
ATOM     15  C   UNL     1      -0.816   1.631  -1.441  0.00  0.00    +0.124 C 
ATOM     16  C   UNL     1      -0.998   1.668   1.012  0.00  0.00    +0.010 C 
ATOM     17  C   UNL     1       3.014  -0.087  -3.712  0.00  0.00    +0.008 C 
ATOM     18  C   UNL     1       3.474  -1.425  -1.107  0.00  0.00    +0.016 C 
ATOM     19  C   UNL     1      -2.143  -0.580  -1.307  0.00  0.00    +0.014 C 
ENDROOT
BRANCH   1  21
ATOM     20  C   UNL     1      -1.069   1.550  -4.316  0.00  0.00    +0.004 C 
ATOM     21  C   UNL     1      -1.951   0.638  -3.460  0.00  0.00    +0.006 C 
ENDBRANCH   1  21
BRANCH  15  22
ATOM     22  O   UNL     1      -1.982   2.418  -1.136  0.00  0.00    -0.391 OA
ATOM     23  H   UNL     1      -1.874   3.393  -0.639  0.00  0.00    +0.210 HD
ENDBRANCH  15  22
BRANCH   3  24
ATOM     24  O   UNL     1       1.390  -2.372  -2.203  0.00  0.00    -0.460 OA
BRANCH  24  25
ATOM     25  C   UNL     1       0.527  -3.380  -1.997  0.00  0.00    +0.318 C 
ATOM     26  O   UNL     1      -0.474  -3.194  -1.346  0.00  0.00    -0.250 OA
BRANCH  25  27
ATOM     27  C   UNL     1       0.807  -4.742  -2.576  0.00  0.00    +0.197 C 
BRANCH  27  28
ATOM     28  S   UNL     1      -0.533  -5.878  -2.126  0.00  0.00    -0.073 S 
BRANCH  28  29
ATOM     29  C   UNL     1      -0.064  -7.406  -2.868  0.00  0.00    +0.211 A 
ATOM     30  N   UNL     1      -0.761  -8.580  -2.800  0.00  0.00    -0.188 NA
ATOM     31  H   UNL     1       1.841  -9.353  -4.591  0.00  0.00    +0.192 HD
ATOM     32  C   UNL     1      -0.067  -9.524  -3.502  0.00  0.00    +0.209 A 
ATOM     33  N   UNL     1       1.014  -8.960  -3.980  0.00  0.00    -0.246 N 
ATOM     34  N   UNL     1       1.015  -7.617  -3.581  0.00  0.00    -0.144 NA
ATOM     35  N   UNL     1      -0.442 -10.850  -3.677  0.00  0.00    -0.328 N 
ATOM     36  H   UNL     1       0.194 -11.529  -4.264  0.00  0.00    +0.145 HD
ATOM     37  H   UNL     1      -1.376 -11.221  -3.229  0.00  0.00    +0.145 HD
ENDBRANCH  28  29
ENDBRANCH  27  28
ENDBRANCH  25  27
ENDBRANCH  24  25
ENDBRANCH   3  24
TORSDOF 7
