REMARK  Name = ZINC22178089
REMARK  6 active torsions:
REMARK  status: ('A' for Active; 'I' for Inactive)
REMARK    1  A    between atoms: C_1  and  C_2
REMARK    2  A    between atoms: C_5  and  C_7
REMARK    3  A    between atoms: N_9  and  C_10
REMARK    4  A    between atoms: C_15  and  C_16
REMARK    5  A    between atoms: C_16  and  C_18
REMARK    6  A    between atoms: C_16  and  N_19
REMARK                            x       y       z     vdW  Elec       q    Type
REMARK                         _______ _______ _______ _____ _____    ______ ____
ROOT
ATOM      1  C   UNL     1      -0.789   4.171  -2.530  0.00  0.00    +0.035 A 
ATOM      2  C   UNL     1      -1.140   3.387  -3.621  0.00  0.00    +0.023 A 
ATOM      3  C   UNL     1      -1.446   3.984  -4.828  0.00  0.00    +0.002 A 
ATOM      4  C   UNL     1      -1.403   5.361  -4.951  0.00  0.00    +0.000 A 
ATOM      5  C   UNL     1      -1.054   6.144  -3.866  0.00  0.00    +0.004 A 
ATOM      6  C   UNL     1      -0.752   5.553  -2.655  0.00  0.00    -0.041 A 
ENDROOT
BRANCH   1   9
ATOM      7  C   UNL     1      -0.974   2.352  -1.008  0.00  0.00    +0.221 C 
ATOM      8  O   UNL     1      -1.767   1.821  -1.756  0.00  0.00    -0.275 OA
ATOM      9  N   UNL     1      -0.478   3.569  -1.305  0.00  0.00    -0.285 N 
ATOM     10  H   UNL     1       0.170   4.090  -0.585  0.00  0.00    +0.155 HD
BRANCH   7  14
ATOM     11  C   UNL     1      -2.131  -0.292  -0.487  0.00  0.00    +0.008 C 
ATOM     12  C   UNL     1      -1.139   0.270   0.534  0.00  0.00    -0.002 C 
ATOM     13  C   UNL     1       0.324   0.396   0.103  0.00  0.00    +0.017 C 
ATOM     14  C   UNL     1      -0.541   1.649   0.253  0.00  0.00    +0.078 C 
ENDBRANCH   7  14
ENDBRANCH   1   9
BRANCH   6  15
ATOM     15  C   UNL     1      -0.378   6.408  -1.472  0.00  0.00    -0.046 C 
ATOM     16  C   UNL     1       1.146   6.522  -1.386  0.00  0.00    -0.009 C 
BRANCH  15  17
ATOM     17  N   UNL     1      -0.961   7.747  -1.631  0.00  0.00    +0.383 N 
ATOM     18  H   UNL     1      -0.688   8.371  -0.767  0.00  0.00    -0.089 HD
ATOM     19  H   UNL     1      -2.056   7.665  -1.692  0.00  0.00    -0.089 HD
ATOM     20  H   UNL     1      -0.575   8.208  -2.552  0.00  0.00    -0.089 HD
ENDBRANCH  15  17
ENDBRANCH   6  15
TORSDOF 4
