REMARK  Name = ZINC35571896
REMARK  5 active torsions:
REMARK  status: ('A' for Active; 'I' for Inactive)
REMARK    1  A    between atoms: C_1  and  C_2
REMARK    2  A    between atoms: C_2  and  N_3
REMARK    3  A    between atoms: N_3  and  C_4
REMARK    4  A    between atoms: C_4  and  C_6
REMARK    5  A    between atoms: C_4  and  C_12
REMARK                            x       y       z     vdW  Elec       q    Type
REMARK                         _______ _______ _______ _____ _____    ______ ____
ROOT
ATOM      1  C   UNL     1       0.733  -1.960   1.184  0.00  0.00    +0.028 C 
ENDROOT
BRANCH   1   2
ATOM      2  C   UNL     1       1.352  -2.461   2.463  0.00  0.00    -0.035 A 
ATOM      3  C   UNL     1       2.150  -1.622   3.223  0.00  0.00    +0.009 A 
ATOM      4  C   UNL     1       2.714  -2.083   4.391  0.00  0.00    -0.017 A 
ATOM      5  C   UNL     1       2.494  -3.386   4.822  0.00  0.00    +0.038 A 
ATOM      6  C   UNL     1       1.690  -4.225   4.053  0.00  0.00    +0.043 A 
ATOM      7  C   UNL     1       1.120  -3.758   2.885  0.00  0.00    +0.045 A 
ATOM      8 CL   UNL     1       0.114  -4.808   1.936  0.00  0.00    -0.083 Cl
ATOM      9  N   UNL     1       3.166  -3.616   6.023  0.00  0.00    -0.285 N 
ATOM     10  C   UNL     1       3.841  -2.534   6.444  0.00  0.00    +0.222 C 
ATOM     11  O   UNL     1       4.510  -2.449   7.452  0.00  0.00    -0.275 OA
ATOM     12  C   UNL     1       3.610  -1.439   5.423  0.00  0.00    +0.133 C 
ATOM     13  H   UNL     1       3.147  -4.461   6.500  0.00  0.00    +0.155 HD
ENDBRANCH   1   2
BRANCH   1  14
ATOM     14  C   UNL     1       1.543  -2.445   0.010  0.00  0.00    +0.097 A 
ATOM     15  C   UNL     1       1.238  -3.491  -0.778  0.00  0.00    +0.044 A 
ATOM     16  C   UNL     1       2.263  -3.588  -1.746  0.00  0.00    +0.057 A 
ATOM     17  C   UNL     1       3.135  -2.594  -1.493  0.00  0.00    +0.170 A 
ATOM     18  O   UNL     1       2.690  -1.901  -0.431  0.00  0.00    -0.454 OA
ATOM     19 BR   UNL     1       4.712  -2.229  -2.469  0.00  0.00    -0.008 Br
ENDBRANCH   1  14
BRANCH   1  20
ATOM     20  N   UNL     1       0.713  -0.491   1.192  0.00  0.00    +0.388 N 
ATOM     21  H   UNL     1       1.659  -0.141   1.185  0.00  0.00    -0.084 HD
ATOM     22  H   UNL     1       0.240  -0.165   2.022  0.00  0.00    -0.084 HD
BRANCH  20  24
ATOM     23  C   UNL     1      -0.019   1.526   0.010  0.00  0.00    -0.017 C 
ATOM     24  C   UNL     1       0.002  -0.004   0.002  0.00  0.00    -0.085 C 
ENDBRANCH  20  24
ENDBRANCH   1  20
TORSDOF 4
