REMARK  Name = ZINC65742675
REMARK  10 active torsions:
REMARK  status: ('A' for Active; 'I' for Inactive)
REMARK    1  A    between atoms: C_1  and  C_2
REMARK    2  A    between atoms: C_2  and  C_4
REMARK    3  A    between atoms: C_2  and  C_17
REMARK    4  A    between atoms: C_7  and  C_11
REMARK    5  A    between atoms: C_17  and  O_19
REMARK    6  A    between atoms: O_19  and  C_20
REMARK    7  A    between atoms: C_22  and  O_36
REMARK    8  A    between atoms: C_24  and  O_35
REMARK    9  A    between atoms: C_26  and  O_34
REMARK   10  A    between atoms: C_28  and  C_31
REMARK                            x       y       z     vdW  Elec       q    Type
REMARK                         _______ _______ _______ _____ _____    ______ ____
ROOT
ATOM      1  C   UNL     1      -1.412  -0.526   0.013  0.00  0.00    +0.317 C 
ATOM      2  O   UNL     1      -1.789  -1.230   0.919  0.00  0.00    -0.250 OA
ENDROOT
BRANCH   1   4
ATOM      3  C   UNL     1      -0.019   1.526   0.010  0.00  0.00    +0.024 C 
ATOM      4  C   UNL     1       0.002  -0.004   0.002  0.00  0.00    +0.125 C 
BRANCH   4   5
ATOM      5  C   UNL     1       0.731  -0.503   1.223  0.00  0.00    -0.031 A 
ATOM      6  C   UNL     1       0.260  -0.185   2.484  0.00  0.00    +0.005 A 
ATOM      7  C   UNL     1       0.922  -0.639   3.607  0.00  0.00    +0.011 A 
ATOM      8  C   UNL     1       2.068  -1.419   3.469  0.00  0.00    +0.017 A 
ATOM      9  C   UNL     1       2.540  -1.738   2.195  0.00  0.00    +0.131 A 
ATOM     10  C   UNL     1       1.864  -1.282   1.078  0.00  0.00    +0.043 A 
ATOM     11  F   UNL     1       3.651  -2.494   2.053  0.00  0.00    -0.205 F 
BRANCH   8  12
ATOM     12  C   UNL     1       2.785  -1.910   4.672  0.00  0.00    -0.015 A 
ATOM     13  C   UNL     1       3.118  -1.025   5.696  0.00  0.00    +0.008 A 
ATOM     14  C   UNL     1       3.784  -1.487   6.813  0.00  0.00    +0.001 A 
ATOM     15  C   UNL     1       4.122  -2.824   6.917  0.00  0.00    +0.000 A 
ATOM     16  C   UNL     1       3.794  -3.706   5.904  0.00  0.00    +0.001 A 
ATOM     17  C   UNL     1       3.123  -3.257   4.785  0.00  0.00    +0.008 A 
ENDBRANCH   8  12
ENDBRANCH   4   5
ENDBRANCH   1   4
BRANCH   1  18
ATOM     18  O   UNL     1      -2.252  -0.207  -0.984  0.00  0.00    -0.432 OA
BRANCH  18  19
ATOM     19  C   UNL     1      -3.577  -0.737  -0.910  0.00  0.00    +0.343 C 
ATOM     20  C   UNL     1      -4.304  -0.482  -2.233  0.00  0.00    +0.214 C 
ATOM     21  C   UNL     1      -5.742  -0.998  -2.124  0.00  0.00    +0.180 C 
ATOM     22  C   UNL     1      -6.431  -0.312  -0.941  0.00  0.00    +0.186 C 
ATOM     23  C   UNL     1      -5.622  -0.573   0.333  0.00  0.00    +0.266 C 
ATOM     24  O   UNL     1      -4.287  -0.097   0.153  0.00  0.00    -0.322 OA
BRANCH  23  25
ATOM     25  C   UNL     1      -6.262   0.148   1.491  0.00  0.00    +0.387 C 
ATOM     26  O   UNL     1      -7.374  -0.175   1.871  0.00  0.00    -0.243 OA
ATOM     27  O   UNL     1      -5.666   1.053   2.049  0.00  0.00    -0.243 OA
ENDBRANCH  23  25
BRANCH  22  28
ATOM     28  O   UNL     1      -6.504   1.095  -1.181  0.00  0.00    -0.386 OA
ATOM     29  H   UNL     1      -6.930   1.594  -0.470  0.00  0.00    +0.210 HD
ENDBRANCH  22  28
BRANCH  21  30
ATOM     30  O   UNL     1      -6.450  -0.700  -3.329  0.00  0.00    -0.386 OA
ATOM     31  H   UNL     1      -6.063  -1.099  -4.121  0.00  0.00    +0.210 HD
ENDBRANCH  21  30
BRANCH  20  32
ATOM     32  O   UNL     1      -4.318   0.921  -2.507  0.00  0.00    -0.383 OA
ATOM     33  H   UNL     1      -3.439   1.315  -2.585  0.00  0.00    +0.210 HD
ENDBRANCH  20  32
ENDBRANCH  18  19
ENDBRANCH   1  18
TORSDOF 9
