REMARK  Name = ZINC08920851
REMARK  11 active torsions:
REMARK  status: ('A' for Active; 'I' for Inactive)
REMARK    1  A    between atoms: C_1  and  C_2
REMARK    2  A    between atoms: C_2  and  C_3
REMARK    3  A    between atoms: N_9  and  S_10
REMARK    4  A    between atoms: S_10  and  C_13
REMARK    5  A    between atoms: C_16  and  C_19
REMARK    6  A    between atoms: N_21  and  C_22
REMARK    7  A    between atoms: C_23  and  C_33
REMARK    8  A    between atoms: C_30  and  C_31
REMARK    9  A    between atoms: C_30  and  C_32
REMARK   10  A    between atoms: C_30  and  N_72
REMARK   11  A    between atoms: N_35  and  C_36
REMARK                            x       y       z     vdW  Elec       q    Type
REMARK                         _______ _______ _______ _____ _____    ______ ____
ROOT
ATOM      1  C   UNL     1       8.727   2.486  -0.627  0.00  0.00    +0.249 C 
ATOM      2  O   UNL     1       9.011   3.449  -1.312  0.00  0.00    -0.270 OA
ATOM      3  N   UNL     1       9.614   1.482  -0.475  0.00  0.00    -0.275 N 
ATOM      4  H   UNL     1       9.387   0.714   0.072  0.00  0.00    +0.156 HD
ENDROOT
BRANCH   3   5
ATOM      5  C   UNL     1      10.849   1.548  -1.099  0.00  0.00    +0.085 A 
ATOM      6  C   UNL     1      11.884   0.623  -1.063  0.00  0.00    +0.068 A 
ATOM      7  C   UNL     1      13.086   0.935  -1.813  0.00  0.00    -0.027 A 
ATOM      8  C   UNL     1      13.064   2.115  -2.475  0.00  0.00    -0.021 A 
ATOM      9  S   UNL     1      11.473   2.801  -2.121  0.00  0.00    -0.079 S 
ATOM     10  C   UNL     1      14.164   2.681  -3.318  0.00  0.00    -0.035 C 
ATOM     11  C   UNL     1      15.157   0.483  -3.090  0.00  0.00    -0.073 C 
ATOM     12  C   UNL     1      14.316   0.038  -1.890  0.00  0.00    +0.018 C 
ATOM     13  N   UNL     1      15.407   1.936  -3.002  0.00  0.00    +0.384 N 
ATOM     14  H   UNL     1      15.701   2.168  -2.046  0.00  0.00    -0.081 HD
BRANCH   6  15
ATOM     15  C   UNL     1      11.767  -0.621  -0.296  0.00  0.00    +0.246 C 
ATOM     16  O   UNL     1      11.317  -1.621  -0.824  0.00  0.00    -0.270 OA
ATOM     17  N   UNL     1      12.159  -0.657   0.993  0.00  0.00    -0.314 N 
ATOM     18  C   UNL     1      12.042  -1.900   1.759  0.00  0.00    +0.128 C 
ATOM     19  H   UNL     1      12.518   0.140   1.413  0.00  0.00    +0.149 HD
ENDBRANCH   6  15
BRANCH  13  20
ATOM     20  C   UNL     1      16.481   2.323  -3.942  0.00  0.00    -0.074 C 
ATOM     21  C   UNL     1      16.069   2.010  -5.382  0.00  0.00    -0.014 C 
ATOM     22  C   UNL     1      16.748   3.823  -3.803  0.00  0.00    -0.014 C 
ENDBRANCH  13  20
ENDBRANCH   3   5
BRANCH   1  26
ATOM     23  C   UNL     1       4.941   2.284   1.286  0.00  0.00    +0.106 A 
ATOM     24  C   UNL     1       5.851   1.254   1.449  0.00  0.00    +0.029 A 
ATOM     25  C   UNL     1       7.080   1.311   0.826  0.00  0.00    +0.015 A 
ATOM     26  C   UNL     1       7.410   2.416   0.039  0.00  0.00    +0.037 A 
ATOM     27  C   UNL     1       6.489   3.454  -0.116  0.00  0.00    +0.015 A 
ATOM     28  C   UNL     1       5.261   3.382   0.508  0.00  0.00    +0.029 A 
BRANCH  23  29
ATOM     29  S   UNL     1       3.370   2.200   2.080  0.00  0.00    +0.061 S 
ATOM     30  O   UNL     1       2.840   3.518   2.072  0.00  0.00    -0.153 OA
ATOM     31  O   UNL     1       3.561   1.463   3.280  0.00  0.00    -0.153 OA
BRANCH  29  37
ATOM     32  C   UNL     1       1.706   1.885  -0.043  0.00  0.00    +0.080 C 
ATOM     33  C   UNL     1       0.204   1.601   0.062  0.00  0.00    +0.021 C 
ATOM     34  C   UNL     1      -0.017   0.093   0.209  0.00  0.00    +0.003 C 
ATOM     35  C   UNL     1       0.658  -0.400   1.490  0.00  0.00    +0.017 C 
ATOM     36  C   UNL     1       2.165  -0.139   1.402  0.00  0.00    +0.110 C 
ATOM     37  N   UNL     1       2.382   1.286   1.116  0.00  0.00    -0.174 NA
BRANCH  32  39
ATOM     38  C   UNL     1       1.417   3.988  -1.360  0.00  0.00    +0.005 C 
ATOM     39  C   UNL     1       1.942   3.396  -0.051  0.00  0.00    +0.017 C 
ENDBRANCH  32  39
ENDBRANCH  29  37
ENDBRANCH  23  29
ENDBRANCH   1  26
TORSDOF 7
