REMARK  Name = ZINC16610956
REMARK  13 active torsions:
REMARK  status: ('A' for Active; 'I' for Inactive)
REMARK    1  A    between atoms: C_1  and  C_2
REMARK    2  A    between atoms: C_6  and  C_35
REMARK    3  A    between atoms: C_7  and  N_8
REMARK    4  A    between atoms: N_11  and  C_12
REMARK    5  A    between atoms: C_16  and  C_18
REMARK    6  A    between atoms: C_20  and  C_28
REMARK    7  A    between atoms: C_21  and  C_27
REMARK    8  A    between atoms: N_22  and  C_26
REMARK    9  A    between atoms: C_28  and  O_30
REMARK   10  A    between atoms: O_30  and  C_31
REMARK   11  A    between atoms: C_31  and  C_32
REMARK   12  A    between atoms: C_32  and  C_33
REMARK   13  A    between atoms: C_32  and  C_34
REMARK                            x       y       z     vdW  Elec       q    Type
REMARK                         _______ _______ _______ _____ _____    ______ ____
ROOT
ATOM      1  C   UNL     1       3.614   0.114   0.992  0.00  0.00    +0.035 A 
ATOM      2  C   UNL     1       4.948   0.478   1.123  0.00  0.00    +0.023 A 
ATOM      3  C   UNL     1       5.548   0.459   2.366  0.00  0.00    +0.002 A 
ATOM      4  C   UNL     1       4.822   0.084   3.481  0.00  0.00    +0.006 A 
ATOM      5  C   UNL     1       3.495  -0.285   3.353  0.00  0.00    -0.021 A 
ATOM      6  C   UNL     1       2.889  -0.268   2.112  0.00  0.00    +0.029 A 
ENDROOT
BRANCH   5   7
ATOM      7  C   UNL     1       2.708  -0.698   4.570  0.00  0.00    +0.141 C 
ATOM      8  C   UNL     1       2.316   0.557   5.322  0.00  0.00    +0.078 C 
ATOM      9  C   UNL     1       2.715   0.671   6.608  0.00  0.00    +0.021 C 
ATOM     10  N   UNL     1       3.451  -0.310   7.206  0.00  0.00    -0.289 N 
ATOM     11  C   UNL     1       3.829  -1.437   6.588  0.00  0.00    +0.137 C 
ATOM     12  S   UNL     1       4.752  -2.588   7.457  0.00  0.00    -0.018 S 
ATOM     13  N   UNL     1       3.507  -1.694   5.305  0.00  0.00    -0.315 N 
ATOM     14  C   UNL     1       3.850  -0.121   8.603  0.00  0.00    +0.137 C 
ATOM     15  C   UNL     1       2.342   1.901   7.394  0.00  0.00    +0.061 C 
ATOM     16  H   UNL     1       3.792  -2.516   4.877  0.00  0.00    +0.149 HD
BRANCH   8  17
ATOM     17  C   UNL     1       1.554   1.573   4.701  0.00  0.00    +0.339 C 
ATOM     18  O   UNL     1       1.112   1.403   3.580  0.00  0.00    -0.245 OA
BRANCH  17  19
ATOM     19  O   UNL     1       1.316   2.732   5.352  0.00  0.00    -0.461 OA
BRANCH  19  20
ATOM     20  C   UNL     1       0.631   3.755   4.626  0.00  0.00    +0.235 C 
BRANCH  20  21
ATOM     21  C   UNL     1       0.560   5.024   5.478  0.00  0.00    +0.020 C 
ATOM     22  C   UNL     1      -0.304   4.761   6.713  0.00  0.00    +0.010 C 
ATOM     23  C   UNL     1      -0.058   6.156   4.655  0.00  0.00    +0.010 C 
ENDBRANCH  20  21
ENDBRANCH  19  20
ENDBRANCH  17  19
ENDBRANCH   8  17
ENDBRANCH   5   7
BRANCH   1  27
ATOM     24  N   UNL     1       2.693   1.145  -2.347  0.00  0.00    -0.269 N 
ATOM     25  C   UNL     1       3.339   1.078  -1.166  0.00  0.00    +0.308 C 
ATOM     26  O   UNL     1       4.224   1.871  -0.911  0.00  0.00    -0.252 OA
ATOM     27  N   UNL     1       3.002   0.132  -0.267  0.00  0.00    -0.269 N 
ATOM     28  H   UNL     1       1.935   0.565  -2.519  0.00  0.00    +0.156 HD
ATOM     29  H   UNL     1       2.336  -0.536  -0.492  0.00  0.00    +0.156 HD
BRANCH  24  36
ATOM     30  C   UNL     1       2.797   3.906  -1.666  0.00  0.00    +0.045 C 
ATOM     31  C   UNL     1       3.182   3.408  -3.035  0.00  0.00    -0.029 A 
ATOM     32  C   UNL     1       3.606   4.299  -4.001  0.00  0.00    +0.005 A 
ATOM     33  C   UNL     1       3.954   3.844  -5.260  0.00  0.00    +0.001 A 
ATOM     34  C   UNL     1       3.884   2.494  -5.553  0.00  0.00    +0.005 A 
ATOM     35  C   UNL     1       3.467   1.597  -4.590  0.00  0.00    -0.029 A 
ATOM     36  C   UNL     1       3.116   2.051  -3.325  0.00  0.00    +0.041 A 
ATOM     37  C   UNL     1       3.392   0.126  -4.911  0.00  0.00    +0.045 C 
ENDBRANCH  24  36
ENDBRANCH   1  27
TORSDOF 7
