REMARK  Name = ZINC63818639
REMARK  9 active torsions:
REMARK  status: ('A' for Active; 'I' for Inactive)
REMARK    1  A    between atoms: C_1  and  O_2
REMARK    2  A    between atoms: O_2  and  C_3
REMARK    3  A    between atoms: C_9  and  C_12
REMARK    4  A    between atoms: C_12  and  C_13
REMARK    5  A    between atoms: C_13  and  N_14
REMARK    6  A    between atoms: C_15  and  C_17
REMARK    7  A    between atoms: C_20  and  C_24
REMARK    8  A    between atoms: C_24  and  C_25
REMARK    9  A    between atoms: N_27  and  C_28
REMARK                            x       y       z     vdW  Elec       q    Type
REMARK                         _______ _______ _______ _____ _____    ______ ____
ROOT
ATOM      1  N   UNL     1      -0.749  -6.792  -1.532  0.00  0.00    -0.312 N 
ATOM      2  C   UNL     1      -1.922  -7.394  -1.811  0.00  0.00    +0.259 C 
ATOM      3  O   UNL     1      -2.620  -6.974  -2.710  0.00  0.00    -0.271 OA
ATOM      4  H   UNL     1      -0.190  -7.128  -0.814  0.00  0.00    +0.149 HD
ENDROOT
BRANCH   2   5
ATOM      5  C   UNL     1      -2.367  -8.588  -1.006  0.00  0.00    +0.297 C 
ATOM      6  N   UNL     1      -1.490  -9.755  -1.285  0.00  0.00    -0.265 NA
ATOM      7  C   UNL     1      -1.657 -10.587  -0.063  0.00  0.00    +0.158 C 
ATOM      8  N   UNL     1      -1.763  -9.588   1.026  0.00  0.00    -0.181 NA
ATOM      9  O   UNL     1      -2.206  -8.331   0.401  0.00  0.00    -0.270 OA
ATOM     10  H   UNL     1      -1.801 -10.252  -2.106  0.00  0.00    +0.126 HD
ATOM     11  H   UNL     1      -2.419  -9.890   1.732  0.00  0.00    +0.156 HD
BRANCH   7  12
ATOM     12  C   UNL     1      -0.438 -11.488   0.145  0.00  0.00    +0.132 C 
BRANCH  12  13
ATOM     13  C   UNL     1      -0.685 -12.404   1.316  0.00  0.00    +0.220 C 
ATOM     14  O   UNL     1      -1.732 -12.343   1.924  0.00  0.00    -0.275 OA
ATOM     15  N   UNL     1       0.259 -13.292   1.687  0.00  0.00    -0.285 N 
ATOM     16  H   UNL     1       1.068 -13.388   1.161  0.00  0.00    +0.155 HD
BRANCH  15  17
ATOM     17  C   UNL     1       0.071 -14.076   2.831  0.00  0.00    +0.033 A 
ATOM     18  C   UNL     1       1.154 -14.405   3.635  0.00  0.00    +0.023 A 
ATOM     19  C   UNL     1       0.965 -15.178   4.764  0.00  0.00    +0.002 A 
ATOM     20  C   UNL     1      -0.301 -15.625   5.093  0.00  0.00    +0.000 A 
ATOM     21  C   UNL     1      -1.382 -15.299   4.295  0.00  0.00    +0.002 A 
ATOM     22  C   UNL     1      -1.201 -14.521   3.168  0.00  0.00    +0.023 A 
ENDBRANCH  15  17
ENDBRANCH  12  13
ENDBRANCH   7  12
ENDBRANCH   2   5
BRANCH   1  23
ATOM     23  C   UNL     1      -0.317  -5.632  -2.315  0.00  0.00    +0.108 C 
BRANCH  23  24
ATOM     24  C   UNL     1       1.038  -5.144  -1.798  0.00  0.00    +0.052 C 
BRANCH  24  31
ATOM     25  C   UNL     1       0.630  -0.621  -1.113  0.00  0.00    +0.121 A 
ATOM     26  C   UNL     1       1.194   0.175  -2.126  0.00  0.00    +0.047 A 
ATOM     27  C   UNL     1       1.804  -0.351  -3.209  0.00  0.00    +0.029 A 
ATOM     28  C   UNL     1       1.895  -1.807  -3.358  0.00  0.00    +0.043 A 
ATOM     29  N   UNL     1       2.421  -2.561  -4.290  0.00  0.00    -0.380 N 
ATOM     30  C   UNL     1       2.222  -3.967  -3.922  0.00  0.00    +0.144 C 
ATOM     31  C   UNL     1       1.483  -3.950  -2.603  0.00  0.00    -0.040 C 
ATOM     32  C   UNL     1       1.302  -2.647  -2.292  0.00  0.00    +0.002 A 
ATOM     33  C   UNL     1       0.666  -1.974  -1.154  0.00  0.00    +0.055 A 
ATOM     34  H   UNL     1       2.867  -2.243  -5.091  0.00  0.00    +0.160 HD
BRANCH  25  36
ATOM     35  C   UNL     1       0.019   1.418  -0.053  0.00  0.00    +0.277 C 
ATOM     36  O   UNL     1       0.034  -0.011  -0.055  0.00  0.00    -0.495 OA
ENDBRANCH  25  36
ENDBRANCH  24  31
ENDBRANCH  23  24
ENDBRANCH   1  23
TORSDOF 8
