REMARK  Name = ZINC64518596
REMARK  9 active torsions:
REMARK  status: ('A' for Active; 'I' for Inactive)
REMARK    1  A    between atoms: C_1  and  C_2
REMARK    2  A    between atoms: C_3  and  C_13
REMARK    3  A    between atoms: N_5  and  C_7
REMARK    4  A    between atoms: C_18  and  C_21
REMARK    5  A    between atoms: C_21  and  C_23
REMARK    6  A    between atoms: C_21  and  C_24
REMARK    7  A    between atoms: N_26  and  C_27
REMARK    8  A    between atoms: C_27  and  C_28
REMARK    9  A    between atoms: C_28  and  C_29
REMARK                            x       y       z     vdW  Elec       q    Type
REMARK                         _______ _______ _______ _____ _____    ______ ____
ROOT
ATOM      1  C   UNL     1      -2.443  -0.325   0.013  0.00  0.00    +0.246 C 
ATOM      2  O   UNL     1      -1.299  -0.712  -0.143  0.00  0.00    -0.270 OA
ATOM      3  N   UNL     1      -3.448  -1.217   0.115  0.00  0.00    -0.298 N 
ATOM      4  C   UNL     1      -3.165  -2.655   0.223  0.00  0.00    +0.108 C 
ATOM      5  C   UNL     1      -3.949  -3.395  -0.866  0.00  0.00    +0.023 C 
ATOM      6  C   UNL     1      -5.432  -3.036  -0.753  0.00  0.00    +0.004 C 
ATOM      7  C   UNL     1      -5.613  -1.532  -0.966  0.00  0.00    +0.023 C 
ATOM      8  C   UNL     1      -4.847  -0.770   0.127  0.00  0.00    +0.108 C 
ENDROOT
BRANCH   1  11
ATOM      9  C   UNL     1      -0.319   1.841   0.135  0.00  0.00    +0.062 C 
ATOM     10  C   UNL     1      -1.811   2.055   0.142  0.00  0.00    +0.029 C 
ATOM     11  C   UNL     1      -2.717   1.060   0.087  0.00  0.00    +0.051 C 
ATOM     12  C   UNL     1      -4.084   1.708   0.119  0.00  0.00    +0.169 C 
ATOM     13  N   UNL     1      -3.802   3.151   0.198  0.00  0.00    -0.249 N 
ATOM     14  N   UNL     1      -2.406   3.274   0.212  0.00  0.00    -0.268 N 
ATOM     15  H   UNL     1      -1.929   4.117   0.263  0.00  0.00    +0.170 HD
BRANCH  13  16
ATOM     16  C   UNL     1      -4.736   4.188   0.251  0.00  0.00    +0.048 A 
ATOM     17  C   UNL     1      -6.095   3.901   0.238  0.00  0.00    +0.025 A 
ATOM     18  C   UNL     1      -7.016   4.929   0.292  0.00  0.00    +0.002 A 
ATOM     19  C   UNL     1      -6.587   6.242   0.358  0.00  0.00    +0.000 A 
ATOM     20  C   UNL     1      -5.235   6.531   0.370  0.00  0.00    +0.002 A 
ATOM     21  C   UNL     1      -4.308   5.508   0.323  0.00  0.00    +0.025 A 
ENDBRANCH  13  16
ENDBRANCH   1  11
BRANCH   6  22
ATOM     22  C   UNL     1      -6.224  -3.800  -1.817  0.00  0.00    +0.075 C 
ATOM     23  C   UNL     1      -6.045  -5.304  -1.603  0.00  0.00    +0.017 C 
BRANCH  22  24
ATOM     24  C   UNL     1      -7.685  -3.447  -1.706  0.00  0.00    +0.216 C 
ATOM     25  O   UNL     1      -8.056  -2.662  -0.860  0.00  0.00    -0.276 OA
ATOM     26  N   UNL     1      -8.578  -4.004  -2.547  0.00  0.00    -0.315 N 
ATOM     27  H   UNL     1      -8.281  -4.632  -3.224  0.00  0.00    +0.149 HD
BRANCH  26  28
ATOM     28  C   UNL     1      -9.998  -3.661  -2.440  0.00  0.00    +0.108 C 
BRANCH  28  29
ATOM     29  C   UNL     1     -10.790  -4.425  -3.503  0.00  0.00    +0.052 C 
BRANCH  29  30
ATOM     30  C   UNL     1     -12.250  -4.072  -3.393  0.00  0.00    -0.040 C 
ATOM     31  C   UNL     1     -12.915  -3.130  -4.100  0.00  0.00    -0.001 A 
ATOM     32  C   UNL     1     -12.493  -2.187  -5.143  0.00  0.00    +0.010 A 
ATOM     33  C   UNL     1     -13.408  -1.345  -5.675  0.00  0.00    +0.001 A 
ATOM     34  C   UNL     1     -14.745  -1.349  -5.256  0.00  0.00    +0.002 A 
ATOM     35  C   UNL     1     -15.208  -2.186  -4.303  0.00  0.00    +0.026 A 
ATOM     36  C   UNL     1     -14.333  -3.115  -3.675  0.00  0.00    +0.043 A 
ATOM     37  N   UNL     1     -14.537  -4.013  -2.742  0.00  0.00    -0.380 N 
ATOM     38  C   UNL     1     -13.271  -4.704  -2.473  0.00  0.00    +0.144 C 
ATOM     39  H   UNL     1     -15.384  -4.193  -2.305  0.00  0.00    +0.160 HD
ENDBRANCH  29  30
ENDBRANCH  28  29
ENDBRANCH  26  28
ENDBRANCH  22  24
ENDBRANCH   6  22
TORSDOF 7
