REMARK  Name = ZINC20120874
REMARK  17 active torsions:
REMARK  status: ('A' for Active; 'I' for Inactive)
REMARK    1  A    between atoms: C_1  and  C_2
REMARK    2  A    between atoms: C_2  and  C_3
REMARK    3  A    between atoms: C_3  and  C_5
REMARK    4  A    between atoms: C_3  and  N_15
REMARK    5  A    between atoms: N_9  and  C_10
REMARK    6  A    between atoms: C_10  and  C_11
REMARK    7  A    between atoms: C_10  and  C_12
REMARK    8  A    between atoms: C_10  and  C_13
REMARK    9  A    between atoms: C_13  and  C_14
REMARK   10  A    between atoms: N_15  and  C_16
REMARK   11  A    between atoms: N_15  and  C_20
REMARK   12  A    between atoms: C_16  and  C_17
REMARK   13  A    between atoms: C_17  and  C_18
REMARK   14  A    between atoms: C_18  and  O_19
REMARK   15  A    between atoms: C_20  and  C_21
REMARK   16  A    between atoms: C_25  and  C_33
REMARK   17  A    between atoms: C_27  and  C_32
REMARK                            x       y       z     vdW  Elec       q    Type
REMARK                         _______ _______ _______ _____ _____    ______ ____
ROOT
ATOM      1  N   UNL     1       2.304  -1.370  -1.473  0.00  0.00    +0.389 N 
ATOM      2  H   UNL     1       2.471  -2.107  -0.804  0.00  0.00    -0.080 HD
ENDROOT
BRANCH   1   3
ATOM      3  C   UNL     1       0.915  -0.905  -1.353  0.00  0.00    +0.003 C 
BRANCH   3   4
ATOM      4  C   UNL     1       0.707   0.291  -2.246  0.00  0.00    +0.139 A 
ATOM      5  N   UNL     1       1.472   0.666  -3.242  0.00  0.00    -0.115 NA
ATOM      6  N   UNL     1       0.961   1.731  -3.757  0.00  0.00    -0.023 NA
ATOM      7  N   UNL     1      -0.111   2.044  -3.116  0.00  0.00    -0.043 NA
ATOM      8  N   UNL     1      -0.303   1.177  -2.180  0.00  0.00    -0.225 N 
BRANCH   8   9
ATOM      9  C   UNL     1      -1.412   1.163  -1.222  0.00  0.00    +0.061 C 
ATOM     10  C   UNL     1      -0.987   0.408   0.039  0.00  0.00    +0.036 C 
ATOM     11  C   UNL     1      -1.787   2.600  -0.854  0.00  0.00    +0.036 C 
BRANCH   9  12
ATOM     12  C   UNL     1      -2.620   0.466  -1.851  0.00  0.00    +0.026 C 
ATOM     13  C   UNL     1      -3.778   0.450  -0.851  0.00  0.00    +0.006 C 
ENDBRANCH   9  12
ENDBRANCH   8   9
ENDBRANCH   3   4
BRANCH   3  15
ATOM     14  C   UNL     1       0.173  -3.240  -0.864  0.00  0.00    +0.002 C 
ATOM     15  C   UNL     1      -0.036  -2.027  -1.772  0.00  0.00    -0.011 C 
ENDBRANCH   3  15
ENDBRANCH   1   3
BRANCH   1  16
ATOM     16  C   UNL     1       3.219  -0.252  -1.209  0.00  0.00    -0.075 C 
BRANCH  16  17
ATOM     17  C   UNL     1       3.012   0.250   0.222  0.00  0.00    +0.009 C 
BRANCH  17  18
ATOM     18  C   UNL     1       4.040   1.340   0.534  0.00  0.00    +0.154 C 
BRANCH  18  19
ATOM     19  O   UNL     1       3.846   1.808   1.870  0.00  0.00    -0.395 OA
ATOM     20  H   UNL     1       4.464   2.502   2.137  0.00  0.00    +0.209 HD
ENDBRANCH  18  19
ENDBRANCH  17  18
ENDBRANCH  16  17
ENDBRANCH   1  16
BRANCH   1  21
ATOM     21  C   UNL     1       2.534  -1.880  -2.831  0.00  0.00    -0.037 C 
BRANCH  21  22
ATOM     22  C   UNL     1       3.967  -2.326  -2.965  0.00  0.00    +0.001 A 
ATOM     23  C   UNL     1       4.290  -3.629  -2.774  0.00  0.00    +0.017 A 
ATOM     24  C   UNL     1       5.691  -4.029  -2.912  0.00  0.00    -0.001 A 
ATOM     25  C   UNL     1       6.085  -5.359  -2.727  0.00  0.00    +0.013 A 
ATOM     26  C   UNL     1       7.401  -5.700  -2.863  0.00  0.00    -0.050 A 
ATOM     27  C   UNL     1       8.351  -4.739  -3.182  0.00  0.00    +0.008 A 
ATOM     28  C   UNL     1       7.986  -3.424  -3.368  0.00  0.00    -0.026 A 
ATOM     29  C   UNL     1       6.651  -3.053  -3.235  0.00  0.00    +0.052 A 
ATOM     30  N   UNL     1       6.258  -1.744  -3.416  0.00  0.00    -0.322 N 
ATOM     31  C   UNL     1       4.968  -1.386  -3.293  0.00  0.00    +0.251 A 
ATOM     32  O   UNL     1       4.655  -0.221  -3.465  0.00  0.00    -0.268 OA
ATOM     33  C   UNL     1       9.027  -2.391  -3.712  0.00  0.00    +0.046 C 
ATOM     34  C   UNL     1       7.825  -7.133  -2.665  0.00  0.00    +0.044 C 
ATOM     35  H   UNL     1       6.921  -1.072  -3.639  0.00  0.00    +0.169 HD
ENDBRANCH  21  22
ENDBRANCH   1  21
TORSDOF 11
