REMARK  Name = ZINC65748515
REMARK  14 active torsions:
REMARK  status: ('A' for Active; 'I' for Inactive)
REMARK    1  A    between atoms: C_1  and  C_2
REMARK    2  A    between atoms: C_2  and  C_3
REMARK    3  A    between atoms: C_2  and  N_4
REMARK    4  A    between atoms: N_4  and  C_5
REMARK    5  A    between atoms: C_5  and  C_6
REMARK    6  A    between atoms: C_6  and  C_8
REMARK    7  A    between atoms: C_6  and  O_20
REMARK    8  A    between atoms: C_8  and  O_9
REMARK    9  A    between atoms: O_9  and  C_10
REMARK   10  A    between atoms: O_20  and  C_21
REMARK   11  A    between atoms: C_23  and  O_37
REMARK   12  A    between atoms: C_25  and  O_36
REMARK   13  A    between atoms: C_27  and  O_35
REMARK   14  A    between atoms: C_29  and  C_32
REMARK                            x       y       z     vdW  Elec       q    Type
REMARK                         _______ _______ _______ _____ _____    ______ ____
ROOT
ATOM      1  C   UNL     1       2.475  -0.372  -2.435  0.00  0.00    +0.142 C 
ENDROOT
BRANCH   1   2
ATOM      2  C   UNL     1       1.818   0.242  -1.198  0.00  0.00    -0.047 C 
BRANCH   2   3
ATOM      3  N   UNL     1       0.361   0.067  -1.279  0.00  0.00    +0.382 N 
ATOM      4  H   UNL     1       0.147  -0.910  -1.408  0.00  0.00    -0.085 HD
ATOM      5  H   UNL     1       0.002   0.596  -2.059  0.00  0.00    -0.085 HD
BRANCH   3   7
ATOM      6  C   UNL     1      -0.061   2.056   0.086  0.00  0.00    -0.014 C 
ATOM      7  C   UNL     1      -0.259   0.544  -0.036  0.00  0.00    -0.078 C 
ATOM      8  C   UNL     1      -1.756   0.226  -0.058  0.00  0.00    -0.014 C 
ENDBRANCH   3   7
ENDBRANCH   2   3
ENDBRANCH   1   2
BRANCH   1   9
ATOM      9  C   UNL     1       3.997  -0.299  -2.293  0.00  0.00    +0.258 C 
BRANCH   9  10
ATOM     10  O   UNL     1       4.388   1.054  -2.053  0.00  0.00    -0.489 OA
BRANCH  10  11
ATOM     11  C   UNL     1       5.716   1.294  -1.902  0.00  0.00    +0.128 A 
ATOM     12  C   UNL     1       6.615   0.269  -1.988  0.00  0.00    +0.046 A 
ATOM     13  C   UNL     1       7.980   0.498  -1.836  0.00  0.00    +0.004 A 
ATOM     14  C   UNL     1       8.459   1.750  -1.598  0.00  0.00    +0.009 A 
ATOM     15  C   UNL     1       7.567   2.832  -1.503  0.00  0.00    -0.014 A 
ATOM     16  C   UNL     1       6.178   2.604  -1.662  0.00  0.00    +0.024 A 
ATOM     17  C   UNL     1       5.287   3.687  -1.571  0.00  0.00    +0.012 A 
ATOM     18  C   UNL     1       5.769   4.938  -1.337  0.00  0.00    +0.001 A 
ATOM     19  C   UNL     1       7.136   5.164  -1.186  0.00  0.00    +0.001 A 
ATOM     20  C   UNL     1       8.028   4.138  -1.257  0.00  0.00    +0.008 A 
ENDBRANCH  10  11
ENDBRANCH   9  10
ENDBRANCH   1   9
BRANCH   1  21
ATOM     21  O   UNL     1       2.070   0.352  -3.599  0.00  0.00    -0.344 OA
BRANCH  21  22
ATOM     22  C   UNL     1       2.059  -0.430  -4.795  0.00  0.00    +0.283 C 
ATOM     23  C   UNL     1       1.827   0.485  -6.000  0.00  0.00    +0.201 C 
ATOM     24  C   UNL     1       1.756  -0.367  -7.271  0.00  0.00    +0.179 C 
ATOM     25  C   UNL     1       0.648  -1.411  -7.112  0.00  0.00    +0.185 C 
ATOM     26  C   UNL     1       0.925  -2.253  -5.864  0.00  0.00    +0.265 C 
ATOM     27  O   UNL     1       1.009  -1.397  -4.723  0.00  0.00    -0.331 OA
BRANCH  26  28
ATOM     28  C   UNL     1      -0.192  -3.245  -5.668  0.00  0.00    +0.387 C 
ATOM     29  O   UNL     1      -0.370  -4.133  -6.484  0.00  0.00    -0.243 OA
ATOM     30  O   UNL     1      -0.918  -3.159  -4.692  0.00  0.00    -0.243 OA
ENDBRANCH  26  28
BRANCH  25  31
ATOM     31  O   UNL     1      -0.613  -0.753  -6.975  0.00  0.00    -0.386 OA
ATOM     32  H   UNL     1      -1.362  -1.355  -6.870  0.00  0.00    +0.210 HD
ENDBRANCH  25  31
BRANCH  24  33
ATOM     33  O   UNL     1       1.469   0.471  -8.393  0.00  0.00    -0.386 OA
ATOM     34  H   UNL     1       1.410  -0.003  -9.233  0.00  0.00    +0.210 HD
ENDBRANCH  24  33
BRANCH  23  35
ATOM     35  O   UNL     1       2.905   1.417  -6.107  0.00  0.00    -0.384 OA
ATOM     36  H   UNL     1       3.010   1.987  -5.333  0.00  0.00    +0.210 HD
ENDBRANCH  23  35
ENDBRANCH  21  22
ENDBRANCH   1  21
TORSDOF 12
