REMARK  Name = ZINC39546154
REMARK  9 active torsions:
REMARK  status: ('A' for Active; 'I' for Inactive)
REMARK    1  A    between atoms: C_1  and  C_2
REMARK    2  A    between atoms: C_19  and  C_21
REMARK    3  A    between atoms: C_21  and  N_22
REMARK    4  A    between atoms: C_27  and  O_42
REMARK    5  A    between atoms: C_28  and  O_40
REMARK    6  A    between atoms: C_31  and  C_33
REMARK    7  A    between atoms: C_33  and  C_34
REMARK    8  A    between atoms: O_40  and  C_41
REMARK    9  A    between atoms: O_42  and  C_43
REMARK                            x       y       z     vdW  Elec       q    Type
REMARK                         _______ _______ _______ _____ _____    ______ ____
ROOT
ATOM      1  N   UNL     1       6.408   1.380  -0.859  0.00  0.00    +0.385 N 
ATOM      2  C   UNL     1       6.837   1.756   0.497  0.00  0.00    -0.073 C 
ATOM      3  C   UNL     1       7.914   2.836   0.386  0.00  0.00    +0.017 C 
ATOM      4  C   UNL     1       8.989   2.388  -0.572  0.00  0.00    -0.044 A 
ATOM      5  C   UNL     1      10.208   3.047  -0.555  0.00  0.00    +0.053 A 
ATOM      6  C   UNL     1      11.219   2.669  -1.421  0.00  0.00    +0.162 A 
ATOM      7  C   UNL     1      11.007   1.620  -2.312  0.00  0.00    +0.162 A 
ATOM      8  C   UNL     1       9.789   0.965  -2.323  0.00  0.00    +0.051 A 
ATOM      9  C   UNL     1       8.778   1.347  -1.452  0.00  0.00    -0.054 A 
ATOM     10  C   UNL     1       7.472   0.598  -1.496  0.00  0.00    -0.033 C 
ATOM     11  H   UNL     1       6.230   2.212  -1.401  0.00  0.00    -0.081 HD
ENDROOT
BRANCH   7  12
ATOM     12  O   UNL     1      11.993   1.242  -3.168  0.00  0.00    -0.491 OA
ATOM     13  C   UNL     1      11.704   0.159  -4.054  0.00  0.00    +0.277 C 
ENDBRANCH   7  12
BRANCH   6  14
ATOM     14  O   UNL     1      12.414   3.318  -1.402  0.00  0.00    -0.491 OA
ATOM     15  C   UNL     1      12.558   4.384  -0.461  0.00  0.00    +0.277 C 
ENDBRANCH   6  14
BRANCH   1  16
ATOM     16  C   UNL     1       5.184   0.571  -0.782  0.00  0.00    -0.063 C 
BRANCH  16  32
ATOM     17  C   UNL     1       0.142   2.832   0.024  0.00  0.00    +0.012 C 
ATOM     18  C   UNL     1      -0.098   1.322  -0.018  0.00  0.00    -0.022 C 
ATOM     19  C   UNL     1      -1.599   1.039   0.017  0.00  0.00    +0.007 C 
ATOM     20  C   UNL     1      -2.217   1.693   1.255  0.00  0.00    +0.005 C 
ATOM     21  C   UNL     1      -1.623   1.064   2.519  0.00  0.00    +0.030 C 
ATOM     22  C   UNL     1      -0.114   1.160   2.446  0.00  0.00    -0.073 C 
ATOM     23  C   UNL     1       0.578   1.663   3.438  0.00  0.00    +0.008 C 
ATOM     24  C   UNL     1       0.570   0.659   1.195  0.00  0.00    +0.021 C 
ATOM     25  C   UNL     1       2.038   1.074   1.215  0.00  0.00    +0.016 C 
ATOM     26  C   UNL     1       2.758   0.560  -0.034  0.00  0.00    +0.042 C 
ATOM     27  C   UNL     1       2.011   0.981  -1.315  0.00  0.00    +0.181 C 
ATOM     28  C   UNL     1       0.535   0.736  -1.280  0.00  0.00    +0.052 C 
ATOM     29  O   UNL     1       2.320   2.373  -1.448  0.00  0.00    -0.461 OA
ATOM     30  C   UNL     1       3.627   2.530  -1.141  0.00  0.00    +0.309 C 
ATOM     31  O   UNL     1       4.345   3.408  -1.556  0.00  0.00    -0.251 OA
ATOM     32  C   UNL     1       4.057   1.410  -0.176  0.00  0.00    +0.088 C 
ENDBRANCH  16  32
ENDBRANCH   1  16
BRANCH  10  33
ATOM     33  C   UNL     1       7.095   0.327  -2.954  0.00  0.00    +0.024 C 
BRANCH  33  34
ATOM     34  C   UNL     1       6.879   1.635  -3.669  0.00  0.00    -0.049 A 
ATOM     35  C   UNL     1       5.614   2.189  -3.731  0.00  0.00    +0.003 A 
ATOM     36  C   UNL     1       5.416   3.389  -4.387  0.00  0.00    +0.000 A 
ATOM     37  C   UNL     1       6.483   4.037  -4.981  0.00  0.00    +0.000 A 
ATOM     38  C   UNL     1       7.748   3.484  -4.919  0.00  0.00    +0.000 A 
ATOM     39  C   UNL     1       7.947   2.285  -4.259  0.00  0.00    +0.003 A 
ENDBRANCH  33  34
ENDBRANCH  10  33
TORSDOF 6
