REMARK  Name = ZINC26486561
REMARK  9 active torsions:
REMARK  status: ('A' for Active; 'I' for Inactive)
REMARK    1  A    between atoms: C_1  and  C_2
REMARK    2  A    between atoms: C_2  and  C_4
REMARK    3  A    between atoms: C_2  and  N_18
REMARK    4  A    between atoms: N_6  and  C_7
REMARK    5  A    between atoms: C_8  and  C_15
REMARK    6  A    between atoms: N_18  and  C_19
REMARK    7  A    between atoms: N_18  and  C_20
REMARK    8  A    between atoms: C_20  and  C_21
REMARK    9  A    between atoms: N_23  and  C_24
REMARK                            x       y       z     vdW  Elec       q    Type
REMARK                         _______ _______ _______ _____ _____    ______ ____
ROOT
ATOM      1  C   UNL     1      -1.651   0.761  -5.152  0.00  0.00    -0.004 C 
ATOM      2  C   UNL     1      -1.797   2.265  -4.911  0.00  0.00    +0.017 C 
ENDROOT
BRANCH   2   3
ATOM      3  C   UNL     1      -2.255   2.504  -3.495  0.00  0.00    +0.204 C 
ATOM      4  O   UNL     1      -3.303   3.078  -3.285  0.00  0.00    -0.277 OA
ATOM      5  N   UNL     1      -1.500   2.080  -2.462  0.00  0.00    -0.281 N 
ATOM      6  H   UNL     1      -0.550   1.559  -2.652  0.00  0.00    +0.155 HD
BRANCH   5   7
ATOM      7  C   UNL     1      -1.921   2.300  -1.159  0.00  0.00    +0.084 A 
ATOM      8  C   UNL     1      -1.291   1.943   0.021  0.00  0.00    +0.068 A 
ATOM      9  C   UNL     1      -1.950   2.301   1.276  0.00  0.00    -0.023 A 
ATOM     10  C   UNL     1      -3.122   2.948   1.141  0.00  0.00    -0.004 A 
ATOM     11  S   UNL     1      -3.364   3.085  -0.613  0.00  0.00    -0.077 S 
ATOM     12  C   UNL     1      -3.736   3.287   2.473  0.00  0.00    +0.043 C 
ATOM     13  C   UNL     1      -2.577   3.142   3.484  0.00  0.00    +0.010 C 
ATOM     14  C   UNL     1      -1.659   2.131   2.768  0.00  0.00    +0.037 C 
BRANCH   8  15
ATOM     15  C   UNL     1      -0.006   1.237   0.012  0.00  0.00    +0.244 C 
ATOM     16  O   UNL     1       0.019   0.020   0.005  0.00  0.00    -0.270 OA
ATOM     17  N   UNL     1       1.147   1.935   0.005  0.00  0.00    -0.325 N 
ATOM     18  H   UNL     1       2.111   1.405  -0.001  0.00  0.00    +0.145 HD
ATOM     19  H   UNL     1       1.123   3.035   0.006  0.00  0.00    +0.145 HD
ENDBRANCH   8  15
ENDBRANCH   5   7
ENDBRANCH   2   3
BRANCH   2  20
ATOM     20  N   UNL     1      -2.787   2.817  -5.845  0.00  0.00    +0.391 N 
ATOM     21  C   UNL     1      -4.092   2.163  -5.677  0.00  0.00    -0.094 C 
ATOM     22  H   UNL     1      -2.912   3.885  -5.613  0.00  0.00    -0.080 HD
BRANCH  20  23
ATOM     23  C   UNL     1      -2.319   2.708  -7.233  0.00  0.00    +0.020 C 
BRANCH  23  24
ATOM     24  C   UNL     1      -3.234   3.496  -8.135  0.00  0.00    +0.201 C 
ATOM     25  O   UNL     1      -4.182   4.090  -7.668  0.00  0.00    -0.278 OA
ATOM     26  N   UNL     1      -2.998   3.541  -9.461  0.00  0.00    -0.287 N 
ATOM     27  H   UNL     1      -2.096   3.066  -9.876  0.00  0.00    +0.155 HD
BRANCH  26  28
ATOM     28  C   UNL     1      -3.900   4.191 -10.311  0.00  0.00    +0.035 A 
ATOM     29  C   UNL     1      -4.127   3.700 -11.590  0.00  0.00    +0.025 A 
ATOM     30  C   UNL     1      -5.023   4.340 -12.425  0.00  0.00    +0.023 A 
ATOM     31  C   UNL     1      -5.684   5.476 -11.993  0.00  0.00    +0.059 A 
ATOM     32  C   UNL     1      -5.455   5.971 -10.720  0.00  0.00    +0.061 A 
ATOM     33  C   UNL     1      -4.564   5.331  -9.879  0.00  0.00    +0.044 A 
ATOM     34 CL   UNL     1      -6.287   7.396 -10.181  0.00  0.00    -0.082 Cl
ATOM     35 CL   UNL     1      -6.803   6.281 -13.048  0.00  0.00    -0.082 Cl
ENDBRANCH  26  28
ENDBRANCH  23  24
ENDBRANCH  20  23
ENDBRANCH   2  20
TORSDOF 7
