REMARK  Name = ZINC38635550
REMARK  13 active torsions:
REMARK  status: ('A' for Active; 'I' for Inactive)
REMARK    1  A    between atoms: C_1  and  N_2
REMARK    2  A    between atoms: N_2  and  C_3
REMARK    3  A    between atoms: N_2  and  C_4
REMARK    4  A    between atoms: C_7  and  C_10
REMARK    5  A    between atoms: C_10  and  C_12
REMARK    6  A    between atoms: C_10  and  N_27
REMARK    7  A    between atoms: C_12  and  N_13
REMARK    8  A    between atoms: C_14  and  C_16
REMARK    9  A    between atoms: N_18  and  C_19
REMARK   10  A    between atoms: C_24  and  S_25
REMARK   11  A    between atoms: S_25  and  C_26
REMARK   12  A    between atoms: N_27  and  C_28
REMARK   13  A    between atoms: N_27  and  C_29
REMARK                            x       y       z     vdW  Elec       q    Type
REMARK                         _______ _______ _______ _____ _____    ______ ____
ROOT
ATOM      1  N   UNL     1       2.235  -3.612  -4.356  0.00  0.00    -0.309 N 
ATOM      2  C   UNL     1       3.571  -3.665  -4.520  0.00  0.00    +0.299 C 
ATOM      3  O   UNL     1       4.082  -3.171  -5.504  0.00  0.00    -0.265 OA
ATOM      4  H   UNL     1       1.827  -4.007  -3.570  0.00  0.00    +0.149 HD
ENDROOT
BRANCH   2   5
ATOM      5  C   UNL     1       4.424  -4.331  -3.492  0.00  0.00    +0.303 C 
ATOM      6  O   UNL     1       3.913  -4.825  -2.507  0.00  0.00    -0.265 OA
ATOM      7  N   UNL     1       5.761  -4.384  -3.656  0.00  0.00    -0.277 N 
ATOM      8  H   UNL     1       6.164  -4.039  -4.468  0.00  0.00    +0.155 HD
BRANCH   7   9
ATOM      9  C   UNL     1       6.567  -4.936  -2.655  0.00  0.00    +0.047 A 
ATOM     10  C   UNL     1       6.103  -6.002  -1.897  0.00  0.00    +0.024 A 
ATOM     11  C   UNL     1       6.902  -6.546  -0.909  0.00  0.00    +0.002 A 
ATOM     12  C   UNL     1       8.164  -6.032  -0.672  0.00  0.00    +0.001 A 
ATOM     13  C   UNL     1       8.635  -4.971  -1.422  0.00  0.00    +0.016 A 
ATOM     14  C   UNL     1       7.843  -4.421  -2.421  0.00  0.00    +0.029 A 
BRANCH  14  15
ATOM     15  S   UNL     1       8.444  -3.074  -3.384  0.00  0.00    -0.127 S 
ATOM     16  C   UNL     1      10.105  -2.768  -2.723  0.00  0.00    +0.090 C 
ENDBRANCH  14  15
ENDBRANCH   7   9
ENDBRANCH   2   5
BRANCH   1  17
ATOM     17  C   UNL     1       1.398  -2.958  -5.365  0.00  0.00    +0.094 C 
BRANCH  17  18
ATOM     18  C   UNL     1      -0.053  -2.925  -4.881  0.00  0.00    -0.021 C 
BRANCH  18  22
ATOM     19  C   UNL     1      -0.307  -0.590  -1.310  0.00  0.00    +0.029 A 
ATOM     20  C   UNL     1      -0.278  -1.976  -1.234  0.00  0.00    +0.023 A 
ATOM     21  C   UNL     1      -0.196  -2.728  -2.390  0.00  0.00    +0.004 A 
ATOM     22  C   UNL     1      -0.143  -2.101  -3.622  0.00  0.00    -0.059 A 
ATOM     23  C   UNL     1      -0.173  -0.721  -3.701  0.00  0.00    +0.004 A 
ATOM     24  C   UNL     1      -0.260   0.036  -2.549  0.00  0.00    +0.023 A 
BRANCH  19  26
ATOM     25  C   UNL     1      -0.428   1.636  -0.225  0.00  0.00    +0.129 C 
ATOM     26  N   UNL     1      -0.391   0.173  -0.143  0.00  0.00    -0.336 N 
ATOM     27  C   UNL     1      -0.441  -0.489   1.163  0.00  0.00    +0.129 C 
ENDBRANCH  19  26
ENDBRANCH  18  22
BRANCH  18  28
ATOM     28  N   UNL     1      -0.902  -2.326  -5.919  0.00  0.00    +0.382 N 
ATOM     29  C   UNL     1      -0.894  -3.183  -7.112  0.00  0.00    -0.096 C 
ATOM     30  C   UNL     1      -2.277  -2.200  -5.416  0.00  0.00    -0.096 C 
ATOM     31  H   UNL     1      -0.547  -1.412  -6.159  0.00  0.00    -0.082 HD
ENDBRANCH  18  28
ENDBRANCH  17  18
ENDBRANCH   1  17
TORSDOF 8
