REMARK  Name = ZINC52096906
REMARK  8 active torsions:
REMARK  status: ('A' for Active; 'I' for Inactive)
REMARK    1  A    between atoms: C_1  and  C_2
REMARK    2  A    between atoms: C_2  and  C_3
REMARK    3  A    between atoms: C_2  and  C_14
REMARK    4  A    between atoms: C_2  and  O_20
REMARK    5  A    between atoms: C_3  and  O_4
REMARK    6  A    between atoms: O_4  and  C_5
REMARK    7  A    between atoms: C_6  and  C_12
REMARK    8  A    between atoms: C_12  and  N_13
REMARK                            x       y       z     vdW  Elec       q    Type
REMARK                         _______ _______ _______ _____ _____    ______ ____
ROOT
ATOM      1  O   UNL     1      -0.145   0.094   2.572  0.00  0.00    -0.487 OA
ENDROOT
BRANCH   1   2
ATOM      2  C   UNL     1       0.432  -0.427   3.687  0.00  0.00    +0.136 A 
ATOM      3  C   UNL     1       1.450   0.262   4.329  0.00  0.00    -0.022 A 
ATOM      4  C   UNL     1       2.035  -0.270   5.462  0.00  0.00    +0.005 A 
ATOM      5  C   UNL     1       1.606  -1.488   5.956  0.00  0.00    +0.002 A 
ATOM      6  C   UNL     1       0.592  -2.178   5.319  0.00  0.00    +0.019 A 
ATOM      7  C   UNL     1      -0.001  -1.647   4.188  0.00  0.00    +0.060 A 
ATOM      8 BR   UNL     1      -1.394  -2.586   3.320  0.00  0.00    -0.047 Br
BRANCH   3   9
ATOM      9  C   UNL     1       1.918   1.590   3.792  0.00  0.00    -0.047 C 
BRANCH   9  10
ATOM     10  N   UNL     1       0.957   2.636   4.166  0.00  0.00    +0.381 N 
ATOM     11  H   UNL     1       0.073   2.459   3.712  0.00  0.00    -0.090 HD
ATOM     12  H   UNL     1       0.828   2.632   5.167  0.00  0.00    -0.090 HD
ATOM     13  H   UNL     1       1.310   3.536   3.876  0.00  0.00    -0.090 HD
ENDBRANCH   9  10
ENDBRANCH   3   9
ENDBRANCH   1   2
BRANCH   1  14
ATOM     14  C   UNL     1       0.410  -0.291   1.313  0.00  0.00    +0.268 C 
BRANCH  14  16
ATOM     15  C   UNL     1      -0.424   1.833   0.295  0.00  0.00    +0.050 C 
ATOM     16  C   UNL     1      -0.428   0.307   0.181  0.00  0.00    +0.122 C 
BRANCH  16  17
ATOM     17  C   UNL     1       0.159  -0.099  -1.146  0.00  0.00    -0.013 A 
ATOM     18  C   UNL     1       1.517  -0.331  -1.260  0.00  0.00    +0.006 A 
ATOM     19  C   UNL     1       2.054  -0.703  -2.478  0.00  0.00    +0.000 A 
ATOM     20  C   UNL     1       1.234  -0.845  -3.582  0.00  0.00    +0.000 A 
ATOM     21  C   UNL     1      -0.124  -0.615  -3.467  0.00  0.00    +0.000 A 
ATOM     22  C   UNL     1      -0.662  -0.246  -2.248  0.00  0.00    +0.006 A 
ENDBRANCH  16  17
BRANCH  16  23
ATOM     23  O   UNL     1      -1.770  -0.174   0.277  0.00  0.00    -0.381 OA
ATOM     24  H   UNL     1      -1.848  -1.136   0.213  0.00  0.00    +0.211 HD
ENDBRANCH  16  23
ENDBRANCH  14  16
ENDBRANCH   1  14
TORSDOF 7
