REMARK  Name = ZINC22219887
REMARK  7 active torsions:
REMARK  status: ('A' for Active; 'I' for Inactive)
REMARK    1  A    between atoms: C_1  and  C_2
REMARK    2  A    between atoms: C_5  and  S_8
REMARK    3  A    between atoms: S_8  and  N_11
REMARK    4  A    between atoms: N_11  and  C_12
REMARK    5  A    between atoms: C_16  and  C_18
REMARK    6  A    between atoms: C_18  and  C_20
REMARK    7  A    between atoms: C_18  and  N_21
REMARK                            x       y       z     vdW  Elec       q    Type
REMARK                         _______ _______ _______ _____ _____    ______ ____
ROOT
ATOM      1  N   UNL     1       1.546   2.330   0.103  0.00  0.00    -0.216 N 
ATOM      2  H   UNL     1       1.941   2.239   1.126  0.00  0.00    +0.174 HD
ENDROOT
BRANCH   1   3
ATOM      3  C   UNL     1       2.405   2.205  -0.991  0.00  0.00    +0.048 A 
ATOM      4  C   UNL     1       2.404   1.040  -1.747  0.00  0.00    +0.024 A 
ATOM      5  C   UNL     1       3.250   0.921  -2.832  0.00  0.00    +0.002 A 
ATOM      6  C   UNL     1       4.106   1.958  -3.159  0.00  0.00    +0.002 A 
ATOM      7  C   UNL     1       4.114   3.116  -2.405  0.00  0.00    -0.060 A 
ATOM      8  C   UNL     1       3.265   3.243  -1.322  0.00  0.00    +0.026 A 
BRANCH   7   9
ATOM      9  C   UNL     1       5.048   4.243  -2.765  0.00  0.00    -0.047 C 
ATOM     10  C   UNL     1       4.455   5.045  -3.925  0.00  0.00    -0.009 C 
BRANCH   9  11
ATOM     11  N   UNL     1       6.349   3.691  -3.166  0.00  0.00    +0.382 N 
ATOM     12  H   UNL     1       7.031   4.513  -3.429  0.00  0.00    -0.089 HD
ATOM     13  H   UNL     1       6.215   3.032  -4.037  0.00  0.00    -0.089 HD
ATOM     14  H   UNL     1       6.775   3.114  -2.332  0.00  0.00    -0.089 HD
ENDBRANCH   9  11
ENDBRANCH   7   9
ENDBRANCH   1   3
BRANCH   1  15
ATOM     15  S   UNL     1      -0.068   2.615  -0.138  0.00  0.00    +0.072 S 
ATOM     16  O   UNL     1      -0.650   2.766   1.149  0.00  0.00    -0.150 OA
ATOM     17  O   UNL     1      -0.517   1.639  -1.068  0.00  0.00    -0.150 OA
BRANCH  15  22
ATOM     18  C   UNL     1      -0.543   7.965  -2.887  0.00  0.00    +0.044 C 
ATOM     19  C   UNL     1      -0.424   6.628  -2.200  0.00  0.00    -0.050 A 
ATOM     20  C   UNL     1      -0.292   5.475  -2.951  0.00  0.00    +0.005 A 
ATOM     21  C   UNL     1      -0.184   4.249  -2.321  0.00  0.00    +0.029 A 
ATOM     22  C   UNL     1      -0.206   4.177  -0.941  0.00  0.00    +0.109 A 
ATOM     23  C   UNL     1      -0.343   5.330  -0.191  0.00  0.00    +0.029 A 
ATOM     24  C   UNL     1      -0.447   6.556  -0.820  0.00  0.00    +0.005 A 
ENDBRANCH  15  22
ENDBRANCH   1  15
TORSDOF 5
