REMARK  Name = ZINC20418453
REMARK  15 active torsions:
REMARK  status: ('A' for Active; 'I' for Inactive)
REMARK    1  A    between atoms: C_1  and  C_2
REMARK    2  A    between atoms: C_7  and  C_8
REMARK    3  A    between atoms: C_8  and  N_9
REMARK    4  A    between atoms: N_9  and  C_10
REMARK    5  A    between atoms: N_9  and  C_20
REMARK    6  A    between atoms: C_12  and  C_18
REMARK    7  A    between atoms: C_12  and  C_19
REMARK    8  A    between atoms: C_14  and  C_16
REMARK    9  A    between atoms: C_14  and  C_17
REMARK   10  A    between atoms: C_20  and  N_22
REMARK   11  A    between atoms: N_22  and  C_23
REMARK   12  A    between atoms: C_25  and  O_31
REMARK   13  A    between atoms: C_27  and  O_29
REMARK   14  A    between atoms: O_29  and  C_30
REMARK   15  A    between atoms: O_31  and  C_32
REMARK                            x       y       z     vdW  Elec       q    Type
REMARK                         _______ _______ _______ _____ _____    ______ ____
ROOT
ATOM      1  N   UNL     1       1.593   4.909  -1.258  0.00  0.00    -0.305 N 
ENDROOT
BRANCH   1   2
ATOM      2  C   UNL     1       2.707   4.279  -1.978  0.00  0.00    +0.073 C 
ATOM      3  C   UNL     1       3.166   5.205  -3.105  0.00  0.00    +0.009 C 
ATOM      4  C   UNL     1       4.311   4.565  -3.885  0.00  0.00    -0.072 C 
ATOM      5  N   UNL     1       4.031   3.201  -4.283  0.00  0.00    +0.386 N 
ATOM      6  C   UNL     1       3.362   2.298  -3.371  0.00  0.00    -0.072 C 
ATOM      7  C   UNL     1       2.229   2.964  -2.595  0.00  0.00    +0.009 C 
ATOM      8  C   UNL     1       4.355   1.667  -2.388  0.00  0.00    -0.010 C 
ATOM      9  C   UNL     1       2.745   1.147  -4.198  0.00  0.00    -0.010 C 
ATOM     10  C   UNL     1       5.602   4.648  -3.061  0.00  0.00    -0.010 C 
ATOM     11  C   UNL     1       4.530   5.405  -5.163  0.00  0.00    -0.010 C 
ATOM     12  H   UNL     1       3.384   3.204  -5.173  0.00  0.00    -0.084 HD
ATOM     13  H   UNL     1       4.974   2.687  -4.518  0.00  0.00    -0.084 HD
ENDBRANCH   1   2
BRANCH   1  14
ATOM     14  C   UNL     1       0.446   5.191  -1.906  0.00  0.00    +0.138 C 
ATOM     15  S   UNL     1      -0.901   5.794  -1.038  0.00  0.00    -0.018 S 
BRANCH  14  16
ATOM     16  N   UNL     1       0.358   4.999  -3.237  0.00  0.00    -0.297 N 
ATOM     17  H   UNL     1       1.194   4.535  -3.782  0.00  0.00    +0.154 HD
BRANCH  16  18
ATOM     18  C   UNL     1      -0.795   5.391  -3.926  0.00  0.00    +0.040 A 
ATOM     19  C   UNL     1      -2.047   5.042  -3.438  0.00  0.00    +0.069 A 
ATOM     20  C   UNL     1      -3.189   5.435  -4.118  0.00  0.00    +0.125 A 
ATOM     21  C   UNL     1      -3.081   6.166  -5.292  0.00  0.00    +0.091 A 
ATOM     22  C   UNL     1      -1.830   6.509  -5.783  0.00  0.00    +0.125 A 
ATOM     23  C   UNL     1      -0.687   6.122  -5.101  0.00  0.00    +0.069 A 
BRANCH  22  24
ATOM     24  O   UNL     1      -1.725   7.226  -6.933  0.00  0.00    -0.495 OA
ATOM     25  C   UNL     1      -2.944   7.591  -7.583  0.00  0.00    +0.277 C 
ENDBRANCH  22  24
BRANCH  20  26
ATOM     26  O   UNL     1      -4.415   5.099  -3.637  0.00  0.00    -0.495 OA
ATOM     27  C   UNL     1      -5.549   5.532  -4.392  0.00  0.00    +0.277 C 
ENDBRANCH  20  26
ENDBRANCH  16  18
ENDBRANCH  14  16
ENDBRANCH   1  14
BRANCH   1  28
ATOM     28  C   UNL     1       1.730   5.229   0.165  0.00  0.00    +0.142 C 
BRANCH  28  35
ATOM     29  C   UNL     1       3.488   2.975   0.577  0.00  0.00    +0.044 C 
ATOM     30  C   UNL     1       2.111   2.977   1.188  0.00  0.00    -0.046 A 
ATOM     31  C   UNL     1       1.688   1.901   1.946  0.00  0.00    +0.003 A 
ATOM     32  C   UNL     1       0.424   1.903   2.506  0.00  0.00    +0.000 A 
ATOM     33  C   UNL     1      -0.417   2.982   2.308  0.00  0.00    +0.000 A 
ATOM     34  C   UNL     1       0.005   4.058   1.550  0.00  0.00    +0.005 A 
ATOM     35  C   UNL     1       1.269   4.056   0.991  0.00  0.00    -0.027 A 
ENDBRANCH  28  35
ENDBRANCH   1  28
TORSDOF 8
