REMARK  Name = ZINC04091334
REMARK  11 active torsions:
REMARK  status: ('A' for Active; 'I' for Inactive)
REMARK    1  A    between atoms: C_1  and  C_2
REMARK    2  A    between atoms: C_2  and  O_3
REMARK    3  A    between atoms: O_3  and  C_4
REMARK    4  A    between atoms: C_4  and  C_6
REMARK    5  A    between atoms: C_9  and  N_12
REMARK    6  A    between atoms: C_13  and  C_15
REMARK    7  A    between atoms: N_17  and  N_18
REMARK    8  A    between atoms: C_19  and  C_20
REMARK    9  A    between atoms: C_22  and  C_34
REMARK   10  A    between atoms: N_23  and  C_26
REMARK   11  A    between atoms: C_24  and  C_25
REMARK                            x       y       z     vdW  Elec       q    Type
REMARK                         _______ _______ _______ _____ _____    ______ ____
ROOT
ATOM      1  C   UNL     1      -0.004   1.472   0.177  0.00  0.00    +0.318 C 
ATOM      2  O   UNL     1      -1.046   2.078   0.025  0.00  0.00    -0.263 OA
ATOM      3  N   UNL     1       1.150   2.148   0.341  0.00  0.00    -0.199 N 
ATOM      4  H   UNL     1       1.983   1.665   0.458  0.00  0.00    +0.178 HD
ENDROOT
BRANCH   1   6
ATOM      5  N   UNL     1      -1.156  -0.694   0.009  0.00  0.00    -0.278 N 
ATOM      6  C   UNL     1      -0.001  -0.018   0.174  0.00  0.00    +0.305 C 
ATOM      7  O   UNL     1       1.041  -0.623   0.320  0.00  0.00    -0.265 OA
ATOM      8  H   UNL     1      -1.998  -0.213  -0.031  0.00  0.00    +0.155 HD
BRANCH   5  12
ATOM      9  C   UNL     1      -1.110  -4.844  -0.328  0.00  0.00    +0.059 A 
ATOM     10  C   UNL     1      -2.184  -4.203   0.296  0.00  0.00    +0.017 A 
ATOM     11  C   UNL     1      -2.197  -2.832   0.406  0.00  0.00    +0.024 A 
ATOM     12  C   UNL     1      -1.140  -2.082  -0.103  0.00  0.00    +0.034 A 
ATOM     13  C   UNL     1      -0.071  -2.716  -0.730  0.00  0.00    +0.024 A 
ATOM     14  C   UNL     1      -0.050  -4.087  -0.839  0.00  0.00    +0.017 A 
BRANCH   9  15
ATOM     15  C   UNL     1      -1.093  -6.314  -0.447  0.00  0.00    +0.339 C 
ATOM     16  O   UNL     1      -2.014  -6.970  -0.002  0.00  0.00    -0.245 OA
BRANCH  15  17
ATOM     17  O   UNL     1      -0.056  -6.929  -1.049  0.00  0.00    -0.461 OA
BRANCH  17  19
ATOM     18  C   UNL     1       1.146  -8.893  -1.841  0.00  0.00    +0.048 C 
ATOM     19  C   UNL     1      -0.107  -8.378  -1.130  0.00  0.00    +0.229 C 
ENDBRANCH  17  19
ENDBRANCH  15  17
ENDBRANCH   9  15
ENDBRANCH   5  12
ENDBRANCH   1   6
BRANCH   3  20
ATOM     20  N   UNL     1       1.148   3.549   0.344  0.00  0.00    -0.187 NA
ATOM     21  C   UNL     1       2.261   4.201   0.502  0.00  0.00    +0.140 C 
BRANCH  21  22
ATOM     22  C   UNL     1       2.259   5.673   0.505  0.00  0.00    +0.016 A 
ATOM     23  C   UNL     1       3.418   6.555   0.670  0.00  0.00    +0.032 A 
ATOM     24  C   UNL     1       2.954   7.816   0.608  0.00  0.00    +0.022 A 
ATOM     25  N   UNL     1       1.602   7.781   0.417  0.00  0.00    -0.317 N 
ATOM     26  C   UNL     1       1.175   6.492   0.348  0.00  0.00    +0.030 A 
ATOM     27  C   UNL     1      -0.248   6.043   0.139  0.00  0.00    +0.064 C 
ATOM     28  C   UNL     1       3.790   9.065   0.729  0.00  0.00    +0.064 C 
BRANCH  25  29
ATOM     29  C   UNL     1       0.777   8.908   0.303  0.00  0.00    +0.049 A 
ATOM     30  C   UNL     1      -0.192   9.160   1.265  0.00  0.00    +0.046 A 
ATOM     31  C   UNL     1      -1.002  10.275   1.152  0.00  0.00    +0.044 A 
ATOM     32  C   UNL     1      -0.854  11.134   0.077  0.00  0.00    +0.040 A 
ATOM     33  C   UNL     1       0.108  10.882  -0.885  0.00  0.00    +0.044 A 
ATOM     34  C   UNL     1       0.923   9.771  -0.774  0.00  0.00    +0.046 A 
ATOM     35 CL   UNL     1       0.291  11.961  -2.232  0.00  0.00    -0.083 Cl
ATOM     36 CL   UNL     1      -2.211  10.594   2.357  0.00  0.00    -0.083 Cl
ENDBRANCH  25  29
ENDBRANCH  21  22
ENDBRANCH   3  20
TORSDOF 8
