REMARK  Name = ZINC08774615
REMARK  10 active torsions:
REMARK  status: ('A' for Active; 'I' for Inactive)
REMARK    1  A    between atoms: C_1  and  C_2
REMARK    2  A    between atoms: C_2  and  C_3
REMARK    3  A    between atoms: C_2  and  C_4
REMARK    4  A    between atoms: C_7  and  S_10
REMARK    5  A    between atoms: S_10  and  N_13
REMARK    6  A    between atoms: N_16  and  C_19
REMARK    7  A    between atoms: C_19  and  C_21
REMARK    8  A    between atoms: C_19  and  C_22
REMARK    9  A    between atoms: N_24  and  C_25
REMARK   10  A    between atoms: C_30  and  C_31
REMARK                            x       y       z     vdW  Elec       q    Type
REMARK                         _______ _______ _______ _____ _____    ______ ____
ROOT
ATOM      1  N   UNL     1      -6.872  -1.429  -0.554  0.00  0.00    -0.180 NA
ATOM      2  C   UNL     1      -7.608  -0.502   0.320  0.00  0.00    +0.091 C 
ATOM      3  C   UNL     1      -9.020  -0.318  -0.245  0.00  0.00    -0.060 C 
ATOM      4  N   UNL     1      -8.933   0.111  -1.647  0.00  0.00    +0.389 N 
ATOM      5  C   UNL     1      -8.317  -0.948  -2.457  0.00  0.00    -0.060 C 
ATOM      6  C   UNL     1      -6.865  -1.160  -2.000  0.00  0.00    +0.091 C 
ATOM      7  H   UNL     1      -8.372   0.947  -1.707  0.00  0.00    -0.081 HD
ENDROOT
BRANCH   1   8
ATOM      8  S   UNL     1      -6.068  -2.733   0.073  0.00  0.00    +0.061 S 
ATOM      9  O   UNL     1      -5.955  -3.684  -0.977  0.00  0.00    -0.153 OA
ATOM     10  O   UNL     1      -6.692  -3.038   1.313  0.00  0.00    -0.153 OA
BRANCH   8  14
ATOM     11  C   UNL     1      -1.861  -1.375   1.045  0.00  0.00    -0.045 A 
ATOM     12  C   UNL     1      -2.858  -1.271   1.997  0.00  0.00    +0.006 A 
ATOM     13  C   UNL     1      -4.143  -1.686   1.700  0.00  0.00    +0.029 A 
ATOM     14  C   UNL     1      -4.430  -2.204   0.451  0.00  0.00    +0.105 A 
ATOM     15  C   UNL     1      -3.433  -2.307  -0.501  0.00  0.00    +0.029 A 
ATOM     16  C   UNL     1      -2.150  -1.889  -0.205  0.00  0.00    +0.006 A 
BRANCH  11  18
ATOM     17  C   UNL     1      -0.475   0.562   1.735  0.00  0.00    +0.012 C 
ATOM     18  C   UNL     1      -0.460  -0.923   1.369  0.00  0.00    +0.013 C 
ATOM     19  C   UNL     1       0.078  -1.734   2.550  0.00  0.00    +0.012 C 
ENDBRANCH  11  18
ENDBRANCH   8  14
ENDBRANCH   1   8
BRANCH   4  20
ATOM     20  C   UNL     1     -10.282   0.392  -2.156  0.00  0.00    +0.017 C 
ATOM     21  C   UNL     1     -10.207   0.707  -3.651  0.00  0.00    -0.004 C 
BRANCH  20  22
ATOM     22  C   UNL     1     -10.859   1.575  -1.422  0.00  0.00    +0.203 C 
ATOM     23  O   UNL     1     -10.140   2.274  -0.739  0.00  0.00    -0.277 OA
ATOM     24  N   UNL     1     -12.173   1.856  -1.524  0.00  0.00    -0.286 N 
ATOM     25  H   UNL     1     -12.761   1.256  -2.008  0.00  0.00    +0.155 HD
BRANCH  24  26
ATOM     26  C   UNL     1     -12.688   3.013  -0.933  0.00  0.00    +0.041 A 
ATOM     27  C   UNL     1     -12.153   3.485   0.257  0.00  0.00    +0.024 A 
ATOM     28  C   UNL     1     -12.664   4.628   0.840  0.00  0.00    +0.002 A 
ATOM     29  C   UNL     1     -13.710   5.310   0.242  0.00  0.00    +0.001 A 
ATOM     30  C   UNL     1     -14.251   4.853  -0.943  0.00  0.00    +0.010 A 
ATOM     31  C   UNL     1     -13.741   3.704  -1.542  0.00  0.00    +0.003 A 
BRANCH  31  32
ATOM     32  C   UNL     1     -14.316   3.212  -2.818  0.00  0.00    -0.016 A 
ATOM     33  C   UNL     1     -13.479   2.893  -3.886  0.00  0.00    +0.008 A 
ATOM     34  C   UNL     1     -14.019   2.436  -5.070  0.00  0.00    +0.001 A 
ATOM     35  C   UNL     1     -15.389   2.292  -5.199  0.00  0.00    +0.000 A 
ATOM     36  C   UNL     1     -16.225   2.606  -4.142  0.00  0.00    +0.001 A 
ATOM     37  C   UNL     1     -15.695   3.060  -2.951  0.00  0.00    +0.008 A 
ENDBRANCH  31  32
ENDBRANCH  24  26
ENDBRANCH  20  22
ENDBRANCH   4  20
TORSDOF 7
