REMARK  Name = ZINC03840107
REMARK  7 active torsions:
REMARK  status: ('A' for Active; 'I' for Inactive)
REMARK    1  A    between atoms: C_1  and  C_2
REMARK    2  A    between atoms: C_5  and  N_8
REMARK    3  A    between atoms: N_11  and  C_12
REMARK    4  A    between atoms: C_15  and  C_23
REMARK    5  A    between atoms: C_17  and  O_22
REMARK    6  A    between atoms: C_19  and  O_21
REMARK    7  A    between atoms: C_34  and  C_36
REMARK                            x       y       z     vdW  Elec       q    Type
REMARK                         _______ _______ _______ _____ _____    ______ ____
ROOT
ATOM      1  C   UNL     1       6.654  -2.733  -0.757  0.00  0.00    +0.129 C 
ATOM      2  C   UNL     1       5.968  -1.466  -0.337  0.00  0.00    +0.006 C 
ATOM      3  C   UNL     1       4.872  -1.007  -0.900  0.00  0.00    +0.015 C 
ATOM      4  C   UNL     1       4.168  -1.689  -2.037  0.00  0.00    +0.074 C 
ATOM      5  C   UNL     1       4.640  -3.138  -2.157  0.00  0.00    +0.149 C 
ATOM      6  C   UNL     1       6.173  -3.157  -2.146  0.00  0.00    +0.167 C 
ENDROOT
BRANCH   3   7
ATOM      7  C   UNL     1       4.298   0.245  -0.383  0.00  0.00    +0.243 C 
ATOM      8  O   UNL     1       3.592   0.227   0.608  0.00  0.00    -0.270 OA
ATOM      9  N   UNL     1       4.555   1.413  -1.005  0.00  0.00    -0.282 N 
ATOM     10  C   UNL     1       5.740   1.579  -1.854  0.00  0.00    +0.144 C 
ATOM     11  C   UNL     1       5.355   2.290  -3.128  0.00  0.00    -0.027 A 
ATOM     12  C   UNL     1       6.291   2.334  -4.153  0.00  0.00    +0.005 A 
ATOM     13  C   UNL     1       6.007   2.990  -5.333  0.00  0.00    +0.000 A 
ATOM     14  C   UNL     1       4.781   3.608  -5.495  0.00  0.00    +0.000 A 
ATOM     15  C   UNL     1       3.849   3.561  -4.480  0.00  0.00    +0.004 A 
ATOM     16  C   UNL     1       4.131   2.897  -3.292  0.00  0.00    -0.040 A 
ATOM     17  C   UNL     1       3.061   2.877  -2.232  0.00  0.00    +0.067 C 
ATOM     18  C   UNL     1       3.659   2.571  -0.860  0.00  0.00    +0.167 C 
BRANCH  18  19
ATOM     19  C   UNL     1       2.558   2.245   0.115  0.00  0.00    +0.231 C 
ATOM     20  O   UNL     1       2.809   2.120   1.295  0.00  0.00    -0.274 OA
ATOM     21  N   UNL     1       1.292   2.092  -0.324  0.00  0.00    -0.328 N 
ATOM     22  H   UNL     1       1.091   2.192  -1.267  0.00  0.00    +0.145 HD
ATOM     23  H   UNL     1       0.583   1.881   0.304  0.00  0.00    +0.145 HD
ENDBRANCH  18  19
ENDBRANCH   3   7
BRANCH   1  27
ATOM     24  N   UNL     1       6.800  -4.894   2.214  0.00  0.00    -0.269 N 
ATOM     25  C   UNL     1       7.082  -3.918   1.329  0.00  0.00    +0.304 C 
ATOM     26  O   UNL     1       8.000  -3.150   1.543  0.00  0.00    -0.252 OA
ATOM     27  N   UNL     1       6.347  -3.794   0.206  0.00  0.00    -0.290 N 
ATOM     28  H   UNL     1       6.109  -5.545   2.015  0.00  0.00    +0.156 HD
ATOM     29  H   UNL     1       5.615  -4.406   0.035  0.00  0.00    +0.151 HD
BRANCH  24  34
ATOM     30  C   UNL     1       9.650  -5.196   7.110  0.00  0.00    +0.044 C 
ATOM     31  C   UNL     1       8.893  -5.115   5.810  0.00  0.00    -0.050 A 
ATOM     32  C   UNL     1       7.589  -5.571   5.741  0.00  0.00    +0.005 A 
ATOM     33  C   UNL     1       6.893  -5.499   4.551  0.00  0.00    +0.023 A 
ATOM     34  C   UNL     1       7.503  -4.968   3.422  0.00  0.00    +0.035 A 
ATOM     35  C   UNL     1       8.814  -4.516   3.493  0.00  0.00    +0.023 A 
ATOM     36  C   UNL     1       9.503  -4.586   4.688  0.00  0.00    +0.005 A 
ENDBRANCH  24  34
ENDBRANCH   1  27
BRANCH   6  37
ATOM     37  O   UNL     1       6.643  -4.476  -2.434  0.00  0.00    -0.387 OA
ATOM     38  H   UNL     1       6.373  -4.808  -3.301  0.00  0.00    +0.210 HD
ENDBRANCH   6  37
BRANCH   5  39
ATOM     39  O   UNL     1       4.161  -3.701  -3.380  0.00  0.00    -0.389 OA
ATOM     40  H   UNL     1       3.197  -3.720  -3.454  0.00  0.00    +0.210 HD
ENDBRANCH   5  39
TORSDOF 6
