REMARK  Name = ZINC16426328
REMARK  14 active torsions:
REMARK  status: ('A' for Active; 'I' for Inactive)
REMARK    1  A    between atoms: C_1  and  C_2
REMARK    2  A    between atoms: C_2  and  C_3
REMARK    3  A    between atoms: C_3  and  C_5
REMARK    4  A    between atoms: C_3  and  N_24
REMARK    5  A    between atoms: N_15  and  C_16
REMARK    6  A    between atoms: C_19  and  C_23
REMARK    7  A    between atoms: C_20  and  C_22
REMARK    8  A    between atoms: N_24  and  C_25
REMARK    9  A    between atoms: C_25  and  C_26
REMARK   10  A    between atoms: C_26  and  C_27
REMARK   11  A    between atoms: C_26  and  C_28
REMARK   12  A    between atoms: N_31  and  C_32
REMARK   13  A    between atoms: C_33  and  C_39
REMARK   14  A    between atoms: C_37  and  C_38
REMARK                            x       y       z     vdW  Elec       q    Type
REMARK                         _______ _______ _______ _____ _____    ______ ____
ROOT
ATOM      1  C   UNL     1      -2.270   1.635   0.846  0.00  0.00    +0.144 C 
ENDROOT
BRANCH   1   2
ATOM      2  C   UNL     1      -3.520   1.131   0.171  0.00  0.00    +0.138 A 
ATOM      3  N   UNL     1      -3.518  -0.076  -0.308  0.00  0.00    -0.231 NA
ATOM      4  C   UNL     1      -4.608  -0.598  -0.924  0.00  0.00    +0.078 A 
ATOM      5  C   UNL     1      -4.608  -1.898  -1.434  0.00  0.00    +0.028 A 
ATOM      6  C   UNL     1      -5.734  -2.386  -2.058  0.00  0.00    +0.002 A 
ATOM      7  C   UNL     1      -6.873  -1.601  -2.185  0.00  0.00    +0.001 A 
ATOM      8  C   UNL     1      -6.897  -0.316  -1.691  0.00  0.00    +0.015 A 
ATOM      9  C   UNL     1      -5.768   0.197  -1.056  0.00  0.00    +0.065 A 
ATOM     10  C   UNL     1      -5.736   1.561  -0.509  0.00  0.00    +0.266 A 
ATOM     11  O   UNL     1      -6.702   2.298  -0.590  0.00  0.00    -0.267 OA
ATOM     12  N   UNL     1      -4.591   1.966   0.088  0.00  0.00    -0.263 N 
BRANCH  12  13
ATOM     13  C   UNL     1      -4.507   3.257   0.626  0.00  0.00    +0.051 A 
ATOM     14  C   UNL     1      -4.455   3.436   2.002  0.00  0.00    +0.026 A 
ATOM     15  C   UNL     1      -4.367   4.709   2.529  0.00  0.00    +0.005 A 
ATOM     16  C   UNL     1      -4.342   5.807   1.687  0.00  0.00    -0.047 A 
ATOM     17  C   UNL     1      -4.400   5.633   0.317  0.00  0.00    -0.046 A 
ATOM     18  C   UNL     1      -4.482   4.361  -0.216  0.00  0.00    +0.030 A 
ATOM     19  C   UNL     1      -4.373   6.831  -0.596  0.00  0.00    +0.044 C 
ATOM     20  C   UNL     1      -4.252   7.196   2.266  0.00  0.00    +0.044 C 
ENDBRANCH  12  13
ENDBRANCH   1   2
BRANCH   1  21
ATOM     21  N   UNL     1      -1.200   1.771  -0.146  0.00  0.00    -0.275 N 
ATOM     22  C   UNL     1      -0.549   2.944  -0.277  0.00  0.00    +0.307 C 
ATOM     23  O   UNL     1      -0.849   3.888   0.427  0.00  0.00    -0.252 OA
ATOM     24  N   UNL     1       0.435   3.069  -1.189  0.00  0.00    -0.269 N 
ATOM     25  H   UNL     1       0.623   2.342  -1.803  0.00  0.00    +0.156 HD
BRANCH  24  26
ATOM     26  C   UNL     1       1.183   4.251  -1.254  0.00  0.00    +0.041 A 
ATOM     27  C   UNL     1       0.543   5.469  -1.442  0.00  0.00    -0.029 A 
ATOM     28  C   UNL     1       1.283   6.634  -1.500  0.00  0.00    +0.005 A 
ATOM     29  C   UNL     1       2.660   6.587  -1.382  0.00  0.00    +0.001 A 
ATOM     30  C   UNL     1       3.300   5.375  -1.201  0.00  0.00    +0.005 A 
ATOM     31  C   UNL     1       2.565   4.207  -1.137  0.00  0.00    -0.029 A 
ATOM     32  C   UNL     1       3.264   2.886  -0.938  0.00  0.00    +0.045 C 
ATOM     33  C   UNL     1      -0.957   5.521  -1.577  0.00  0.00    +0.045 C 
ENDBRANCH  24  26
BRANCH  21  34
ATOM     34  C   UNL     1      -0.839   0.633  -0.994  0.00  0.00    +0.113 C 
BRANCH  34  35
ATOM     35  C   UNL     1      -1.638   0.695  -2.298  0.00  0.00    +0.000 C 
ATOM     36  C   UNL     1      -1.223   1.936  -3.092  0.00  0.00    +0.009 C 
ATOM     37  C   UNL     1      -1.357  -0.559  -3.128  0.00  0.00    +0.009 C 
ENDBRANCH  34  35
ENDBRANCH  21  34
ENDBRANCH   1  21
BRANCH   1  39
ATOM     38  C   UNL     1      -0.643   1.210   2.693  0.00  0.00    +0.006 C 
ATOM     39  C   UNL     1      -1.840   0.642   1.927  0.00  0.00    +0.027 C 
ENDBRANCH   1  39
TORSDOF 7
