REMARK  Name = ZINC40920686
REMARK  11 active torsions:
REMARK  status: ('A' for Active; 'I' for Inactive)
REMARK    1  A    between atoms: C_1  and  C_2
REMARK    2  A    between atoms: C_7  and  N_8
REMARK    3  A    between atoms: C_9  and  C_11
REMARK    4  A    between atoms: C_12  and  C_38
REMARK    5  A    between atoms: C_19  and  C_21
REMARK    6  A    between atoms: C_24  and  O_29
REMARK    7  A    between atoms: C_25  and  O_27
REMARK    8  A    between atoms: O_27  and  C_28
REMARK    9  A    between atoms: O_29  and  C_30
REMARK   10  A    between atoms: C_30  and  C_31
REMARK   11  A    between atoms: C_31  and  C_32
REMARK                            x       y       z     vdW  Elec       q    Type
REMARK                         _______ _______ _______ _____ _____    ______ ____
ROOT
ATOM      1  C   UNL     1       0.120   0.188   4.301  0.00  0.00    +0.060 C 
ATOM      2  C   UNL     1       0.194  -0.601   5.382  0.00  0.00    +0.018 C 
ATOM      3  N   UNL     1       0.148  -0.100   6.661  0.00  0.00    -0.286 N 
ATOM      4  C   UNL     1       0.280   1.272   6.812  0.00  0.00    +0.240 A 
ATOM      5  N   UNL     1       0.486   1.998   7.874  0.00  0.00    -0.092 NA
ATOM      6  N   UNL     1       0.549   3.246   7.557  0.00  0.00    -0.021 NA
ATOM      7  N   UNL     1       0.388   3.396   6.282  0.00  0.00    -0.042 NA
ATOM      8  N   UNL     1       0.204   2.120   5.753  0.00  0.00    -0.201 N 
ATOM      9  C   UNL     1      -0.025   1.684   4.382  0.00  0.00    +0.179 C 
ATOM     10  C   UNL     1       0.331  -2.090   5.189  0.00  0.00    +0.061 C 
ATOM     11  H   UNL     1       0.027  -0.683   7.427  0.00  0.00    +0.155 HD
ENDROOT
BRANCH   9  12
ATOM     12  C   UNL     1      -1.417   2.078   3.960  0.00  0.00    -0.015 A 
ATOM     13  C   UNL     1      -2.504   1.692   4.723  0.00  0.00    +0.010 A 
ATOM     14  C   UNL     1      -3.783   2.051   4.340  0.00  0.00    +0.050 A 
ATOM     15  C   UNL     1      -3.978   2.800   3.190  0.00  0.00    +0.162 A 
ATOM     16  C   UNL     1      -2.884   3.189   2.424  0.00  0.00    +0.162 A 
ATOM     17  C   UNL     1      -1.604   2.830   2.815  0.00  0.00    +0.055 A 
BRANCH  16  18
ATOM     18  O   UNL     1      -3.070   3.924   1.294  0.00  0.00    -0.491 OA
ATOM     19  C   UNL     1      -1.914   4.194   0.498  0.00  0.00    +0.277 C 
ENDBRANCH  16  18
BRANCH  15  20
ATOM     20  O   UNL     1      -5.235   3.153   2.812  0.00  0.00    -0.488 OA
BRANCH  20  21
ATOM     21  C   UNL     1      -6.310   2.718   3.647  0.00  0.00    +0.234 C 
BRANCH  21  22
ATOM     22  C   UNL     1      -7.638   3.208   3.066  0.00  0.00    +0.076 C 
BRANCH  22  23
ATOM     23  C   UNL     1      -8.771   2.749   3.947  0.00  0.00    -0.044 A 
ATOM     24  C   UNL     1      -9.378   1.529   3.713  0.00  0.00    +0.004 A 
ATOM     25  C   UNL     1     -10.418   1.108   4.521  0.00  0.00    +0.000 A 
ATOM     26  C   UNL     1     -10.851   1.907   5.563  0.00  0.00    +0.000 A 
ATOM     27  C   UNL     1     -10.244   3.127   5.797  0.00  0.00    +0.000 A 
ATOM     28  C   UNL     1      -9.201   3.546   4.992  0.00  0.00    +0.004 A 
ENDBRANCH  22  23
ENDBRANCH  21  22
ENDBRANCH  20  21
ENDBRANCH  15  20
ENDBRANCH   9  12
BRANCH   1  30
ATOM     29  N   UNL     1      -0.913  -0.973   2.481  0.00  0.00    -0.281 N 
ATOM     30  C   UNL     1       0.188  -0.414   3.022  0.00  0.00    +0.248 C 
ATOM     31  O   UNL     1       1.240  -0.427   2.410  0.00  0.00    -0.270 OA
ATOM     32  H   UNL     1      -1.767  -0.902   2.936  0.00  0.00    +0.155 HD
BRANCH  29  39
ATOM     33  C   UNL     1      -3.308  -1.407   1.007  0.00  0.00    +0.045 C 
ATOM     34  C   UNL     1      -1.969  -1.889   0.512  0.00  0.00    -0.029 A 
ATOM     35  C   UNL     1      -1.877  -2.559  -0.692  0.00  0.00    +0.005 A 
ATOM     36  C   UNL     1      -0.649  -3.002  -1.147  0.00  0.00    +0.000 A 
ATOM     37  C   UNL     1       0.491  -2.776  -0.398  0.00  0.00    +0.002 A 
ATOM     38  C   UNL     1       0.407  -2.107   0.807  0.00  0.00    +0.023 A 
ATOM     39  C   UNL     1      -0.825  -1.656   1.264  0.00  0.00    +0.037 A 
ENDBRANCH  29  39
ENDBRANCH   1  30
TORSDOF 8
