REMARK  Name = ZINC39561037
REMARK  7 active torsions:
REMARK  status: ('A' for Active; 'I' for Inactive)
REMARK    1  A    between atoms: C_3  and  C_6
REMARK    2  A    between atoms: C_9  and  C_28
REMARK    3  A    between atoms: C_12  and  C_14
REMARK    4  A    between atoms: C_14  and  O_15
REMARK    5  A    between atoms: O_15  and  C_16
REMARK    6  A    between atoms: C_16  and  C_18
REMARK    7  A    between atoms: C_20  and  N_26
REMARK                            x       y       z     vdW  Elec       q    Type
REMARK                         _______ _______ _______ _____ _____    ______ ____
ROOT
ATOM      1  C   UNL     1       3.599   0.625  -0.029  0.00  0.00    +0.173 C 
ATOM      2  C   UNL     1       4.120   0.317  -1.447  0.00  0.00    +0.090 C 
ATOM      3  C   UNL     1       4.876  -0.982  -1.283  0.00  0.00    +0.075 C 
ATOM      4  N   UNL     1       4.819  -1.361  -0.050  0.00  0.00    -0.180 NA
ATOM      5  N   UNL     1       4.099  -0.498   0.779  0.00  0.00    -0.179 N 
ATOM      6  C   UNL     1       3.893  -0.666   2.100  0.00  0.00    +0.273 C 
ATOM      7  O   UNL     1       3.248   0.152   2.722  0.00  0.00    -0.270 OA
ENDROOT
BRANCH   1  10
ATOM      8  C   UNL     1      -0.016   1.341   0.009  0.00  0.00    +0.041 A 
ATOM      9  C   UNL     1       1.331   1.769  -0.001  0.00  0.00    +0.046 A 
ATOM     10  C   UNL     1       2.092   0.660  -0.014  0.00  0.00    +0.128 A 
ATOM     11  O   UNL     1       1.282  -0.411  -0.012  0.00  0.00    -0.466 OA
ATOM     12  C   UNL     1       0.002  -0.004   0.002  0.00  0.00    +0.195 A 
ENDBRANCH   1  10
BRANCH   3  13
ATOM     13  C   UNL     1       5.567  -1.701  -2.359  0.00  0.00    +0.035 A 
ATOM     14  C   UNL     1       6.274  -2.890  -2.300  0.00  0.00    +0.017 A 
ATOM     15  C   UNL     1       6.840  -3.371  -3.458  0.00  0.00    +0.008 A 
ATOM     16  C   UNL     1       6.690  -2.671  -4.612  0.00  0.00    +0.046 A 
ATOM     17  S   UNL     1       5.710  -1.275  -4.087  0.00  0.00    -0.095 S 
ENDBRANCH   3  13
BRANCH   6  18
ATOM     18  C   UNL     1       4.465  -1.868   2.806  0.00  0.00    +0.330 C 
BRANCH  18  19
ATOM     19  O   UNL     1       4.114  -1.821   4.190  0.00  0.00    -0.451 OA
BRANCH  19  20
ATOM     20  C   UNL     1       4.551  -2.830   4.967  0.00  0.00    +0.360 C 
ATOM     21  O   UNL     1       5.213  -3.726   4.483  0.00  0.00    -0.243 OA
BRANCH  20  22
ATOM     22  C   UNL     1       4.226  -2.847   6.410  0.00  0.00    +0.169 A 
ATOM     23  C   UNL     1       4.686  -3.891   7.208  0.00  0.00    +0.095 A 
ATOM     24  C   UNL     1       4.370  -3.892   8.568  0.00  0.00    +0.067 A 
ATOM     25  C   UNL     1       3.604  -2.842   9.070  0.00  0.00    +0.100 A 
ATOM     26  C   UNL     1       3.183  -1.839   8.211  0.00  0.00    +0.150 A 
ATOM     27  N   UNL     1       3.501  -1.863   6.933  0.00  0.00    -0.226 NA
ATOM     28 CL   UNL     1       2.228  -0.528   8.829  0.00  0.00    -0.060 Cl
ATOM     29 CL   UNL     1       3.180  -2.791  10.752  0.00  0.00    -0.078 Cl
ATOM     30 CL   UNL     1       5.637  -5.171   6.523  0.00  0.00    -0.079 Cl
BRANCH  24  31
ATOM     31  N   UNL     1       4.810  -4.917   9.402  0.00  0.00    -0.356 N 
ATOM     32  H   UNL     1       5.343  -5.643   9.040  0.00  0.00    +0.142 HD
ATOM     33  H   UNL     1       4.584  -4.906  10.345  0.00  0.00    +0.142 HD
ENDBRANCH  24  31
ENDBRANCH  20  22
ENDBRANCH  19  20
ENDBRANCH  18  19
ENDBRANCH   6  18
TORSDOF 7
