REMARK  Name = ZINC39653525
REMARK  11 active torsions:
REMARK  status: ('A' for Active; 'I' for Inactive)
REMARK    1  A    between atoms: C_1  and  C_2
REMARK    2  A    between atoms: C_2  and  O_3
REMARK    3  A    between atoms: O_3  and  C_4
REMARK    4  A    between atoms: C_6  and  C_12
REMARK    5  A    between atoms: C_9  and  O_10
REMARK    6  A    between atoms: O_10  and  C_11
REMARK    7  A    between atoms: C_12  and  C_13
REMARK    8  A    between atoms: C_13  and  N_14
REMARK    9  A    between atoms: C_15  and  C_17
REMARK   10  A    between atoms: C_28  and  C_30
REMARK   11  A    between atoms: C_33  and  C_35
REMARK                            x       y       z     vdW  Elec       q    Type
REMARK                         _______ _______ _______ _____ _____    ______ ____
ROOT
ATOM      1  C   UNL     1      -4.097  -7.559   2.031  0.00  0.00    +0.100 C 
ATOM      2  C   UNL     1      -4.020  -6.920   3.436  0.00  0.00    +0.121 C 
ATOM      3  N   UNL     1      -5.343  -6.283   3.630  0.00  0.00    -0.294 N 
ATOM      4  C   UNL     1      -6.306  -7.243   3.039  0.00  0.00    +0.115 C 
ATOM      5  C   UNL     1      -5.598  -7.772   1.776  0.00  0.00    -0.004 C 
ATOM      6  C   UNL     1      -6.044  -6.979   0.551  0.00  0.00    -0.010 C 
ATOM      7  C   UNL     1      -7.527  -7.252   0.284  0.00  0.00    -0.082 C 
ATOM      8  N   UNL     1      -7.730  -8.688   0.062  0.00  0.00    +0.379 N 
ATOM      9  C   UNL     1      -7.386  -9.437   1.277  0.00  0.00    -0.082 C 
ATOM     10  C   UNL     1      -5.897  -9.256   1.586  0.00  0.00    -0.010 C 
ATOM     11  C   UNL     1      -5.611  -5.097   4.213  0.00  0.00    +0.282 C 
ATOM     12  O   UNL     1      -6.761  -4.707   4.298  0.00  0.00    -0.267 OA
ATOM     13  H   UNL     1      -8.696  -8.858  -0.174  0.00  0.00    -0.086 HD
ATOM     14  H   UNL     1      -7.142  -8.996  -0.698  0.00  0.00    -0.086 HD
ENDROOT
BRANCH  11  15
ATOM     15  C   UNL     1      -4.519  -4.278   4.744  0.00  0.00    +0.190 A 
ATOM     16  C   UNL     1      -4.652  -3.056   5.365  0.00  0.00    +0.055 A 
ATOM     17  C   UNL     1      -3.363  -2.635   5.709  0.00  0.00    +0.050 A 
ATOM     18  C   UNL     1      -2.499  -3.605   5.289  0.00  0.00    +0.136 A 
ATOM     19  O   UNL     1      -3.206  -4.592   4.715  0.00  0.00    -0.450 OA
BRANCH  18  20
ATOM     20  C   UNL     1      -1.031  -3.576   5.446  0.00  0.00    +0.017 A 
ATOM     21  C   UNL     1      -0.413  -2.492   6.074  0.00  0.00    +0.011 A 
ATOM     22  C   UNL     1       0.958  -2.472   6.218  0.00  0.00    +0.001 A 
ATOM     23  C   UNL     1       1.722  -3.523   5.741  0.00  0.00    +0.000 A 
ATOM     24  C   UNL     1       1.117  -4.599   5.117  0.00  0.00    +0.001 A 
ATOM     25  C   UNL     1      -0.254  -4.635   4.972  0.00  0.00    +0.011 A 
ENDBRANCH  18  20
ENDBRANCH  11  15
BRANCH   1  27
ATOM     26  N   UNL     1      -2.961  -7.127  -0.123  0.00  0.00    -0.315 N 
ATOM     27  C   UNL     1      -3.516  -6.627   0.999  0.00  0.00    +0.218 C 
ATOM     28  O   UNL     1      -3.549  -5.428   1.177  0.00  0.00    -0.275 OA
ATOM     29  H   UNL     1      -2.934  -8.086  -0.266  0.00  0.00    +0.149 HD
BRANCH  26  30
ATOM     30  C   UNL     1      -2.396  -6.221  -1.127  0.00  0.00    +0.109 C 
BRANCH  30  31
ATOM     31  C   UNL     1      -1.834  -7.038  -2.292  0.00  0.00    +0.054 C 
BRANCH  31  34
ATOM     32  C   UNL     1       0.611  -4.876  -4.196  0.00  0.00    +0.162 A 
ATOM     33  C   UNL     1       0.075  -5.733  -3.247  0.00  0.00    +0.053 A 
ATOM     34  C   UNL     1      -1.253  -6.106  -3.325  0.00  0.00    -0.042 A 
ATOM     35  C   UNL     1      -2.051  -5.627  -4.347  0.00  0.00    +0.007 A 
ATOM     36  C   UNL     1      -1.522  -4.772  -5.297  0.00  0.00    +0.049 A 
ATOM     37  C   UNL     1      -0.193  -4.389  -5.222  0.00  0.00    +0.162 A 
BRANCH  37  38
ATOM     38  O   UNL     1       0.327  -3.544  -6.152  0.00  0.00    -0.491 OA
ATOM     39  C   UNL     1      -0.557  -3.085  -7.176  0.00  0.00    +0.277 C 
ENDBRANCH  37  38
BRANCH  32  40
ATOM     40  O   UNL     1       1.918  -4.508  -4.120  0.00  0.00    -0.489 OA
BRANCH  40  42
ATOM     41  C   UNL     1       4.118  -4.523  -3.121  0.00  0.00    +0.048 C 
ATOM     42  C   UNL     1       2.683  -5.046  -3.040  0.00  0.00    +0.226 C 
ENDBRANCH  40  42
ENDBRANCH  32  40
ENDBRANCH  31  34
ENDBRANCH  30  31
ENDBRANCH  26  30
ENDBRANCH   1  27
TORSDOF 9
