REMARK  Name = ZINC44462188
REMARK  13 active torsions:
REMARK  status: ('A' for Active; 'I' for Inactive)
REMARK    1  A    between atoms: C_1  and  C_2
REMARK    2  A    between atoms: C_2  and  O_3
REMARK    3  A    between atoms: O_3  and  C_4
REMARK    4  A    between atoms: C_6  and  C_23
REMARK    5  A    between atoms: C_9  and  O_10
REMARK    6  A    between atoms: O_10  and  C_11
REMARK    7  A    between atoms: C_11  and  C_12
REMARK    8  A    between atoms: N_14  and  C_15
REMARK    9  A    between atoms: C_18  and  C_22
REMARK   10  A    between atoms: C_20  and  C_21
REMARK   11  A    between atoms: C_23  and  C_24
REMARK   12  A    between atoms: C_24  and  C_26
REMARK   13  A    between atoms: C_24  and  N_27
REMARK                            x       y       z     vdW  Elec       q    Type
REMARK                         _______ _______ _______ _____ _____    ______ ____
ROOT
ATOM      1  C   UNL     1       0.752  -1.812  -1.351  0.00  0.00    +0.162 A 
ATOM      2  C   UNL     1       0.209  -2.671  -0.407  0.00  0.00    +0.053 A 
ATOM      3  C   UNL     1       0.310  -4.039  -0.579  0.00  0.00    -0.045 A 
ATOM      4  C   UNL     1       0.952  -4.554  -1.690  0.00  0.00    +0.007 A 
ATOM      5  C   UNL     1       1.496  -3.703  -2.634  0.00  0.00    +0.050 A 
ATOM      6  C   UNL     1       1.393  -2.331  -2.472  0.00  0.00    +0.163 A 
ENDROOT
BRANCH   1   7
ATOM      7  O   UNL     1       0.653  -0.466  -1.184  0.00  0.00    -0.489 OA
BRANCH   7   9
ATOM      8  C   UNL     1      -0.030   1.524   0.005  0.00  0.00    +0.048 C 
ATOM      9  C   UNL     1      -0.018  -0.006  -0.009  0.00  0.00    +0.226 C 
ENDBRANCH   7   9
ENDBRANCH   1   7
BRANCH   6  10
ATOM     10  O   UNL     1       1.922  -1.493  -3.403  0.00  0.00    -0.479 OA
BRANCH  10  11
ATOM     11  C   UNL     1       2.565  -2.095  -4.527  0.00  0.00    +0.325 C 
BRANCH  11  12
ATOM     12  C   UNL     1       3.086  -1.019  -5.445  0.00  0.00    +0.255 C 
ATOM     13  O   UNL     1       2.922   0.149  -5.163  0.00  0.00    -0.272 OA
ATOM     14  N   UNL     1       3.733  -1.355  -6.578  0.00  0.00    -0.282 N 
ATOM     15  H   UNL     1       3.934  -2.285  -6.764  0.00  0.00    +0.155 HD
BRANCH  14  16
ATOM     16  C   UNL     1       4.114  -0.361  -7.487  0.00  0.00    +0.036 A 
ATOM     17  C   UNL     1       3.428   0.846  -7.526  0.00  0.00    +0.024 A 
ATOM     18  C   UNL     1       3.807   1.825  -8.424  0.00  0.00    +0.005 A 
ATOM     19  C   UNL     1       4.868   1.604  -9.283  0.00  0.00    -0.050 A 
ATOM     20  C   UNL     1       5.553   0.403  -9.246  0.00  0.00    +0.008 A 
ATOM     21  C   UNL     1       5.183  -0.577  -8.346  0.00  0.00    -0.029 A 
ATOM     22  C   UNL     1       5.935  -1.883  -8.302  0.00  0.00    +0.045 C 
ATOM     23  C   UNL     1       5.279   2.674 -10.261  0.00  0.00    +0.044 C 
ENDBRANCH  14  16
ENDBRANCH  11  12
ENDBRANCH  10  11
ENDBRANCH   6  10
BRANCH   3  24
ATOM     24  C   UNL     1      -0.280  -4.971   0.448  0.00  0.00    +0.019 C 
BRANCH  24  25
ATOM     25  C   UNL     1      -1.730  -5.288   0.075  0.00  0.00    -0.074 C 
ATOM     26  C   UNL     1      -2.368  -6.132   1.180  0.00  0.00    -0.014 C 
BRANCH  25  27
ATOM     27  N   UNL     1      -1.758  -6.035  -1.190  0.00  0.00    +0.380 N 
ATOM     28  H   UNL     1      -1.242  -6.895  -1.084  0.00  0.00    -0.090 HD
ATOM     29  H   UNL     1      -2.714  -6.244  -1.436  0.00  0.00    -0.090 HD
ATOM     30  H   UNL     1      -1.337  -5.478  -1.919  0.00  0.00    -0.090 HD
ENDBRANCH  25  27
ENDBRANCH  24  25
ENDBRANCH   3  24
TORSDOF 9
