REMARK  Name = ZINC59331920
REMARK  6 active torsions:
REMARK  status: ('A' for Active; 'I' for Inactive)
REMARK    1  A    between atoms: C_1  and  C_2
REMARK    2  A    between atoms: N_7  and  C_10
REMARK    3  A    between atoms: C_13  and  N_17
REMARK    4  A    between atoms: C_18  and  C_20
REMARK    5  A    between atoms: C_21  and  C_22
REMARK    6  A    between atoms: C_25  and  C_27
REMARK                            x       y       z     vdW  Elec       q    Type
REMARK                         _______ _______ _______ _____ _____    ______ ____
ROOT
ATOM      1  N   UNL     1      -8.062  -4.800  -1.143  0.00  0.00    -0.282 N 
ATOM      2  C   UNL     1      -8.889  -4.719  -0.081  0.00  0.00    +0.241 C 
ATOM      3  O   UNL     1      -8.635  -3.953   0.832  0.00  0.00    -0.270 OA
ATOM      4  H   UNL     1      -8.303  -5.352  -1.903  0.00  0.00    +0.155 HD
ENDROOT
BRANCH   1   8
ATOM      5  C   UNL     1      -4.471  -2.680  -1.157  0.00  0.00    +0.048 A 
ATOM      6  C   UNL     1      -5.163  -2.882  -2.343  0.00  0.00    +0.026 A 
ATOM      7  C   UNL     1      -6.352  -3.584  -2.339  0.00  0.00    +0.025 A 
ATOM      8  C   UNL     1      -6.856  -4.089  -1.147  0.00  0.00    +0.035 A 
ATOM      9  C   UNL     1      -6.165  -3.887   0.040  0.00  0.00    +0.045 A 
ATOM     10  C   UNL     1      -4.972  -3.190   0.035  0.00  0.00    +0.064 A 
ATOM     11 CL   UNL     1      -4.104  -2.943   1.518  0.00  0.00    -0.082 Cl
BRANCH   5  18
ATOM     12  C   UNL     1       0.102   1.306   0.207  0.00  0.00    +0.109 C 
ATOM     13  C   UNL     1       0.108  -0.187   0.005  0.00  0.00    +0.213 C 
ATOM     14  O   UNL     1       1.157  -0.772  -0.163  0.00  0.00    -0.276 OA
ATOM     15  N   UNL     1      -1.053  -0.873   0.010  0.00  0.00    -0.299 N 
ATOM     16  C   UNL     1      -2.332  -0.176   0.205  0.00  0.00    +0.126 C 
ATOM     17  C   UNL     1      -3.257  -0.511  -0.971  0.00  0.00    +0.124 C 
ATOM     18  N   UNL     1      -3.266  -1.968  -1.162  0.00  0.00    -0.326 N 
ATOM     19  C   UNL     1      -1.987  -2.665  -1.357  0.00  0.00    +0.124 C 
ATOM     20  C   UNL     1      -1.062  -2.329  -0.186  0.00  0.00    +0.126 C 
ENDBRANCH   5  18
ENDBRANCH   1   8
BRANCH   2  21
ATOM     21  C   UNL     1     -10.052  -5.522  -0.027  0.00  0.00    +0.071 C 
ATOM     22  C   UNL     1     -10.885  -5.440   1.042  0.00  0.00    +0.051 C 
BRANCH  22  23
ATOM     23  C   UNL     1     -12.047  -6.244   1.096  0.00  0.00    +0.129 A 
ATOM     24  C   UNL     1     -12.979  -6.256   2.117  0.00  0.00    +0.050 A 
ATOM     25  C   UNL     1     -13.955  -7.190   1.760  0.00  0.00    +0.050 A 
ATOM     26  C   UNL     1     -13.591  -7.710   0.550  0.00  0.00    +0.136 A 
ATOM     27  O   UNL     1     -12.444  -7.128   0.157  0.00  0.00    -0.455 OA
BRANCH  26  28
ATOM     28  C   UNL     1     -14.337  -8.736  -0.204  0.00  0.00    +0.020 A 
ATOM     29  C   UNL     1     -15.528  -9.256   0.308  0.00  0.00    +0.031 A 
ATOM     30  C   UNL     1     -16.221 -10.216  -0.403  0.00  0.00    +0.043 A 
ATOM     31  C   UNL     1     -15.737 -10.663  -1.621  0.00  0.00    +0.040 A 
ATOM     32  C   UNL     1     -14.557 -10.152  -2.134  0.00  0.00    +0.043 A 
ATOM     33  C   UNL     1     -13.858  -9.187  -1.437  0.00  0.00    +0.031 A 
ATOM     34 CL   UNL     1     -13.960 -10.719  -3.662  0.00  0.00    -0.083 Cl
ATOM     35 CL   UNL     1     -17.701 -10.863   0.233  0.00  0.00    -0.083 Cl
ENDBRANCH  26  28
ENDBRANCH  22  23
ENDBRANCH   2  21
TORSDOF 5
