REMARK  Name = ZINC16036785
REMARK  5 active torsions:
REMARK  status: ('A' for Active; 'I' for Inactive)
REMARK    1  A    between atoms: C_1  and  O_2
REMARK    2  A    between atoms: O_2  and  C_3
REMARK    3  A    between atoms: C_5  and  C_11
REMARK    4  A    between atoms: C_8  and  O_9
REMARK    5  A    between atoms: C_11  and  N_46
REMARK                            x       y       z     vdW  Elec       q    Type
REMARK                         _______ _______ _______ _____ _____    ______ ____
ROOT
ATOM      1  C   UNL     1      -2.203   1.140   1.240  0.00  0.00    -0.073 C 
ATOM      2  C   UNL     1      -0.748   1.589   1.253  0.00  0.00    -0.007 C 
ATOM      3  C   UNL     1      -0.013   1.086   0.008  0.00  0.00    +0.011 C 
ATOM      4  C   UNL     1      -0.773   1.603  -1.219  0.00  0.00    +0.020 C 
ATOM      5  C   UNL     1      -2.194   1.016  -1.180  0.00  0.00    -0.069 C 
ATOM      6  C   UNL     1      -0.901   3.107  -1.127  0.00  0.00    +0.023 A 
ATOM      7  C   UNL     1      -1.021   3.795  -2.293  0.00  0.00    +0.022 A 
ATOM      8  C   UNL     1      -1.206   5.182  -2.285  0.00  0.00    +0.007 A 
ATOM      9  C   UNL     1      -1.283   5.829  -1.086  0.00  0.00    +0.070 A 
ATOM     10  C   UNL     1      -1.152   5.090   0.099  0.00  0.00    +0.251 A 
ATOM     11  O   UNL     1      -1.265   5.651   1.177  0.00  0.00    -0.268 OA
ATOM     12  N   UNL     1      -0.901   3.757   0.061  0.00  0.00    -0.312 N 
ATOM     13  C   UNL     1      -0.621   3.100   1.338  0.00  0.00    +0.126 C 
ATOM     14  N   UNL     1      -2.875   1.587   0.004  0.00  0.00    +0.383 N 
ATOM     15  H   UNL     1      -2.829   2.612  -0.048  0.00  0.00    -0.081 HD
ENDROOT
BRANCH  14  16
ATOM     16  C   UNL     1      -4.292   1.171   0.021  0.00  0.00    -0.043 C 
BRANCH  16  19
ATOM     17  C   UNL     1      -4.530  -2.519  -0.757  0.00  0.00    +0.163 A 
ATOM     18  C   UNL     1      -4.434  -1.145  -0.915  0.00  0.00    +0.051 A 
ATOM     19  C   UNL     1      -4.403  -0.322   0.195  0.00  0.00    -0.059 A 
ATOM     20  C   UNL     1      -4.479  -0.865   1.465  0.00  0.00    +0.020 A 
ATOM     21  C   UNL     1      -4.581  -2.234   1.629  0.00  0.00    +0.059 A 
ATOM     22  C   UNL     1      -4.607  -3.065   0.521  0.00  0.00    +0.172 A 
ATOM     23  I   UNL     1      -4.697  -3.052   3.555  0.00  0.00    -0.040 I 
BRANCH  17  25
ATOM     24  C   UNL     1      -4.473  -2.700  -3.127  0.00  0.00    +0.277 C 
ATOM     25  O   UNL     1      -4.556  -3.330  -1.848  0.00  0.00    -0.491 OA
ENDBRANCH  17  25
BRANCH  22  26
ATOM     26  O   UNL     1      -4.707  -4.412   0.681  0.00  0.00    -0.503 OA
ATOM     27  H   UNL     1      -5.616  -4.740   0.701  0.00  0.00    +0.292 HD
ENDBRANCH  22  26
ENDBRANCH  16  19
ENDBRANCH  14  16
TORSDOF 4
