REMARK  Name = ZINC43596611
REMARK  7 active torsions:
REMARK  status: ('A' for Active; 'I' for Inactive)
REMARK    1  A    between atoms: C_1  and  C_2
REMARK    2  A    between atoms: N_8  and  C_9
REMARK    3  A    between atoms: C_9  and  C_10
REMARK    4  A    between atoms: C_10  and  C_11
REMARK    5  A    between atoms: C_11  and  N_12
REMARK    6  A    between atoms: N_12  and  C_13
REMARK    7  A    between atoms: C_16  and  N_20
REMARK                            x       y       z     vdW  Elec       q    Type
REMARK                         _______ _______ _______ _____ _____    ______ ____
ROOT
ATOM      1  N   UNL     1       4.842  -0.112   3.791  0.00  0.00    -0.343 N 
ATOM      2  H   UNL     1       4.379  -0.666   4.439  0.00  0.00    +0.146 HD
ENDROOT
BRANCH   1   3
ATOM      3  C   UNL     1       6.150   0.318   4.046  0.00  0.00    +0.041 A 
ATOM      4  C   UNL     1       6.811   1.116   3.122  0.00  0.00    +0.026 A 
ATOM      5  C   UNL     1       8.101   1.540   3.373  0.00  0.00    +0.024 A 
ATOM      6  C   UNL     1       8.738   1.168   4.550  0.00  0.00    +0.026 A 
ATOM      7  C   UNL     1       8.078   0.370   5.474  0.00  0.00    +0.039 A 
ATOM      8  C   UNL     1       6.785  -0.049   5.226  0.00  0.00    +0.040 A 
ATOM      9 BR   UNL     1       5.882  -1.129   6.489  0.00  0.00    -0.048 Br
BRANCH   6  10
ATOM     10  N   UNL     1      10.046   1.598   4.803  0.00  0.00    -0.358 N 
ATOM     11  H   UNL     1      10.508   2.155   4.157  0.00  0.00    +0.142 HD
ATOM     12  H   UNL     1      10.491   1.339   5.625  0.00  0.00    +0.142 HD
ENDBRANCH   6  10
ENDBRANCH   1   3
BRANCH   1  13
ATOM     13  C   UNL     1       4.173   0.276   2.547  0.00  0.00    +0.100 C 
BRANCH  13  14
ATOM     14  C   UNL     1       2.764  -0.321   2.518  0.00  0.00    +0.000 C 
BRANCH  14  15
ATOM     15  C   UNL     1       2.066   0.083   1.218  0.00  0.00    -0.077 C 
BRANCH  15  22
ATOM     16  C   UNL     1      -0.019   1.526   0.010  0.00  0.00    -0.013 C 
ATOM     17  C   UNL     1       0.002  -0.004   0.002  0.00  0.00    -0.072 C 
ATOM     18  C   UNL     1      -1.434  -0.533   0.011  0.00  0.00    -0.016 C 
ATOM     19  C   UNL     1      -1.408  -2.064   0.003  0.00  0.00    -0.003 C 
ATOM     20  C   UNL     1      -0.600  -2.558   1.206  0.00  0.00    -0.019 C 
ATOM     21  C   UNL     1       0.805  -1.954   1.152  0.00  0.00    -0.078 C 
ATOM     22  N   UNL     1       0.713  -0.490   1.191  0.00  0.00    +0.381 N 
ATOM     23  H   UNL     1       0.213  -0.206   2.020  0.00  0.00    -0.081 HD
ENDBRANCH  15  22
ENDBRANCH  14  15
ENDBRANCH  13  14
ENDBRANCH   1  13
TORSDOF 6
