REMARK  Name = ZINC38063608
REMARK  4 active torsions:
REMARK  status: ('A' for Active; 'I' for Inactive)
REMARK    1  A    between atoms: C_1  and  S_2
REMARK    2  A    between atoms: S_2  and  C_3
REMARK    3  A    between atoms: C_3  and  C_4
REMARK    4  A    between atoms: C_9  and  N_10
REMARK                            x       y       z     vdW  Elec       q    Type
REMARK                         _______ _______ _______ _____ _____    ______ ____
ROOT
ATOM      1  C   UNL     1      -1.875  -1.969   0.009  0.00  0.00    -0.013 A 
ATOM      2  C   UNL     1      -1.937  -2.651  -1.191  0.00  0.00    +0.055 A 
ATOM      3  C   UNL     1      -2.050  -4.033  -1.201  0.00  0.00    +0.162 A 
ATOM      4  C   UNL     1      -2.099  -4.734  -0.002  0.00  0.00    +0.164 A 
ATOM      5  C   UNL     1      -2.038  -4.050   1.202  0.00  0.00    +0.072 A 
ATOM      6  C   UNL     1      -1.921  -2.667   1.209  0.00  0.00    +0.032 A 
ATOM      7  O   UNL     1      -2.201  -6.092   0.007  0.00  0.00    -0.485 OA
ATOM      8  C   UNL     1      -2.635  -6.713  -1.208  0.00  0.00    +0.270 C 
ATOM      9  C   UNL     1      -1.848  -6.094  -2.371  0.00  0.00    +0.270 C 
ATOM     10  O   UNL     1      -2.114  -4.688  -2.394  0.00  0.00    -0.485 OA
ENDROOT
BRANCH   6  11
ATOM     11  N   UNL     1      -1.853  -1.976   2.424  0.00  0.00    -0.358 N 
ATOM     12  H   UNL     1      -1.775  -1.009   2.428  0.00  0.00    +0.142 HD
ATOM     13  H   UNL     1      -1.885  -2.464   3.261  0.00  0.00    +0.142 HD
ENDBRANCH   6  11
BRANCH   1  14
ATOM     14  C   UNL     1      -1.752  -0.467   0.016  0.00  0.00    +0.105 C 
BRANCH  14  16
ATOM     15  C   UNL     1      -0.022   1.810   0.012  0.00  0.00    +0.084 C 
ATOM     16  S   UNL     1       0.002  -0.004   0.002  0.00  0.00    -0.159 S 
ENDBRANCH  14  16
ENDBRANCH   1  14
TORSDOF 3
