REMARK  Name = ZINC63746706
REMARK  4 active torsions:
REMARK  status: ('A' for Active; 'I' for Inactive)
REMARK    1  A    between atoms: C_4  and  N_7
REMARK    2  A    between atoms: C_8  and  C_14
REMARK    3  A    between atoms: N_16  and  C_17
REMARK    4  A    between atoms: C_17  and  C_18
REMARK                            x       y       z     vdW  Elec       q    Type
REMARK                         _______ _______ _______ _____ _____    ______ ____
ROOT
ATOM      1  C   UNL     1       2.735  -3.041   0.167  0.00  0.00    +0.262 C 
ATOM      2  O   UNL     1       1.568  -2.702   0.112  0.00  0.00    -0.269 OA
ATOM      3  N   UNL     1       3.053  -4.339   0.340  0.00  0.00    -0.306 N 
ATOM      4  H   UNL     1       3.984  -4.609   0.384  0.00  0.00    +0.149 HD
ENDROOT
BRANCH   1   6
ATOM      5  N   UNL     1       3.620  -0.661  -0.140  0.00  0.00    -0.284 N 
ATOM      6  C   UNL     1       3.796  -2.037   0.046  0.00  0.00    +0.127 A 
ATOM      7  H   UNL     1       6.729  -0.934  -0.065  0.00  0.00    +0.167 HD
ATOM      8  C   UNL     1       5.128  -2.267   0.093  0.00  0.00    +0.116 A 
ATOM      9  N   UNL     1       5.768  -1.066  -0.059  0.00  0.00    -0.339 N 
ATOM     10  C   UNL     1       4.843  -0.099  -0.205  0.00  0.00    +0.163 A 
ATOM     11  S   UNL     1       5.166   1.567  -0.432  0.00  0.00    -0.013 S 
BRANCH   5  15
ATOM     12  C   UNL     1      -0.026   1.331  -0.452  0.00  0.00    +0.000 A 
ATOM     13  C   UNL     1       0.591   0.840  -1.588  0.00  0.00    +0.002 A 
ATOM     14  C   UNL     1       1.800   0.179  -1.488  0.00  0.00    +0.026 A 
ATOM     15  C   UNL     1       2.395   0.009  -0.245  0.00  0.00    +0.049 A 
ATOM     16  C   UNL     1       1.773   0.503   0.894  0.00  0.00    +0.026 A 
ATOM     17  C   UNL     1       0.564   1.163   0.787  0.00  0.00    +0.002 A 
ENDBRANCH   5  15
ENDBRANCH   1   6
BRANCH   3  18
ATOM     18  C   UNL     1       1.993  -5.343   0.460  0.00  0.00    +0.151 C 
BRANCH  18  19
ATOM     19  C   UNL     1       2.619  -6.727   0.647  0.00  0.00    +0.191 C 
ATOM     20  N   UNL     1       3.523  -7.026  -0.471  0.00  0.00    -0.362 N 
ATOM     21  C   UNL     1       4.714  -7.198   0.025  0.00  0.00    +0.060 A 
ATOM     22  C   UNL     1       6.013  -7.515  -0.584  0.00  0.00    +0.027 A 
ATOM     23  C   UNL     1       7.103  -7.635   0.200  0.00  0.00    +0.002 A 
ATOM     24  C   UNL     1       7.056  -7.469   1.595  0.00  0.00    +0.002 A 
ATOM     25  C   UNL     1       5.916  -7.176   2.254  0.00  0.00    +0.027 A 
ATOM     26  C   UNL     1       4.664  -7.021   1.502  0.00  0.00    +0.060 A 
ATOM     27  N   UNL     1       3.443  -6.747   1.862  0.00  0.00    -0.362 N 
ATOM     28  H   UNL     1       3.277  -7.085  -1.408  0.00  0.00    +0.162 HD
ATOM     29  H   UNL     1       3.135  -6.585   2.767  0.00  0.00    +0.162 HD
ENDBRANCH  18  19
ENDBRANCH   3  18
TORSDOF 4
