REMARK  Name = ZINC40464225
REMARK  8 active torsions:
REMARK  status: ('A' for Active; 'I' for Inactive)
REMARK    1  A    between atoms: C_1  and  S_2
REMARK    2  A    between atoms: S_2  and  C_3
REMARK    3  A    between atoms: C_3  and  C_4
REMARK    4  A    between atoms: C_4  and  C_5
REMARK    5  A    between atoms: C_5  and  C_7
REMARK    6  A    between atoms: C_5  and  N_22
REMARK    7  A    between atoms: N_9  and  C_10
REMARK    8  A    between atoms: C_12  and  N_17
REMARK                            x       y       z     vdW  Elec       q    Type
REMARK                         _______ _______ _______ _____ _____    ______ ____
ROOT
ATOM      1  C   UNL     1      -3.478  -3.878  -0.109  0.00  0.00    +0.203 C 
ATOM      2  O   UNL     1      -3.684  -4.557   0.875  0.00  0.00    -0.277 OA
ATOM      3  N   UNL     1      -3.373  -4.460  -1.320  0.00  0.00    -0.285 N 
ATOM      4  H   UNL     1      -3.289  -3.912  -2.116  0.00  0.00    +0.155 HD
ENDROOT
BRANCH   3   5
ATOM      5  C   UNL     1      -3.385  -5.856  -1.429  0.00  0.00    +0.071 A 
ATOM      6  C   UNL     1      -2.993  -6.641  -0.354  0.00  0.00    +0.054 A 
ATOM      7  C   UNL     1      -3.006  -8.023  -0.466  0.00  0.00    +0.071 A 
ATOM      8  C   UNL     1      -3.412  -8.620  -1.652  0.00  0.00    +0.031 A 
ATOM      9  C   UNL     1      -3.802  -7.838  -2.723  0.00  0.00    +0.042 A 
ATOM     10  C   UNL     1      -3.796  -6.459  -2.614  0.00  0.00    +0.145 A 
ATOM     11  F   UNL     1      -4.183  -5.697  -3.660  0.00  0.00    -0.204 F 
BRANCH   7  12
ATOM     12  N   UNL     1      -2.610  -8.819   0.620  0.00  0.00    -0.200 N 
ATOM     13  C   UNL     1      -2.560 -10.167   0.673  0.00  0.00    +0.250 A 
ATOM     14  N   UNL     1      -2.137 -10.493   1.867  0.00  0.00    -0.116 NA
ATOM     15  N   UNL     1      -1.917  -9.442   2.572  0.00  0.00    -0.023 NA
ATOM     16  N   UNL     1      -2.174  -8.383   1.884  0.00  0.00    -0.039 NA
ENDBRANCH   7  12
ENDBRANCH   3   5
BRANCH   1  17
ATOM     17  C   UNL     1      -3.341  -2.383   0.023  0.00  0.00    +0.014 C 
BRANCH  17  18
ATOM     18  N   UNL     1      -3.949  -1.945   1.286  0.00  0.00    +0.386 N 
ATOM     19  H   UNL     1      -3.857  -0.944   1.375  0.00  0.00    -0.089 HD
ATOM     20  H   UNL     1      -4.926  -2.195   1.293  0.00  0.00    -0.089 HD
ATOM     21  H   UNL     1      -3.481  -2.395   2.059  0.00  0.00    -0.089 HD
ENDBRANCH  17  18
BRANCH  17  22
ATOM     22  C   UNL     1      -1.858  -2.005   0.012  0.00  0.00    +0.003 C 
BRANCH  22  23
ATOM     23  C   UNL     1      -1.721  -0.481   0.021  0.00  0.00    +0.068 C 
BRANCH  23  25
ATOM     24  C   UNL     1       0.027   1.781   0.019  0.00  0.00    +0.084 C 
ATOM     25  S   UNL     1       0.037  -0.033   0.008  0.00  0.00    -0.164 S 
ENDBRANCH  23  25
ENDBRANCH  22  23
ENDBRANCH  17  22
ENDBRANCH   1  17
TORSDOF 7
