REMARK  Name = ZINC50359639
REMARK  7 active torsions:
REMARK  status: ('A' for Active; 'I' for Inactive)
REMARK    1  A    between atoms: C_1  and  C_2
REMARK    2  A    between atoms: C_2  and  C_4
REMARK    3  A    between atoms: C_2  and  N_14
REMARK    4  A    between atoms: C_7  and  S_10
REMARK    5  A    between atoms: S_10  and  N_13
REMARK    6  A    between atoms: N_14  and  C_15
REMARK    7  A    between atoms: C_15  and  C_16
REMARK                            x       y       z     vdW  Elec       q    Type
REMARK                         _______ _______ _______ _____ _____    ______ ____
ROOT
ATOM      1  C   UNL     1      -0.019   1.526   0.010  0.00  0.00    -0.009 C 
ATOM      2  C   UNL     1       0.002  -0.004   0.002  0.00  0.00    -0.043 C 
ENDROOT
BRANCH   2   3
ATOM      3  C   UNL     1       0.731  -0.503   1.223  0.00  0.00    -0.062 A 
ATOM      4  C   UNL     1       0.081  -0.558   2.442  0.00  0.00    +0.004 A 
ATOM      5  C   UNL     1       0.749  -1.016   3.562  0.00  0.00    +0.029 A 
ATOM      6  C   UNL     1       2.068  -1.420   3.463  0.00  0.00    +0.105 A 
ATOM      7  C   UNL     1       2.718  -1.365   2.244  0.00  0.00    +0.029 A 
ATOM      8  C   UNL     1       2.048  -0.911   1.123  0.00  0.00    +0.004 A 
BRANCH   6   9
ATOM      9  S   UNL     1       2.921  -2.002   4.890  0.00  0.00    +0.056 S 
ATOM     10  O   UNL     1       4.306  -1.804   4.645  0.00  0.00    -0.153 OA
ATOM     11  O   UNL     1       2.259  -1.441   6.016  0.00  0.00    -0.153 OA
BRANCH   9  12
ATOM     12  N   UNL     1       2.683  -3.639   4.969  0.00  0.00    -0.204 NA
ATOM     13  H   UNL     1       2.150  -4.085   4.292  0.00  0.00    +0.144 HD
ATOM     14  H   UNL     1       3.076  -4.152   5.692  0.00  0.00    +0.144 HD
ENDBRANCH   9  12
ENDBRANCH   6   9
ENDBRANCH   2   3
BRANCH   2  15
ATOM     15  N   UNL     1      -1.376  -0.512   0.012  0.00  0.00    +0.388 N 
ATOM     16  H   UNL     1      -1.363  -1.518   0.090  0.00  0.00    -0.084 HD
ATOM     17  H   UNL     1      -1.873  -0.121   0.799  0.00  0.00    -0.084 HD
BRANCH  15  18
ATOM     18  C   UNL     1      -2.050  -0.126  -1.234  0.00  0.00    -0.006 C 
BRANCH  18  19
ATOM     19  C   UNL     1      -3.464  -0.648  -1.224  0.00  0.00    +0.091 A 
ATOM     20  C   UNL     1      -4.540   0.008  -0.753  0.00  0.00    +0.059 A 
ATOM     21  C   UNL     1      -5.653  -0.845  -0.940  0.00  0.00    +0.070 A 
ATOM     22  C   UNL     1      -5.189  -1.972  -1.514  0.00  0.00    +0.184 A 
ATOM     23  O   UNL     1      -3.863  -1.844  -1.687  0.00  0.00    -0.454 OA
ATOM     24 BR   UNL     1      -6.229  -3.475  -1.998  0.00  0.00    -0.007 Br
ATOM     25 BR   UNL     1      -7.448  -0.474  -0.473  0.00  0.00    -0.046 Br
ENDBRANCH  18  19
ENDBRANCH  15  18
ENDBRANCH   2  15
TORSDOF 6
