REMARK  Name = ZINC65962083
REMARK  10 active torsions:
REMARK  status: ('A' for Active; 'I' for Inactive)
REMARK    1  A    between atoms: C_1  and  C_2
REMARK    2  A    between atoms: C_2  and  C_3
REMARK    3  A    between atoms: C_2  and  C_4
REMARK    4  A    between atoms: C_4  and  N_5
REMARK    5  A    between atoms: N_5  and  C_6
REMARK    6  A    between atoms: N_5  and  C_7
REMARK    7  A    between atoms: C_7  and  C_8
REMARK    8  A    between atoms: C_7  and  C_9
REMARK    9  A    between atoms: N_11  and  C_12
REMARK   10  A    between atoms: C_13  and  C_20
REMARK                            x       y       z     vdW  Elec       q    Type
REMARK                         _______ _______ _______ _____ _____    ______ ____
ROOT
ATOM      1  C   UNL     1      -2.750  -4.054  -0.144  0.00  0.00    +0.204 C 
ATOM      2  O   UNL     1      -1.718  -4.612   0.165  0.00  0.00    -0.277 OA
ATOM      3  N   UNL     1      -3.856  -4.779  -0.405  0.00  0.00    -0.281 N 
ATOM      4  H   UNL     1      -4.681  -4.334  -0.653  0.00  0.00    +0.155 HD
ENDROOT
BRANCH   3   5
ATOM      5  C   UNL     1      -3.814  -6.163  -0.319  0.00  0.00    +0.084 A 
ATOM      6  C   UNL     1      -4.838  -7.061  -0.555  0.00  0.00    +0.068 A 
ATOM      7  C   UNL     1      -4.534  -8.482  -0.395  0.00  0.00    -0.023 A 
ATOM      8  C   UNL     1      -3.264  -8.733  -0.030  0.00  0.00    -0.004 A 
ATOM      9  S   UNL     1      -2.506  -7.132   0.086  0.00  0.00    -0.077 S 
ATOM     10  C   UNL     1      -3.005 -10.207   0.124  0.00  0.00    +0.043 C 
ATOM     11  C   UNL     1      -4.411 -10.842   0.220  0.00  0.00    +0.010 C 
ATOM     12  C   UNL     1      -5.274  -9.810  -0.534  0.00  0.00    +0.037 C 
BRANCH   6  13
ATOM     13  C   UNL     1      -6.176  -6.606  -0.948  0.00  0.00    +0.244 C 
ATOM     14  O   UNL     1      -6.451  -6.472  -2.126  0.00  0.00    -0.270 OA
ATOM     15  N   UNL     1      -7.100  -6.338  -0.005  0.00  0.00    -0.325 N 
ATOM     16  H   UNL     1      -6.881  -6.445   0.934  0.00  0.00    +0.145 HD
ATOM     17  H   UNL     1      -7.985  -6.037  -0.265  0.00  0.00    +0.145 HD
ENDBRANCH   6  13
ENDBRANCH   3   5
BRANCH   1  18
ATOM     18  C   UNL     1      -2.796  -2.551  -0.237  0.00  0.00    +0.016 C 
ATOM     19  C   UNL     1      -2.572  -2.123  -1.689  0.00  0.00    -0.004 C 
BRANCH  18  20
ATOM     20  N   UNL     1      -1.743  -1.976   0.611  0.00  0.00    +0.385 N 
ATOM     21  C   UNL     1      -1.940  -2.411   2.000  0.00  0.00    -0.095 C 
ATOM     22  H   UNL     1      -0.841  -2.288   0.285  0.00  0.00    -0.081 HD
BRANCH  20  23
ATOM     23  C   UNL     1      -1.807  -0.509   0.544  0.00  0.00    -0.075 C 
BRANCH  23  25
ATOM     24  C   UNL     1       0.680  -0.275   0.558  0.00  0.00    +0.005 C 
ATOM     25  C   UNL     1      -0.613   0.088   1.291  0.00  0.00    -0.034 C 
ATOM     26  C   UNL     1      -0.757   1.610   1.349  0.00  0.00    +0.005 C 
ENDBRANCH  23  25
ENDBRANCH  20  23
ENDBRANCH  18  20
ENDBRANCH   1  18
TORSDOF 6
