REMARK  Name = ZINC12483269
REMARK  5 active torsions:
REMARK  status: ('A' for Active; 'I' for Inactive)
REMARK    1  A    between atoms: C_4  and  O_7
REMARK    2  A    between atoms: O_7  and  C_8
REMARK    3  A    between atoms: C_10  and  O_32
REMARK    4  A    between atoms: C_12  and  N_21
REMARK    5  A    between atoms: N_24  and  C_25
REMARK                            x       y       z     vdW  Elec       q    Type
REMARK                         _______ _______ _______ _____ _____    ______ ____
ROOT
ATOM      1  C   UNL     1       4.759   7.713   1.814  0.00  0.00    +0.259 C 
ATOM      2  C   UNL     1       3.562   7.955   0.888  0.00  0.00    +0.183 C 
ATOM      3  C   UNL     1       3.869   7.376  -0.498  0.00  0.00    +0.138 C 
ATOM      4  C   UNL     1       5.223   7.929  -0.970  0.00  0.00    +0.170 C 
ATOM      5  C   UNL     1       5.232   9.451  -0.692  0.00  0.00    +0.196 C 
ATOM      6  O   UNL     1       5.787   9.560   0.653  0.00  0.00    -0.345 OA
ATOM      7  C   UNL     1       6.033   8.221   1.121  0.00  0.00    +0.294 C 
ATOM      8  O   UNL     1       6.233   7.419  -0.064  0.00  0.00    -0.340 OA
ENDROOT
BRANCH   3   9
ATOM      9  N   UNL     1       3.936   5.915  -0.417  0.00  0.00    -0.291 N 
ATOM     10  C   UNL     1       2.810   5.181  -0.525  0.00  0.00    +0.304 C 
ATOM     11  O   UNL     1       1.739   5.733  -0.689  0.00  0.00    -0.252 OA
ATOM     12  N   UNL     1       2.872   3.837  -0.450  0.00  0.00    -0.269 N 
ATOM     13  H   UNL     1       4.790   5.475  -0.286  0.00  0.00    +0.151 HD
ATOM     14  H   UNL     1       3.714   3.401  -0.247  0.00  0.00    +0.156 HD
BRANCH  12  15
ATOM     15  C   UNL     1       1.720   3.070  -0.667  0.00  0.00    +0.035 A 
ATOM     16  C   UNL     1       0.760   3.499  -1.574  0.00  0.00    +0.026 A 
ATOM     17  C   UNL     1      -0.375   2.741  -1.786  0.00  0.00    +0.040 A 
ATOM     18  C   UNL     1      -0.558   1.557  -1.092  0.00  0.00    +0.124 A 
ATOM     19  C   UNL     1       0.401   1.125  -0.192  0.00  0.00    +0.040 A 
ATOM     20  C   UNL     1       1.537   1.880   0.024  0.00  0.00    +0.026 A 
ATOM     21  F   UNL     1      -1.672   0.820  -1.297  0.00  0.00    -0.205 F 
ENDBRANCH  12  15
ENDBRANCH   3   9
BRANCH   2  22
ATOM     22  O   UNL     1       3.321   9.359   0.776  0.00  0.00    -0.386 OA
ATOM     23  H   UNL     1       3.120   9.791   1.617  0.00  0.00    +0.210 HD
ENDBRANCH   2  22
BRANCH   1  24
ATOM     24  O   UNL     1       4.885   6.315   2.083  0.00  0.00    -0.481 OA
BRANCH  24  28
ATOM     25  C   UNL     1       6.826   5.245   5.562  0.00  0.00    +0.000 A 
ATOM     26  C   UNL     1       6.771   6.573   5.183  0.00  0.00    +0.004 A 
ATOM     27  C   UNL     1       6.122   6.934   4.019  0.00  0.00    +0.045 A 
ATOM     28  C   UNL     1       5.524   5.962   3.229  0.00  0.00    +0.121 A 
ATOM     29  C   UNL     1       5.576   4.631   3.614  0.00  0.00    +0.045 A 
ATOM     30  C   UNL     1       6.231   4.274   4.777  0.00  0.00    +0.004 A 
ENDBRANCH  24  28
ENDBRANCH   1  24
TORSDOF 5
