REMARK  Name = ZINC08529873
REMARK  10 active torsions:
REMARK  status: ('A' for Active; 'I' for Inactive)
REMARK    1  A    between atoms: C_1  and  C_2
REMARK    2  A    between atoms: C_2  and  C_3
REMARK    3  A    between atoms: C_6  and  C_9
REMARK    4  A    between atoms: C_9  and  N_10
REMARK    5  A    between atoms: N_10  and  C_11
REMARK    6  A    between atoms: N_10  and  C_12
REMARK    7  A    between atoms: C_12  and  C_14
REMARK    8  A    between atoms: C_12  and  C_15
REMARK    9  A    between atoms: N_17  and  C_18
REMARK   10  A    between atoms: C_19  and  C_26
REMARK                            x       y       z     vdW  Elec       q    Type
REMARK                         _______ _______ _______ _____ _____    ______ ____
ROOT
ATOM      1  C   UNL     1       3.940   0.273   7.551  0.00  0.00    +0.204 C 
ATOM      2  O   UNL     1       3.586   1.309   7.030  0.00  0.00    -0.277 OA
ATOM      3  N   UNL     1       4.497   0.291   8.777  0.00  0.00    -0.281 N 
ATOM      4  H   UNL     1       4.781  -0.538   9.194  0.00  0.00    +0.155 HD
ENDROOT
BRANCH   3   5
ATOM      5  C   UNL     1       4.666   1.495   9.444  0.00  0.00    +0.084 A 
ATOM      6  C   UNL     1       5.218   1.705  10.694  0.00  0.00    +0.068 A 
ATOM      7  C   UNL     1       5.282   3.084  11.176  0.00  0.00    -0.023 A 
ATOM      8  C   UNL     1       4.779   3.989  10.317  0.00  0.00    -0.004 A 
ATOM      9  S   UNL     1       4.253   3.033   8.917  0.00  0.00    -0.077 S 
ATOM     10  C   UNL     1       4.865   5.388  10.863  0.00  0.00    +0.043 C 
ATOM     11  C   UNL     1       5.105   5.202  12.377  0.00  0.00    +0.010 C 
ATOM     12  C   UNL     1       5.777   3.815  12.422  0.00  0.00    +0.037 C 
BRANCH   6  13
ATOM     13  C   UNL     1       5.720   0.590  11.504  0.00  0.00    +0.244 C 
ATOM     14  O   UNL     1       6.880   0.237  11.401  0.00  0.00    -0.270 OA
ATOM     15  N   UNL     1       4.896  -0.044  12.361  0.00  0.00    -0.325 N 
ATOM     16  H   UNL     1       3.971   0.237  12.444  0.00  0.00    +0.145 HD
ATOM     17  H   UNL     1       5.228  -0.782  12.897  0.00  0.00    +0.145 HD
ENDBRANCH   6  13
ENDBRANCH   3   5
BRANCH   1  18
ATOM     18  C   UNL     1       3.757  -1.036   6.826  0.00  0.00    +0.016 C 
ATOM     19  C   UNL     1       2.420  -1.660   7.230  0.00  0.00    -0.004 C 
BRANCH  18  20
ATOM     20  N   UNL     1       3.768  -0.798   5.376  0.00  0.00    +0.388 N 
ATOM     21  C   UNL     1       5.084  -0.281   4.975  0.00  0.00    -0.095 C 
ATOM     22  H   UNL     1       3.056  -0.124   5.140  0.00  0.00    -0.081 HD
BRANCH  20  23
ATOM     23  C   UNL     1       3.502  -2.059   4.671  0.00  0.00    -0.042 C 
BRANCH  23  27
ATOM     24  C   UNL     1       3.189  -1.310   0.477  0.00  0.00    -0.048 A 
ATOM     25  C   UNL     1       4.417  -1.612   1.036  0.00  0.00    +0.004 A 
ATOM     26  C   UNL     1       4.518  -1.854   2.393  0.00  0.00    +0.002 A 
ATOM     27  C   UNL     1       3.392  -1.794   3.192  0.00  0.00    -0.064 A 
ATOM     28  C   UNL     1       2.164  -1.491   2.633  0.00  0.00    +0.002 A 
ATOM     29  C   UNL     1       2.063  -1.245   1.277  0.00  0.00    +0.004 A 
BRANCH  24  31
ATOM     30  C   UNL     1       3.287   0.446  -1.271  0.00  0.00    +0.009 C 
ATOM     31  C   UNL     1       3.078  -1.046  -1.002  0.00  0.00    +0.032 C 
ENDBRANCH  24  31
ENDBRANCH  23  27
ENDBRANCH  20  23
ENDBRANCH  18  20
ENDBRANCH   1  18
TORSDOF 7
