REMARK  Name = ZINC13122994
REMARK  6 active torsions:
REMARK  status: ('A' for Active; 'I' for Inactive)
REMARK    1  A    between atoms: C_1  and  C_2
REMARK    2  A    between atoms: C_2  and  C_3
REMARK    3  A    between atoms: C_2  and  N_4
REMARK    4  A    between atoms: C_5  and  C_7
REMARK    5  A    between atoms: C_13  and  C_22
REMARK    6  A    between atoms: C_16  and  C_18
REMARK                            x       y       z     vdW  Elec       q    Type
REMARK                         _______ _______ _______ _____ _____    ______ ____
ROOT
ATOM      1  C   UNL     1      -3.020  -2.242  -0.474  0.00  0.00    +0.096 A 
ATOM      2  C   UNL     1      -4.167  -1.568   0.015  0.00  0.00    +0.149 A 
ATOM      3  N   UNL     1      -5.202  -2.347  -0.150  0.00  0.00    -0.177 NA
ATOM      4  N   UNL     1      -4.787  -3.539  -0.742  0.00  0.00    -0.238 N 
ATOM      5  C   UNL     1      -3.450  -3.468  -0.946  0.00  0.00    +0.130 A 
ATOM      6  N   UNL     1      -2.724  -4.491  -1.529  0.00  0.00    -0.321 N 
ATOM      7  C   UNL     1      -3.507  -5.554  -2.188  0.00  0.00    +0.111 C 
ATOM      8  C   UNL     1      -4.692  -5.915  -1.285  0.00  0.00    +0.063 C 
ATOM      9  C   UNL     1      -5.605  -4.699  -1.109  0.00  0.00    +0.215 C 
ATOM     10  H   UNL     1      -1.754  -4.508  -1.506  0.00  0.00    +0.148 HD
ENDROOT
BRANCH   7  11
ATOM     11  C   UNL     1      -4.012  -5.059  -3.520  0.00  0.00    +0.010 A 
ATOM     12  C   UNL     1      -4.099  -5.722  -4.699  0.00  0.00    +0.013 A 
ATOM     13  C   UNL     1      -4.601  -5.060  -5.804  0.00  0.00    +0.008 A 
ATOM     14  C   UNL     1      -4.991  -3.768  -5.675  0.00  0.00    +0.045 A 
ATOM     15  S   UNL     1      -4.658  -3.452  -3.950  0.00  0.00    -0.100 S 
ENDBRANCH   7  11
BRANCH   1  17
ATOM     16  N   UNL     1      -1.372  -0.511   0.012  0.00  0.00    -0.309 N 
ATOM     17  C   UNL     1      -1.643  -1.734  -0.485  0.00  0.00    +0.249 C 
ATOM     18  O   UNL     1      -0.746  -2.417  -0.943  0.00  0.00    -0.270 OA
ATOM     19  H   UNL     1      -2.087   0.033   0.377  0.00  0.00    +0.149 HD
BRANCH  16  21
ATOM     20  C   UNL     1      -0.019   1.526   0.010  0.00  0.00    +0.027 C 
ATOM     21  C   UNL     1       0.002  -0.004   0.002  0.00  0.00    +0.067 C 
ATOM     22  C   UNL     1       0.742  -0.511   1.242  0.00  0.00    +0.027 C 
ENDBRANCH  16  21
ENDBRANCH   1  17
BRANCH   9  23
ATOM     23  C   UNL     1      -6.633  -4.971  -0.008  0.00  0.00    +0.412 C 
ATOM     24  F   UNL     1      -7.457  -3.852   0.147  0.00  0.00    -0.168 F 
ATOM     25  F   UNL     1      -7.412  -6.079  -0.361  0.00  0.00    -0.168 F 
ATOM     26  F   UNL     1      -5.969  -5.232   1.195  0.00  0.00    -0.168 F 
ENDBRANCH   9  23
TORSDOF 4
