REMARK  Name = ZINC61673843
REMARK  3 active torsions:
REMARK  status: ('A' for Active; 'I' for Inactive)
REMARK    1  A    between atoms: C_3  and  N_4
REMARK    2  A    between atoms: C_5  and  C_8
REMARK    3  A    between atoms: N_6  and  N_7
REMARK                            x       y       z     vdW  Elec       q    Type
REMARK                         _______ _______ _______ _____ _____    ______ ____
ROOT
ATOM      1  N   UNL     1      -0.310  -0.710  -1.238  0.00  0.00    -0.330 N 
ATOM      2  C   UNL     1      -0.917  -1.957  -1.192  0.00  0.00    +0.088 C 
ATOM      3  N   UNL     1      -1.113  -2.539  -0.055  0.00  0.00    -0.304 N 
ATOM      4  H   UNL     1      -0.164  -0.273  -2.091  0.00  0.00    +0.147 HD
ATOM      5  H   UNL     1      -0.769  -2.140   0.760  0.00  0.00    +0.185 HD
ENDROOT
BRANCH   2   6
ATOM      6  C   UNL     1      -1.349  -2.632  -2.468  0.00  0.00    +0.056 C 
ATOM      7  C   UNL     1      -0.240  -3.570  -2.953  0.00  0.00    +0.039 C 
ATOM      8  C   UNL     1      -0.654  -4.191  -4.289  0.00  0.00    +0.160 C 
ATOM      9  O   UNL     1      -0.915  -3.152  -5.235  0.00  0.00    -0.380 OA
ATOM     10  C   UNL     1      -1.976  -2.272  -4.857  0.00  0.00    +0.160 C 
ATOM     11  C   UNL     1      -1.614  -1.574  -3.543  0.00  0.00    +0.039 C 
ENDBRANCH   2   6
BRANCH   1  14
ATOM     12  C   UNL     1       0.217   1.473  -0.006  0.00  0.00    +0.024 C 
ATOM     13  C   UNL     1       1.485   0.618   0.017  0.00  0.00    +0.024 C 
ATOM     14  C   UNL     1       0.110  -0.053   0.003  0.00  0.00    +0.072 C 
ENDBRANCH   1  14
BRANCH   3  15
ATOM     15  N   UNL     1      -1.820  -3.747   0.002  0.00  0.00    -0.304 N 
ATOM     16  H   UNL     1      -2.049  -4.136   0.860  0.00  0.00    +0.162 HD
ATOM     17  H   UNL     1      -2.081  -4.195  -0.818  0.00  0.00    +0.162 HD
ENDBRANCH   3  15
TORSDOF 3
