REMARK  Name = ZINC51169293
REMARK  5 active torsions:
REMARK  status: ('A' for Active; 'I' for Inactive)
REMARK    1  A    between atoms: C_1  and  C_2
REMARK    2  A    between atoms: C_2  and  C_3
REMARK    3  A    between atoms: C_4  and  C_16
REMARK    4  A    between atoms: C_12  and  N_13
REMARK    5  A    between atoms: N_13  and  N_14
REMARK                            x       y       z     vdW  Elec       q    Type
REMARK                         _______ _______ _______ _____ _____    ______ ____
ROOT
ATOM      1  C   UNL     1      -1.447  -0.440   0.012  0.00  0.00    -0.006 A 
ATOM      2  C   UNL     1      -2.091  -0.685   1.217  0.00  0.00    +0.018 A 
ATOM      3  N   UNL     1      -3.288  -1.221   1.266  0.00  0.00    -0.358 N 
ATOM      4  C   UNL     1      -3.953  -1.560   0.155  0.00  0.00    +0.048 A 
ATOM      5  C   UNL     1      -5.234  -2.133   0.225  0.00  0.00    +0.027 A 
ATOM      6  C   UNL     1      -5.888  -2.468  -0.921  0.00  0.00    +0.016 A 
ATOM      7  C   UNL     1      -5.306  -2.253  -2.169  0.00  0.00    +0.014 A 
ATOM      8  C   UNL     1      -4.065  -1.700  -2.274  0.00  0.00    +0.026 A 
ATOM      9  C   UNL     1      -3.365  -1.343  -1.113  0.00  0.00    +0.022 A 
ATOM     10  C   UNL     1      -2.076  -0.760  -1.181  0.00  0.00    +0.055 A 
ATOM     11  I   UNL     1      -6.352  -2.787  -3.904  0.00  0.00    -0.044 I 
ATOM     12  C   UNL     1      -1.396  -0.326   2.505  0.00  0.00    +0.063 C 
ATOM     13  H   UNL     1      -3.701  -1.376   2.130  0.00  0.00    +0.166 HD
ENDROOT
BRANCH   1  15
ATOM     14  C   UNL     1      -0.197   1.701  -0.045  0.00  0.00    +0.009 C 
ATOM     15  C   UNL     1      -0.072   0.176   0.000  0.00  0.00    +0.035 C 
ENDBRANCH   1  15
BRANCH  10  16
ATOM     16  N   UNL     1      -1.462  -0.522  -2.400  0.00  0.00    -0.282 N 
ATOM     17  H   UNL     1      -0.902   0.262  -2.517  0.00  0.00    +0.166 HD
BRANCH  16  18
ATOM     18  N   UNL     1      -1.645  -1.391  -3.438  0.00  0.00    -0.256 NA
ATOM     19  H   UNL     1      -1.138  -1.088  -4.257  0.00  0.00    +0.140 HD
ATOM     20  H   UNL     1      -1.380  -2.329  -3.176  0.00  0.00    +0.140 HD
ENDBRANCH  16  18
ENDBRANCH  10  16
TORSDOF 3
