REMARK  Name = ZINC63279606
REMARK  3 active torsions:
REMARK  status: ('A' for Active; 'I' for Inactive)
REMARK    1  A    between atoms: C_3  and  C_13
REMARK    2  A    between atoms: C_6  and  C_7
REMARK    3  A    between atoms: C_19  and  C_21
REMARK                            x       y       z     vdW  Elec       q    Type
REMARK                         _______ _______ _______ _____ _____    ______ ____
ROOT
ATOM      1  C   UNL     1       3.692   2.214  -0.111  0.00  0.00    +0.050 C 
ATOM      2  N   UNL     1       3.850   3.514  -0.181  0.00  0.00    -0.264 NA
ATOM      3  C   UNL     1       5.238   3.837  -0.031  0.00  0.00    +0.205 C 
ATOM      4  C   UNL     1       5.987   2.579  -0.561  0.00  0.00    +0.128 C 
ATOM      5  C   UNL     1       5.051   1.533   0.071  0.00  0.00    +0.072 C 
ATOM      6  C   UNL     1       7.371   2.690   0.000  0.00  0.00    +0.228 C 
ATOM      7  O   UNL     1       7.958   1.738   0.468  0.00  0.00    -0.275 OA
ATOM      8  N   UNL     1       7.925   3.933  -0.050  0.00  0.00    -0.240 N 
ATOM      9  C   UNL     1       7.243   5.002  -0.506  0.00  0.00    +0.307 C 
ATOM     10  O   UNL     1       7.854   5.984  -0.880  0.00  0.00    -0.252 OA
ATOM     11  N   UNL     1       5.891   4.993  -0.564  0.00  0.00    -0.277 N 
ATOM     12  H   UNL     1       8.839   4.052   0.251  0.00  0.00    +0.159 HD
ATOM     13  H   UNL     1       5.396   5.734  -0.948  0.00  0.00    +0.152 HD
ENDROOT
BRANCH   5  14
ATOM     14  C   UNL     1       5.110   0.208  -0.693  0.00  0.00    +0.146 C 
ATOM     15  C   UNL     1       6.344  -0.545  -0.236  0.00  0.00    +0.099 C 
ATOM     16  N   UNL     1       7.234  -0.873  -1.143  0.00  0.00    -0.152 NA
ATOM     17  C   UNL     1       7.089  -0.569  -2.435  0.00  0.00    +0.331 C 
ATOM     18  O   UNL     1       7.970  -0.918  -3.198  0.00  0.00    -0.250 OA
ATOM     19  N   UNL     1       6.045   0.091  -2.953  0.00  0.00    -0.238 N 
ATOM     20  C   UNL     1       5.028   0.514  -2.177  0.00  0.00    +0.231 C 
ATOM     21  O   UNL     1       4.085   1.114  -2.648  0.00  0.00    -0.275 OA
ATOM     22  N   UNL     1       6.523  -0.869   1.063  0.00  0.00    -0.348 N 
ATOM     23  H   UNL     1       6.023   0.270  -3.906  0.00  0.00    +0.159 HD
ATOM     24  H   UNL     1       5.823  -0.684   1.709  0.00  0.00    +0.143 HD
ATOM     25  H   UNL     1       7.351  -1.285   1.350  0.00  0.00    +0.143 HD
ENDBRANCH   5  14
BRANCH   1  28
ATOM     26  C   UNL     1       0.128   1.412  -0.976  0.00  0.00    +0.004 A 
ATOM     27  C   UNL     1       1.337   2.073  -0.907  0.00  0.00    +0.010 A 
ATOM     28  C   UNL     1       2.395   1.512  -0.190  0.00  0.00    -0.004 A 
ATOM     29  C   UNL     1       2.223   0.285   0.453  0.00  0.00    +0.010 A 
ATOM     30  C   UNL     1       1.009  -0.366   0.375  0.00  0.00    +0.004 A 
ATOM     31  C   UNL     1      -0.036   0.196  -0.338  0.00  0.00    -0.044 A 
BRANCH  31  32
ATOM     32  C   UNL     1      -1.360  -0.521  -0.418  0.00  0.00    +0.019 C 
ATOM     33  C   UNL     1      -1.926  -0.705   0.991  0.00  0.00    +0.008 C 
ATOM     34  C   UNL     1      -3.270  -1.432   0.910  0.00  0.00    +0.001 C 
ATOM     35  C   UNL     1      -3.070  -2.802   0.258  0.00  0.00    +0.000 C 
ATOM     36  C   UNL     1      -2.503  -2.618  -1.151  0.00  0.00    +0.001 C 
ATOM     37  C   UNL     1      -1.159  -1.891  -1.070  0.00  0.00    +0.008 C 
ENDBRANCH  31  32
ENDBRANCH   1  28
TORSDOF 3
