REMARK  Name = ZINC61856691
REMARK  7 active torsions:
REMARK  status: ('A' for Active; 'I' for Inactive)
REMARK    1  A    between atoms: C_1  and  C_2
REMARK    2  A    between atoms: C_2  and  C_3
REMARK    3  A    between atoms: C_2  and  N_4
REMARK    4  A    between atoms: N_4  and  C_5
REMARK    5  A    between atoms: N_4  and  C_11
REMARK    6  A    between atoms: C_5  and  C_6
REMARK    7  A    between atoms: C_14  and  C_18
REMARK                            x       y       z     vdW  Elec       q    Type
REMARK                         _______ _______ _______ _____ _____    ______ ____
ROOT
ATOM      1  C   UNL     1      -2.345  -0.123   0.812  0.00  0.00    +0.032 A 
ATOM      2  C   UNL     1      -1.972   0.712   1.862  0.00  0.00    +0.024 A 
ATOM      3  C   UNL     1      -2.897   1.082   2.811  0.00  0.00    +0.014 A 
ATOM      4  C   UNL     1      -4.213   0.620   2.720  0.00  0.00    +0.030 A 
ATOM      5  C   UNL     1      -4.585  -0.219   1.664  0.00  0.00    +0.053 A 
ATOM      6  C   UNL     1      -3.654  -0.582   0.715  0.00  0.00    +0.043 A 
ATOM      7 CL   UNL     1      -6.218  -0.797   1.547  0.00  0.00    -0.083 Cl
ENDROOT
BRANCH   4   8
ATOM      8  C   UNL     1      -5.208   1.015   3.736  0.00  0.00    +0.096 C 
ATOM      9  N   UNL     1      -5.900   0.081   4.390  0.00  0.00    -0.387 N 
ATOM     10  N   UNL     1      -5.415   2.305   4.001  0.00  0.00    -0.345 N 
ATOM     11  H   UNL     1      -5.695  -0.857   4.255  0.00  0.00    +0.157 HD
ATOM     12  H   UNL     1      -4.911   2.984   3.525  0.00  0.00    +0.144 HD
ATOM     13  H   UNL     1      -6.068   2.564   4.669  0.00  0.00    +0.144 HD
ATOM     14  H   UNL     1      -6.608   0.341   5.000  0.00  0.00    +0.157 HD
ENDBRANCH   4   8
BRANCH   1  15
ATOM     15  N   UNL     1      -1.406  -0.496  -0.145  0.00  0.00    -0.322 N 
BRANCH  15  17
ATOM     16  C   UNL     1       0.972  -1.045   0.013  0.00  0.00    +0.027 C 
ATOM     17  C   UNL     1      -0.059   0.079  -0.112  0.00  0.00    +0.068 C 
ATOM     18  C   UNL     1       0.194   0.862  -1.401  0.00  0.00    +0.027 C 
ENDBRANCH  15  17
BRANCH  15  19
ATOM     19  C   UNL     1      -1.765  -1.462  -1.186  0.00  0.00    +0.147 C 
BRANCH  19  20
ATOM     20  C   UNL     1      -1.456  -2.856  -0.705  0.00  0.00    +0.007 A 
ATOM     21  C   UNL     1      -2.252  -3.724  -0.033  0.00  0.00    +0.013 A 
ATOM     22  C   UNL     1      -1.751  -4.966   0.309  0.00  0.00    +0.008 A 
ATOM     23  C   UNL     1      -0.478  -5.279  -0.037  0.00  0.00    +0.045 A 
ATOM     24  S   UNL     1       0.052  -3.797  -0.879  0.00  0.00    -0.100 S 
ENDBRANCH  19  20
ENDBRANCH  15  19
ENDBRANCH   1  15
TORSDOF 5
