REMARK  Name = ZINC12703702
REMARK  8 active torsions:
REMARK  status: ('A' for Active; 'I' for Inactive)
REMARK    1  A    between atoms: C_4  and  C_7
REMARK    2  A    between atoms: C_10  and  C_13
REMARK    3  A    between atoms: N_15  and  C_16
REMARK    4  A    between atoms: N_15  and  C_23
REMARK    5  A    between atoms: C_20  and  O_22
REMARK    6  A    between atoms: C_23  and  C_25
REMARK    7  A    between atoms: C_23  and  C_30
REMARK    8  A    between atoms: N_32  and  C_33
REMARK                            x       y       z     vdW  Elec       q    Type
REMARK                         _______ _______ _______ _____ _____    ______ ____
ROOT
ATOM      1  C   UNL     1      -1.113   5.837  -0.015  0.00  0.00    +0.268 C 
ATOM      2  O   UNL     1      -2.061   5.323  -0.579  0.00  0.00    -0.268 OA
ATOM      3  N   UNL     1      -0.132   5.065   0.495  0.00  0.00    -0.247 N 
ENDROOT
BRANCH   1   7
ATOM      4  C   UNL     1      -0.224   9.355   0.334  0.00  0.00    +0.047 A 
ATOM      5  C   UNL     1      -1.596   9.456   0.248  0.00  0.00    +0.028 A 
ATOM      6  C   UNL     1      -2.107   8.168   0.107  0.00  0.00    +0.033 A 
ATOM      7  C   UNL     1      -1.036   7.295   0.110  0.00  0.00    +0.103 A 
ATOM      8  N   UNL     1       0.115   8.036   0.256  0.00  0.00    -0.351 N 
ATOM      9  H   UNL     1       1.017   7.680   0.294  0.00  0.00    +0.166 HD
BRANCH   4  13
ATOM     10  C   UNL     1       2.484  12.596   0.786  0.00  0.00    +0.000 A 
ATOM     11  C   UNL     1       1.120  12.828   0.820  0.00  0.00    +0.001 A 
ATOM     12  C   UNL     1       0.235  11.780   0.674  0.00  0.00    +0.010 A 
ATOM     13  C   UNL     1       0.718  10.483   0.491  0.00  0.00    -0.002 A 
ATOM     14  C   UNL     1       2.095  10.255   0.463  0.00  0.00    +0.010 A 
ATOM     15  C   UNL     1       2.969  11.313   0.605  0.00  0.00    +0.001 A 
ENDBRANCH   4  13
ENDBRANCH   1   7
BRANCH   3  16
ATOM     16  C   UNL     1      -0.200   3.675   0.367  0.00  0.00    +0.041 A 
ATOM     17  C   UNL     1       0.876   2.887   0.756  0.00  0.00    +0.024 A 
ATOM     18  C   UNL     1       0.809   1.513   0.630  0.00  0.00    +0.005 A 
ATOM     19  C   UNL     1      -0.328   0.918   0.118  0.00  0.00    +0.045 A 
ATOM     20  C   UNL     1      -1.404   1.700  -0.277  0.00  0.00    +0.119 A 
ATOM     21  C   UNL     1      -1.343   3.079  -0.148  0.00  0.00    +0.069 A 
BRANCH  20  22
ATOM     22  O   UNL     1      -2.520   1.114  -0.787  0.00  0.00    -0.507 OA
ATOM     23  H   UNL     1      -3.214   0.956  -0.133  0.00  0.00    +0.292 HD
ENDBRANCH  20  22
ENDBRANCH   3  16
BRANCH   3  24
ATOM     24  C   UNL     1       1.004   5.683   1.183  0.00  0.00    +0.233 C 
BRANCH  24  25
ATOM     25  C   UNL     1       2.255   5.481   0.367  0.00  0.00    +0.135 A 
ATOM     26  C   UNL     1       3.225   6.394   0.176  0.00  0.00    +0.047 A 
ATOM     27  C   UNL     1       4.203   5.785  -0.644  0.00  0.00    +0.041 A 
ATOM     28  C   UNL     1       3.768   4.541  -0.911  0.00  0.00    +0.195 A 
ATOM     29  O   UNL     1       2.588   4.362  -0.296  0.00  0.00    -0.465 OA
ENDBRANCH  24  25
BRANCH  24  30
ATOM     30  C   UNL     1       1.179   5.045   2.537  0.00  0.00    +0.242 C 
ATOM     31  O   UNL     1       0.428   4.162   2.893  0.00  0.00    -0.273 OA
ATOM     32  N   UNL     1       2.169   5.457   3.353  0.00  0.00    -0.311 N 
ATOM     33  H   UNL     1       2.770   6.164   3.069  0.00  0.00    +0.149 HD
BRANCH  32  34
ATOM     34  C   UNL     1       2.339   4.837   4.670  0.00  0.00    +0.073 C 
ATOM     35  C   UNL     1       1.470   5.568   5.714  0.00  0.00    +0.022 C 
ATOM     36  C   UNL     1       2.336   5.565   6.998  0.00  0.00    +0.002 C 
ATOM     37  C   UNL     1       3.765   5.792   6.446  0.00  0.00    +0.002 C 
ATOM     38  C   UNL     1       3.799   4.980   5.135  0.00  0.00    +0.022 C 
ENDBRANCH  32  34
ENDBRANCH  24  30
ENDBRANCH   3  24
TORSDOF 8
