REMARK  Name = ZINC42641481
REMARK  11 active torsions:
REMARK  status: ('A' for Active; 'I' for Inactive)
REMARK    1  A    between atoms: C_1  and  C_2
REMARK    2  A    between atoms: C_2  and  C_4
REMARK    3  A    between atoms: C_2  and  N_12
REMARK    4  A    between atoms: N_6  and  C_7
REMARK    5  A    between atoms: C_7  and  C_8
REMARK    6  A    between atoms: C_8  and  C_9
REMARK    7  A    between atoms: C_9  and  C_10
REMARK    8  A    between atoms: C_9  and  C_11
REMARK    9  A    between atoms: C_15  and  N_18
REMARK   10  A    between atoms: N_18  and  S_19
REMARK   11  A    between atoms: S_19  and  C_22
REMARK                            x       y       z     vdW  Elec       q    Type
REMARK                         _______ _______ _______ _____ _____    ______ ____
ROOT
ATOM      1  N   UNL     1       1.009  -0.915   0.562  0.00  0.00    +0.387 N 
ATOM      2  C   UNL     1       1.009  -2.170  -0.199  0.00  0.00    -0.076 C 
ATOM      3  C   UNL     1       1.999  -3.153   0.430  0.00  0.00    +0.002 C 
ATOM      4  C   UNL     1       3.402  -2.540   0.408  0.00  0.00    +0.073 C 
ATOM      5  C   UNL     1       3.373  -1.196   1.141  0.00  0.00    +0.002 C 
ATOM      6  C   UNL     1       2.333  -0.286   0.486  0.00  0.00    -0.076 C 
ATOM      7  H   UNL     1       0.785  -1.109   1.527  0.00  0.00    -0.081 HD
ENDROOT
BRANCH   1   9
ATOM      8  C   UNL     1       0.019   1.315   0.778  0.00  0.00    -0.004 C 
ATOM      9  C   UNL     1       0.002  -0.004   0.002  0.00  0.00    +0.016 C 
BRANCH   9  10
ATOM     10  C   UNL     1      -1.362  -0.634   0.113  0.00  0.00    +0.199 C 
ATOM     11  O   UNL     1      -1.592  -1.433   0.996  0.00  0.00    -0.278 OA
ATOM     12  N   UNL     1      -2.328  -0.310  -0.770  0.00  0.00    -0.317 N 
ATOM     13  H   UNL     1      -2.144   0.329  -1.477  0.00  0.00    +0.149 HD
BRANCH  12  14
ATOM     14  C   UNL     1      -3.654  -0.922  -0.663  0.00  0.00    +0.104 C 
BRANCH  14  15
ATOM     15  C   UNL     1      -4.555  -0.387  -1.777  0.00  0.00    +0.022 C 
BRANCH  15  16
ATOM     16  C   UNL     1      -5.941  -1.026  -1.665  0.00  0.00    -0.016 C 
ATOM     17  C   UNL     1      -6.604  -0.582  -0.360  0.00  0.00    +0.007 C 
ATOM     18  C   UNL     1      -6.803  -0.587  -2.850  0.00  0.00    +0.007 C 
ENDBRANCH  15  16
ENDBRANCH  14  15
ENDBRANCH  12  14
ENDBRANCH   9  10
ENDBRANCH   1   9
BRANCH   4  19
ATOM     19  N   UNL     1       4.342  -3.443   1.077  0.00  0.00    -0.187 NA
ATOM     20  H   UNL     1       4.051  -3.966   1.841  0.00  0.00    +0.148 HD
BRANCH  19  21
ATOM     21  S   UNL     1       5.899  -3.572   0.530  0.00  0.00    +0.065 S 
ATOM     22  O   UNL     1       6.558  -4.492   1.391  0.00  0.00    -0.153 OA
ATOM     23  O   UNL     1       5.821  -3.765  -0.875  0.00  0.00    -0.153 OA
BRANCH  21  24
ATOM     24  C   UNL     1       6.670  -2.007   0.781  0.00  0.00    +0.142 A 
ATOM     25  C   UNL     1       7.359  -1.558   1.858  0.00  0.00    +0.036 A 
ATOM     26  C   UNL     1       7.883  -0.280   1.834  0.00  0.00    +0.010 A 
ATOM     27  C   UNL     1       7.692   0.488   0.733  0.00  0.00    +0.047 A 
ATOM     28  S   UNL     1       6.753  -0.605  -0.321  0.00  0.00    -0.077 S 
ENDBRANCH  21  24
ENDBRANCH  19  21
ENDBRANCH   4  19
TORSDOF 8
