REMARK  Name = ZINC33625986
REMARK  14 active torsions:
REMARK  status: ('A' for Active; 'I' for Inactive)
REMARK    1  A    between atoms: C_1  and  C_2
REMARK    2  A    between atoms: C_2  and  C_3
REMARK    3  A    between atoms: C_3  and  C_4
REMARK    4  A    between atoms: C_4  and  C_6
REMARK    5  A    between atoms: C_4  and  N_32
REMARK    6  A    between atoms: C_8  and  C_11
REMARK    7  A    between atoms: N_13  and  C_14
REMARK    8  A    between atoms: C_14  and  C_16
REMARK    9  A    between atoms: C_14  and  C_20
REMARK   10  A    between atoms: C_16  and  C_17
REMARK   11  A    between atoms: C_17  and  C_18
REMARK   12  A    between atoms: C_17  and  C_19
REMARK   13  A    between atoms: N_22  and  C_23
REMARK   14  A    between atoms: C_26  and  N_29
REMARK                            x       y       z     vdW  Elec       q    Type
REMARK                         _______ _______ _______ _____ _____    ______ ____
ROOT
ATOM      1  C   UNL     1       5.655  -0.523  -0.061  0.00  0.00    +0.160 C 
ENDROOT
BRANCH   1   4
ATOM      2  C   UNL     1       3.525   0.660  -0.037  0.00  0.00    +0.266 C 
ATOM      3  O   UNL     1       4.141   1.709  -0.046  0.00  0.00    -0.268 OA
ATOM      4  N   UNL     1       4.190  -0.512  -0.043  0.00  0.00    -0.299 N 
ATOM      5  H   UNL     1       3.633  -1.460  -0.035  0.00  0.00    +0.150 HD
BRANCH   2   8
ATOM      6  C   UNL     1       0.002  -0.007   0.006  0.00  0.00    +0.182 A 
ATOM      7  N   UNL     1       1.235  -0.417  -0.008  0.00  0.00    -0.210 NA
ATOM      8  C   UNL     1       2.051   0.671  -0.019  0.00  0.00    +0.163 A 
ATOM      9  C   UNL     1       1.251   1.772  -0.011  0.00  0.00    +0.230 A 
ATOM     10  O   UNL     1      -0.018   1.334   0.005  0.00  0.00    -0.449 OA
BRANCH   6  11
ATOM     11  C   UNL     1      -1.214  -0.897   0.022  0.00  0.00    +0.013 C 
BRANCH  11  12
ATOM     12  N   UNL     1      -2.176  -0.395   1.012  0.00  0.00    +0.386 N 
ATOM     13  H   UNL     1      -1.710  -0.394   2.008  0.00  0.00    -0.089 HD
ATOM     14  H   UNL     1      -3.064  -1.045   1.023  0.00  0.00    -0.089 HD
ATOM     15  H   UNL     1      -2.475   0.629   0.746  0.00  0.00    -0.089 HD
ENDBRANCH  11  12
BRANCH  11  16
ATOM     16  C   UNL     1      -1.862  -0.899  -1.364  0.00  0.00    -0.007 C 
BRANCH  16  18
ATOM     17  C   UNL     1      -3.670  -1.899  -2.770  0.00  0.00    +0.004 C 
ATOM     18  C   UNL     1      -3.021  -1.897  -1.384  0.00  0.00    -0.005 C 
ENDBRANCH  16  18
ENDBRANCH  11  16
ENDBRANCH   6  11
ENDBRANCH   2   8
ENDBRANCH   1   4
BRANCH   1  19
ATOM     19  C   UNL     1       6.140  -1.815  -0.665  0.00  0.00    +0.238 C 
ATOM     20  O   UNL     1       5.341  -2.646  -1.044  0.00  0.00    -0.273 OA
ATOM     21  N   UNL     1       7.462  -2.049  -0.785  0.00  0.00    -0.284 N 
ATOM     22  H   UNL     1       8.186  -1.266  -0.512  0.00  0.00    +0.155 HD
BRANCH  21  23
ATOM     23  C   UNL     1       7.915  -3.287  -1.256  0.00  0.00    +0.034 A 
ATOM     24  C   UNL     1       9.089  -3.834  -0.756  0.00  0.00    +0.025 A 
ATOM     25  C   UNL     1       9.530  -5.058  -1.220  0.00  0.00    +0.034 A 
ATOM     26  C   UNL     1       8.809  -5.733  -2.188  0.00  0.00    +0.126 A 
ATOM     27  C   UNL     1       7.642  -5.188  -2.691  0.00  0.00    +0.034 A 
ATOM     28  C   UNL     1       7.193  -3.967  -2.228  0.00  0.00    +0.025 A 
BRANCH  26  29
ATOM     29  N   UNL     1       9.287  -7.043  -2.686  0.00  0.00    +0.056 N 
ATOM     30  O   UNL     1       8.653  -7.639  -3.538  0.00  0.00    -0.126 OA
ATOM     31  O   UNL     1      10.315  -7.524  -2.243  0.00  0.00    -0.126 OA
ENDBRANCH  26  29
ENDBRANCH  21  23
ENDBRANCH   1  19
BRANCH   1  32
ATOM     32  C   UNL     1       6.183  -0.399   1.370  0.00  0.00    +0.034 C 
BRANCH  32  33
ATOM     33  C   UNL     1       5.796   0.967   1.940  0.00  0.00    -0.015 C 
ATOM     34  C   UNL     1       6.214   1.043   3.410  0.00  0.00    +0.007 C 
ATOM     35  C   UNL     1       6.504   2.069   1.150  0.00  0.00    +0.007 C 
ENDBRANCH  32  33
ENDBRANCH   1  32
TORSDOF 11
