REMARK  Name = ZINC19740774
REMARK  11 active torsions:
REMARK  status: ('A' for Active; 'I' for Inactive)
REMARK    1  A    between atoms: C_1  and  O_2
REMARK    2  A    between atoms: O_2  and  C_3
REMARK    3  A    between atoms: C_6  and  C_11
REMARK    4  A    between atoms: C_7  and  O_9
REMARK    5  A    between atoms: O_9  and  C_10
REMARK    6  A    between atoms: C_11  and  N_12
REMARK    7  A    between atoms: C_18  and  C_20
REMARK    8  A    between atoms: C_20  and  C_21
REMARK    9  A    between atoms: N_23  and  C_24
REMARK   10  A    between atoms: C_24  and  C_25
REMARK   11  A    between atoms: C_25  and  O_31
REMARK                            x       y       z     vdW  Elec       q    Type
REMARK                         _______ _______ _______ _____ _____    ______ ____
ROOT
ATOM      1  N   UNL     1       0.711  -0.934   6.606  0.00  0.00    +0.391 N 
ATOM      2  C   UNL     1       0.874  -2.203   5.878  0.00  0.00    -0.058 C 
ATOM      3  C   UNL     1       0.423  -3.350   6.784  0.00  0.00    +0.085 C 
ATOM      4  N   UNL     1      -0.896  -3.061   7.338  0.00  0.00    -0.318 N 
ATOM      5  C   UNL     1      -1.421  -1.831   7.364  0.00  0.00    +0.200 C 
ATOM      6  O   UNL     1      -2.511  -1.675   7.872  0.00  0.00    -0.278 OA
ATOM      7  C   UNL     1      -0.715  -0.635   6.791  0.00  0.00    +0.028 C 
ATOM      8  H   UNL     1      -1.506  -3.874   7.760  0.00  0.00    +0.149 HD
ATOM      9  H   UNL     1       1.176  -1.037   7.598  0.00  0.00    -0.080 HD
ENDROOT
BRANCH   1  10
ATOM     10  C   UNL     1       1.393   0.164   5.909  0.00  0.00    -0.038 C 
BRANCH  10  14
ATOM     11  C   UNL     1      -0.305   0.653   2.014  0.00  0.00    +0.124 A 
ATOM     12  C   UNL     1       0.821  -0.138   2.190  0.00  0.00    +0.046 A 
ATOM     13  C   UNL     1       1.368  -0.294   3.449  0.00  0.00    +0.009 A 
ATOM     14  C   UNL     1       0.795   0.337   4.537  0.00  0.00    -0.022 A 
ATOM     15  C   UNL     1      -0.331   1.129   4.366  0.00  0.00    +0.125 A 
ATOM     16  C   UNL     1      -0.879   1.291   3.103  0.00  0.00    +0.091 A 
BRANCH  11  18
ATOM     17  C   UNL     1      -0.196   0.123  -0.301  0.00  0.00    +0.277 C 
ATOM     18  O   UNL     1      -0.843   0.806   0.776  0.00  0.00    -0.495 OA
ENDBRANCH  11  18
BRANCH  15  19
ATOM     19  O   UNL     1      -0.894   1.750   5.436  0.00  0.00    -0.495 OA
ATOM     20  C   UNL     1      -2.051   2.551   5.187  0.00  0.00    +0.277 C 
ENDBRANCH  15  19
ENDBRANCH  10  14
ENDBRANCH   1  10
BRANCH   7  21
ATOM     21  C   UNL     1      -0.866   0.550   7.747  0.00  0.00    +0.089 C 
BRANCH  21  22
ATOM     22  C   UNL     1      -0.299   0.184   9.094  0.00  0.00    +0.212 C 
ATOM     23  O   UNL     1       0.105  -0.941   9.296  0.00  0.00    -0.276 OA
ATOM     24  N   UNL     1      -0.242   1.107  10.075  0.00  0.00    -0.313 N 
ATOM     25  H   UNL     1      -0.610   2.128   9.891  0.00  0.00    +0.149 HD
BRANCH  24  26
ATOM     26  C   UNL     1       0.309   0.751  11.384  0.00  0.00    +0.138 C 
BRANCH  26  27
ATOM     27  C   UNL     1       0.258   1.970  12.307  0.00  0.00    +0.081 C 
ATOM     28  C   UNL     1       0.978   3.145  11.641  0.00  0.00    +0.036 C 
ATOM     29  C   UNL     1       0.927   4.364  12.564  0.00  0.00    +0.003 C 
ATOM     30  C   UNL     1       1.615   4.029  13.889  0.00  0.00    +0.000 C 
ATOM     31  C   UNL     1       0.895   2.855  14.556  0.00  0.00    +0.003 C 
ATOM     32  C   UNL     1       0.946   1.636  13.633  0.00  0.00    +0.036 C 
BRANCH  27  33
ATOM     33  O   UNL     1      -1.104   2.325  12.554  0.00  0.00    -0.387 OA
ATOM     34  H   UNL     1      -1.341   3.183  13.200  0.00  0.00    +0.210 HD
ENDBRANCH  27  33
ENDBRANCH  26  27
ENDBRANCH  24  26
ENDBRANCH  21  22
ENDBRANCH   7  21
TORSDOF 9
