REMARK  Name = ZINC08921136
REMARK  13 active torsions:
REMARK  status: ('A' for Active; 'I' for Inactive)
REMARK    1  A    between atoms: C_1  and  C_2
REMARK    2  A    between atoms: C_2  and  C_3
REMARK    3  A    between atoms: C_2  and  O_4
REMARK    4  A    between atoms: O_4  and  C_5
REMARK    5  A    between atoms: C_8  and  C_11
REMARK    6  A    between atoms: C_14  and  C_15
REMARK    7  A    between atoms: C_14  and  O_22
REMARK    8  A    between atoms: N_27  and  C_28
REMARK    9  A    between atoms: C_28  and  C_29
REMARK   10  A    between atoms: C_29  and  C_30
REMARK   11  A    between atoms: C_30  and  N_61
REMARK   12  A    between atoms: C_31  and  N_61
REMARK   13  A    between atoms: C_32  and  N_61
REMARK                            x       y       z     vdW  Elec       q    Type
REMARK                         _______ _______ _______ _____ _____    ______ ____
ROOT
ATOM      1  C   UNL     1       4.252   1.176   0.007  0.00  0.00    +0.144 C 
ATOM      2  C   UNL     1       2.898   1.734   0.381  0.00  0.00    +0.071 C 
ATOM      3  C   UNL     1       1.764   1.014   0.698  0.00  0.00    +0.133 C 
ATOM      4  C   UNL     1       3.025   3.131   0.335  0.00  0.00    +0.249 C 
ATOM      5  O   UNL     1       2.143   3.937   0.571  0.00  0.00    -0.282 OA
ATOM      6  C   UNL     1       4.425   3.457  -0.048  0.00  0.00    +0.288 C 
ATOM      7  O   UNL     1       4.869   4.580  -0.175  0.00  0.00    -0.266 OA
ATOM      8  N   UNL     1       5.126   2.327  -0.239  0.00  0.00    -0.284 N 
ENDROOT
BRANCH   3   9
ATOM      9  C   UNL     1       0.562   1.712   1.187  0.00  0.00    +0.017 A 
ATOM     10  C   UNL     1       0.658   2.618   2.248  0.00  0.00    +0.012 A 
ATOM     11  C   UNL     1      -0.472   3.263   2.703  0.00  0.00    +0.016 A 
ATOM     12  C   UNL     1      -1.699   3.022   2.107  0.00  0.00    +0.018 A 
ATOM     13  C   UNL     1      -1.802   2.126   1.055  0.00  0.00    +0.016 A 
ATOM     14  C   UNL     1      -0.681   1.470   0.592  0.00  0.00    +0.012 A 
ATOM     15 BR   UNL     1      -3.243   3.916   2.735  0.00  0.00    -0.050 Br
ENDBRANCH   3   9
BRANCH   1  19
ATOM     16  C   UNL     1       5.802  -1.179   3.218  0.00  0.00    +0.121 A 
ATOM     17  C   UNL     1       5.228  -1.798   2.116  0.00  0.00    +0.046 A 
ATOM     18  C   UNL     1       4.727  -1.034   1.080  0.00  0.00    +0.009 A 
ATOM     19  C   UNL     1       4.798   0.346   1.139  0.00  0.00    -0.022 A 
ATOM     20  C   UNL     1       5.375   0.964   2.233  0.00  0.00    +0.009 A 
ATOM     21  C   UNL     1       5.872   0.205   3.275  0.00  0.00    +0.046 A 
BRANCH  16  22
ATOM     22  O   UNL     1       6.295  -1.929   4.239  0.00  0.00    -0.489 OA
BRANCH  22  24
ATOM     23  C   UNL     1       7.399  -3.965   4.930  0.00  0.00    +0.051 C 
ATOM     24  C   UNL     1       6.304  -3.346   4.058  0.00  0.00    +0.167 C 
ATOM     25  C   UNL     1       4.944  -3.920   4.463  0.00  0.00    +0.051 C 
ENDBRANCH  22  24
ENDBRANCH  16  22
ENDBRANCH   1  19
BRANCH   3  26
ATOM     26  O   UNL     1       1.756  -0.329   0.560  0.00  0.00    -0.506 OA
ATOM     27  H   UNL     1       0.862  -0.686   0.832  0.00  0.00    +0.292 HD
ENDBRANCH   3  26
BRANCH   8  28
ATOM     28  C   UNL     1       6.536   2.255  -0.630  0.00  0.00    +0.107 C 
BRANCH  28  29
ATOM     29  C   UNL     1       6.642   2.226  -2.156  0.00  0.00    +0.000 C 
BRANCH  29  30
ATOM     30  C   UNL     1       8.114   2.152  -2.564  0.00  0.00    -0.078 C 
BRANCH  30  33
ATOM     31  C   UNL     1       9.609   2.291  -4.464  0.00  0.00    -0.097 C 
ATOM     32  C   UNL     1       7.639   0.887  -4.573  0.00  0.00    -0.097 C 
ATOM     33  N   UNL     1       8.200   2.146  -4.040  0.00  0.00    +0.376 N 
ATOM     34  H   UNL     1       7.658   2.935  -4.409  0.00  0.00    -0.083 HD
ENDBRANCH  30  33
ENDBRANCH  29  30
ENDBRANCH  28  29
ENDBRANCH   8  28
TORSDOF 9
