REMARK  Name = ZINC48921623
REMARK  8 active torsions:
REMARK  status: ('A' for Active; 'I' for Inactive)
REMARK    1  A    between atoms: C_1  and  C_2
REMARK    2  A    between atoms: C_2  and  C_3
REMARK    3  A    between atoms: C_3  and  N_4
REMARK    4  A    between atoms: N_4  and  C_5
REMARK    5  A    between atoms: N_4  and  C_8
REMARK    6  A    between atoms: C_5  and  C_6
REMARK    7  A    between atoms: C_6  and  O_7
REMARK    8  A    between atoms: C_17  and  N_18
REMARK                            x       y       z     vdW  Elec       q    Type
REMARK                         _______ _______ _______ _____ _____    ______ ____
ROOT
ATOM      1  C   UNL     1      -0.266  -2.689   1.842  0.00  0.00    +0.061 A 
ATOM      2  C   UNL     1      -0.193  -3.055   3.205  0.00  0.00    +0.022 A 
ATOM      3  C   UNL     1       0.917  -2.713   3.992  0.00  0.00    +0.027 A 
ATOM      4  C   UNL     1       0.953  -3.083   5.303  0.00  0.00    +0.019 A 
ATOM      5  C   UNL     1      -0.101  -3.797   5.872  0.00  0.00    +0.017 A 
ATOM      6  C   UNL     1      -1.191  -4.145   5.136  0.00  0.00    +0.027 A 
ATOM      7  C   UNL     1      -1.264  -3.780   3.780  0.00  0.00    +0.048 A 
ATOM      8  N   UNL     1      -2.326  -4.109   3.036  0.00  0.00    -0.359 N 
ATOM      9  C   UNL     1      -2.411  -3.777   1.769  0.00  0.00    +0.107 A 
ATOM     10  C   UNL     1      -1.402  -3.059   1.130  0.00  0.00    +0.063 A 
ATOM     11 BR   UNL     1       2.449  -2.622   6.364  0.00  0.00    -0.050 Br
ATOM     12  H   UNL     1      -3.052  -4.606   3.444  0.00  0.00    +0.165 HD
ENDROOT
BRANCH  10  13
ATOM     13  N   UNL     1      -1.529  -2.716  -0.224  0.00  0.00    -0.355 N 
ATOM     14  H   UNL     1      -0.823  -2.219  -0.666  0.00  0.00    +0.142 HD
ATOM     15  H   UNL     1      -2.322  -2.976  -0.718  0.00  0.00    +0.142 HD
ENDBRANCH  10  13
BRANCH   1  16
ATOM     16  N   UNL     1       0.762  -1.976   1.234  0.00  0.00    -0.326 N 
BRANCH  16  17
ATOM     17  C   UNL     1       0.742  -0.511   1.242  0.00  0.00    +0.105 C 
BRANCH  17  19
ATOM     18  C   UNL     1      -0.019   1.526   0.010  0.00  0.00    +0.005 C 
ATOM     19  C   UNL     1       0.002  -0.004   0.002  0.00  0.00    +0.015 C 
ENDBRANCH  17  19
ENDBRANCH  16  17
BRANCH  16  20
ATOM     20  C   UNL     1       1.864  -2.690   0.585  0.00  0.00    +0.133 C 
BRANCH  20  21
ATOM     21  C   UNL     1       2.981  -2.935   1.601  0.00  0.00    +0.174 C 
BRANCH  21  22
ATOM     22  O   UNL     1       2.510  -3.816   2.623  0.00  0.00    -0.393 OA
ATOM     23  H   UNL     1       3.167  -4.016   3.304  0.00  0.00    +0.209 HD
ENDBRANCH  21  22
ENDBRANCH  20  21
ENDBRANCH  16  20
ENDBRANCH   1  16
TORSDOF 7
