REMARK  Name = ZINC64435770
REMARK  6 active torsions:
REMARK  status: ('A' for Active; 'I' for Inactive)
REMARK    1  A    between atoms: C_4  and  C_7
REMARK    2  A    between atoms: C_10  and  C_20
REMARK    3  A    between atoms: N_12  and  C_14
REMARK    4  A    between atoms: N_22  and  C_23
REMARK    5  A    between atoms: C_23  and  C_24
REMARK    6  A    between atoms: C_24  and  C_25
REMARK                            x       y       z     vdW  Elec       q    Type
REMARK                         _______ _______ _______ _____ _____    ______ ____
ROOT
ATOM      1  C   UNL     1       3.711  -0.707  -0.038  0.00  0.00    +0.105 C 
ATOM      2  C   UNL     1       4.051  -1.272   1.369  0.00  0.00    +0.058 C 
ATOM      3  C   UNL     1       4.923  -2.495   0.998  0.00  0.00    +0.178 C 
ATOM      4  N   UNL     1       4.599  -2.795  -0.407  0.00  0.00    -0.254 N 
ATOM      5  N   UNL     1       3.615  -1.948  -0.849  0.00  0.00    -0.232 NA
ATOM      6  H   UNL     1       2.705  -2.372  -0.755  0.00  0.00    +0.145 HD
ENDROOT
BRANCH   1  10
ATOM      7  C   UNL     1      -0.017   1.378   0.010  0.00  0.00    +0.000 A 
ATOM      8  C   UNL     1       1.171   2.086   0.002  0.00  0.00    +0.000 A 
ATOM      9  C   UNL     1       2.377   1.411  -0.013  0.00  0.00    +0.005 A 
ATOM     10  C   UNL     1       2.396   0.029  -0.020  0.00  0.00    -0.029 A 
ATOM     11  C   UNL     1       1.208  -0.679  -0.012  0.00  0.00    +0.005 A 
ATOM     12  C   UNL     1       0.002  -0.004   0.002  0.00  0.00    +0.000 A 
ENDBRANCH   1  10
BRANCH   4  13
ATOM     13  C   UNL     1       5.205  -3.792  -1.175  0.00  0.00    +0.045 A 
ATOM     14  C   UNL     1       6.191  -4.596  -0.619  0.00  0.00    +0.024 A 
ATOM     15  C   UNL     1       6.788  -5.582  -1.381  0.00  0.00    +0.002 A 
ATOM     16  C   UNL     1       6.404  -5.768  -2.696  0.00  0.00    +0.000 A 
ATOM     17  C   UNL     1       5.422  -4.968  -3.253  0.00  0.00    +0.002 A 
ATOM     18  C   UNL     1       4.818  -3.985  -2.495  0.00  0.00    +0.024 A 
ENDBRANCH   4  13
BRANCH   3  19
ATOM     19  C   UNL     1       4.576  -3.669   1.877  0.00  0.00    +0.235 C 
ATOM     20  O   UNL     1       3.847  -4.544   1.460  0.00  0.00    -0.274 OA
ATOM     21  N   UNL     1       5.076  -3.746   3.126  0.00  0.00    -0.313 N 
ATOM     22  H   UNL     1       5.659  -3.046   3.459  0.00  0.00    +0.149 HD
BRANCH  21  23
ATOM     23  C   UNL     1       4.739  -4.887   3.981  0.00  0.00    +0.110 C 
BRANCH  23  24
ATOM     24  C   UNL     1       5.431  -4.731   5.336  0.00  0.00    +0.073 C 
BRANCH  24  25
ATOM     25  C   UNL     1       5.084  -5.905   6.215  0.00  0.00    +0.035 A 
ATOM     26  H   UNL     1       5.305  -8.779   7.410  0.00  0.00    +0.166 HD
ATOM     27  C   UNL     1       5.712  -7.097   6.229  0.00  0.00    +0.105 A 
ATOM     28  N   UNL     1       5.081  -7.866   7.168  0.00  0.00    -0.352 N 
ATOM     29  C   UNL     1       4.089  -7.118   7.697  0.00  0.00    +0.171 A 
ATOM     30  N   UNL     1       4.100  -5.944   7.126  0.00  0.00    -0.350 N 
ATOM     31  H   UNL     1       3.492  -5.216   7.327  0.00  0.00    +0.166 HD
ENDBRANCH  24  25
ENDBRANCH  23  24
ENDBRANCH  21  23
ENDBRANCH   3  19
TORSDOF 6
