REMARK  Name = ZINC48341513
REMARK  8 active torsions:
REMARK  status: ('A' for Active; 'I' for Inactive)
REMARK    1  A    between atoms: C_1  and  C_2
REMARK    2  A    between atoms: C_2  and  C_3
REMARK    3  A    between atoms: C_2  and  C_4
REMARK    4  A    between atoms: C_4  and  C_6
REMARK    5  A    between atoms: C_4  and  N_16
REMARK    6  A    between atoms: N_16  and  C_17
REMARK    7  A    between atoms: C_17  and  C_18
REMARK    8  A    between atoms: C_21  and  C_24
REMARK                            x       y       z     vdW  Elec       q    Type
REMARK                         _______ _______ _______ _____ _____    ______ ____
ROOT
ATOM      1  N   UNL     1      -1.730  -1.645   0.284  0.00  0.00    +0.386 N 
ATOM      2  H   UNL     1      -1.348  -2.120  -0.519  0.00  0.00    -0.085 HD
ATOM      3  H   UNL     1      -1.290  -1.994   1.122  0.00  0.00    -0.085 HD
ENDROOT
BRANCH   1   4
ATOM      4  C   UNL     1      -1.480  -0.202   0.165  0.00  0.00    -0.038 C 
BRANCH   4   5
ATOM      5  C   UNL     1      -2.018   0.294  -1.152  0.00  0.00    -0.057 A 
ATOM      6  C   UNL     1      -1.872  -0.475  -2.291  0.00  0.00    +0.006 A 
ATOM      7  C   UNL     1      -2.363  -0.023  -3.501  0.00  0.00    +0.049 A 
ATOM      8  C   UNL     1      -3.004   1.204  -3.576  0.00  0.00    +0.162 A 
ATOM      9  C   UNL     1      -3.153   1.977  -2.430  0.00  0.00    +0.162 A 
ATOM     10  C   UNL     1      -2.662   1.515  -1.218  0.00  0.00    +0.051 A 
ATOM     11  O   UNL     1      -3.786   3.181  -2.479  0.00  0.00    -0.485 OA
ATOM     12  C   UNL     1      -3.939   3.775  -3.773  0.00  0.00    +0.270 C 
ATOM     13  C   UNL     1      -4.444   2.696  -4.741  0.00  0.00    +0.270 C 
ATOM     14  O   UNL     1      -3.479   1.638  -4.775  0.00  0.00    -0.485 OA
ENDBRANCH   4   5
BRANCH   4  16
ATOM     15  C   UNL     1       0.290   1.559   0.059  0.00  0.00    +0.006 C 
ATOM     16  C   UNL     1       0.026   0.062   0.233  0.00  0.00    -0.027 C 
ATOM     17  C   UNL     1       0.564  -0.397   1.589  0.00  0.00    +0.006 C 
ENDBRANCH   4  16
ENDBRANCH   1   4
BRANCH   1  18
ATOM     18  C   UNL     1      -3.177  -1.886   0.353  0.00  0.00    -0.046 C 
BRANCH  18  19
ATOM     19  C   UNL     1      -3.435  -3.368   0.448  0.00  0.00    -0.064 A 
ATOM     20  C   UNL     1      -3.593  -4.115  -0.706  0.00  0.00    +0.002 A 
ATOM     21  C   UNL     1      -3.829  -5.472  -0.626  0.00  0.00    +0.013 A 
ATOM     22  C   UNL     1      -3.909  -6.091   0.623  0.00  0.00    +0.037 A 
ATOM     23  C   UNL     1      -3.749  -5.331   1.783  0.00  0.00    +0.013 A 
ATOM     24  C   UNL     1      -3.507  -3.976   1.689  0.00  0.00    +0.002 A 
BRANCH  22  25
ATOM     25  C   UNL     1      -4.162  -7.544   0.716  0.00  0.00    +0.242 C 
ATOM     26  O   UNL     1      -4.302  -8.203  -0.296  0.00  0.00    -0.270 OA
ATOM     27  N   UNL     1      -4.239  -8.139   1.923  0.00  0.00    -0.325 N 
ATOM     28  H   UNL     1      -4.127  -7.614   2.731  0.00  0.00    +0.145 HD
ATOM     29  H   UNL     1      -4.405  -9.093   1.984  0.00  0.00    +0.145 HD
ENDBRANCH  22  25
ENDBRANCH  18  19
ENDBRANCH   1  18
TORSDOF 6
