REMARK  Name = ZINC51581548
REMARK  5 active torsions:
REMARK  status: ('A' for Active; 'I' for Inactive)
REMARK    1  A    between atoms: C_1  and  C_2
REMARK    2  A    between atoms: C_5  and  C_15
REMARK    3  A    between atoms: C_6  and  S_8
REMARK    4  A    between atoms: S_8  and  C_9
REMARK    5  A    between atoms: N_13  and  C_14
REMARK                            x       y       z     vdW  Elec       q    Type
REMARK                         _______ _______ _______ _____ _____    ______ ____
ROOT
ATOM      1  C   UNL     1      -0.190   1.502   0.072  0.00  0.00    +0.044 C 
ATOM      2  C   UNL     1      -0.081  -0.000   0.040  0.00  0.00    -0.049 A 
ATOM      3  C   UNL     1      -0.147  -0.669  -1.173  0.00  0.00    +0.004 A 
ATOM      4  C   UNL     1      -0.048  -2.043  -1.216  0.00  0.00    +0.012 A 
ATOM      5  C   UNL     1       0.120  -2.767  -0.034  0.00  0.00    +0.026 A 
ATOM      6  C   UNL     1       0.187  -2.087   1.192  0.00  0.00    +0.026 A 
ATOM      7  C   UNL     1       0.091  -0.701   1.215  0.00  0.00    +0.019 A 
ENDROOT
BRANCH   5   8
ATOM      8  C   UNL     1       0.227  -4.239  -0.073  0.00  0.00    +0.095 C 
ATOM      9  N   UNL     1      -0.622  -4.987   0.632  0.00  0.00    -0.387 N 
ATOM     10  N   UNL     1       1.171  -4.819  -0.813  0.00  0.00    -0.345 N 
ATOM     11  H   UNL     1      -1.265  -4.565   1.224  0.00  0.00    +0.157 HD
ATOM     12  H   UNL     1       1.788  -4.274  -1.326  0.00  0.00    +0.144 HD
ATOM     13  H   UNL     1       1.241  -5.786  -0.839  0.00  0.00    +0.144 HD
ATOM     14  H   UNL     1      -0.597  -5.954   0.553  0.00  0.00    +0.157 HD
ENDBRANCH   5   8
BRANCH   6  15
ATOM     15  S   UNL     1       0.398  -2.985   2.693  0.00  0.00    -0.048 S 
BRANCH  15  16
ATOM     16  C   UNL     1       2.100  -3.443   2.680  0.00  0.00    +0.214 A 
ATOM     17  N   UNL     1       3.001  -3.076   1.795  0.00  0.00    -0.101 NA
ATOM     18  N   UNL     1       4.144  -3.586   2.079  0.00  0.00    -0.022 NA
ATOM     19  N   UNL     1       4.062  -4.304   3.146  0.00  0.00    -0.043 NA
ATOM     20  N   UNL     1       2.727  -4.233   3.582  0.00  0.00    -0.223 N 
ATOM     21  C   UNL     1       2.140  -4.879   4.759  0.00  0.00    +0.177 C 
ENDBRANCH  15  16
ENDBRANCH   6  15
TORSDOF 3
