REMARK  Name = ZINC20104164
REMARK  11 active torsions:
REMARK  status: ('A' for Active; 'I' for Inactive)
REMARK    1  A    between atoms: C_1  and  C_2
REMARK    2  A    between atoms: C_2  and  N_3
REMARK    3  A    between atoms: N_6  and  C_9
REMARK    4  A    between atoms: C_9  and  C_10
REMARK    5  A    between atoms: C_10  and  C_11
REMARK    6  A    between atoms: C_11  and  N_12
REMARK    7  A    between atoms: C_13  and  C_15
REMARK    8  A    between atoms: N_25  and  C_36
REMARK    9  A    between atoms: C_26  and  C_28
REMARK   10  A    between atoms: C_31  and  O_34
REMARK   11  A    between atoms: O_34  and  C_35
REMARK                            x       y       z     vdW  Elec       q    Type
REMARK                         _______ _______ _______ _____ _____    ______ ____
ROOT
ATOM      1  C   UNL     1      -6.682   1.610  -0.615  0.00  0.00    +0.130 C 
ATOM      2  C   UNL     1      -6.443   0.168  -0.254  0.00  0.00    -0.021 A 
ATOM      3  C   UNL     1      -7.480  -0.740  -0.258  0.00  0.00    +0.005 A 
ATOM      4  C   UNL     1      -7.236  -2.070   0.037  0.00  0.00    +0.000 A 
ATOM      5  C   UNL     1      -5.954  -2.498   0.333  0.00  0.00    +0.001 A 
ATOM      6  C   UNL     1      -4.908  -1.597   0.347  0.00  0.00    +0.013 A 
ATOM      7  C   UNL     1      -5.152  -0.255   0.070  0.00  0.00    +0.041 A 
ATOM      8  C   UNL     1      -4.057   0.739   0.086  0.00  0.00    +0.248 C 
ATOM      9  O   UNL     1      -2.898   0.375   0.121  0.00  0.00    -0.270 OA
ATOM     10  N   UNL     1      -4.357   2.052   0.060  0.00  0.00    -0.286 N 
ATOM     11  C   UNL     1      -5.738   2.512   0.182  0.00  0.00    +0.123 C 
ENDROOT
BRANCH  11  12
ATOM     12  C   UNL     1      -5.839   3.921  -0.343  0.00  0.00    -0.026 A 
ATOM     13  C   UNL     1      -5.133   4.939   0.272  0.00  0.00    +0.009 A 
ATOM     14  C   UNL     1      -5.219   6.231  -0.211  0.00  0.00    +0.046 A 
ATOM     15  C   UNL     1      -6.024   6.508  -1.307  0.00  0.00    +0.120 A 
ATOM     16  C   UNL     1      -6.735   5.486  -1.919  0.00  0.00    +0.046 A 
ATOM     17  C   UNL     1      -6.641   4.195  -1.436  0.00  0.00    +0.009 A 
BRANCH  15  18
ATOM     18  O   UNL     1      -6.115   7.779  -1.780  0.00  0.00    -0.495 OA
ATOM     19  C   UNL     1      -5.355   8.780  -1.101  0.00  0.00    +0.277 C 
ENDBRANCH  15  18
ENDBRANCH  11  12
BRANCH  10  20
ATOM     20  C   UNL     1      -3.280   3.034  -0.087  0.00  0.00    +0.077 C 
ATOM     21  C   UNL     1      -2.428   2.679  -1.307  0.00  0.00    +0.022 C 
ATOM     22  C   UNL     1      -1.303   3.705  -1.460  0.00  0.00    +0.002 C 
ATOM     23  C   UNL     1      -0.427   3.692  -0.206  0.00  0.00    +0.000 C 
ATOM     24  C   UNL     1      -1.278   4.047   1.014  0.00  0.00    +0.002 C 
ATOM     25  C   UNL     1      -2.403   3.021   1.168  0.00  0.00    +0.022 C 
ENDBRANCH  10  20
BRANCH   1  27
ATOM     26  N   UNL     1      -7.453   1.656  -2.965  0.00  0.00    -0.315 N 
ATOM     27  C   UNL     1      -6.439   1.803  -2.090  0.00  0.00    +0.223 C 
ATOM     28  O   UNL     1      -5.330   2.090  -2.489  0.00  0.00    -0.275 OA
ATOM     29  H   UNL     1      -8.458   1.396  -2.603  0.00  0.00    +0.149 HD
BRANCH  26  30
ATOM     30  C   UNL     1      -7.216   1.844  -4.399  0.00  0.00    +0.105 C 
BRANCH  30  31
ATOM     31  C   UNL     1      -8.521   1.621  -5.165  0.00  0.00    +0.034 C 
BRANCH  31  32
ATOM     32  C   UNL     1      -8.274   1.817  -6.662  0.00  0.00    +0.086 C 
BRANCH  32  36
ATOM     33  N   UNL     1     -11.172   0.448  -9.414  0.00  0.00    +0.381 N 
ATOM     34  C   UNL     1     -10.736   1.848  -9.513  0.00  0.00    -0.063 C 
ATOM     35  C   UNL     1      -9.390   2.011  -8.803  0.00  0.00    +0.066 C 
ATOM     36  N   UNL     1      -9.527   1.603  -7.397  0.00  0.00    -0.306 NA
ATOM     37  C   UNL     1      -9.964   0.203  -7.298  0.00  0.00    +0.066 C 
ATOM     38  C   UNL     1     -11.310   0.040  -8.009  0.00  0.00    -0.063 C 
ATOM     39  H   UNL     1     -10.398  -0.183  -9.876  0.00  0.00    -0.082 HD
BRANCH  33  41
ATOM     40  C   UNL     1     -12.717  -1.265 -10.236  0.00  0.00    -0.017 C 
ATOM     41  C   UNL     1     -12.426   0.234 -10.149  0.00  0.00    -0.082 C 
ENDBRANCH  33  41
ENDBRANCH  32  36
ENDBRANCH  31  32
ENDBRANCH  30  31
ENDBRANCH  26  30
ENDBRANCH   1  27
TORSDOF 9
