REMARK  Name = ZINC37739146
REMARK  4 active torsions:
REMARK  status: ('A' for Active; 'I' for Inactive)
REMARK    1  A    between atoms: C_5  and  C_7
REMARK    2  A    between atoms: C_7  and  N_8
REMARK    3  A    between atoms: C_9  and  C_11
REMARK    4  A    between atoms: C_14  and  O_18
REMARK                            x       y       z     vdW  Elec       q    Type
REMARK                         _______ _______ _______ _____ _____    ______ ____
ROOT
ATOM      1  N   UNL     1      -0.763  -2.004  -1.180  0.00  0.00    -0.316 N 
ATOM      2  C   UNL     1      -1.335  -2.700  -2.181  0.00  0.00    +0.199 C 
ATOM      3  O   UNL     1      -1.790  -2.117  -3.143  0.00  0.00    -0.278 OA
ATOM      4  H   UNL     1      -0.399  -2.470  -0.411  0.00  0.00    +0.149 HD
ENDROOT
BRANCH   2   5
ATOM      5  C   UNL     1      -1.411  -4.204  -2.107  0.00  0.00    +0.018 C 
ATOM      6  C   UNL     1      -0.058  -4.818  -2.522  0.00  0.00    +0.023 C 
ATOM      7  C   UNL     1      -0.477  -6.075  -3.330  0.00  0.00    +0.097 C 
ATOM      8  C   UNL     1      -1.758  -5.574  -4.043  0.00  0.00    -0.050 C 
ATOM      9  N   UNL     1      -2.429  -4.702  -3.050  0.00  0.00    +0.388 N 
ATOM     10  H   UNL     1      -3.127  -5.230  -2.548  0.00  0.00    -0.085 HD
ATOM     11  H   UNL     1      -2.866  -3.924  -3.521  0.00  0.00    -0.085 HD
BRANCH   7  12
ATOM     12  O   UNL     1       0.530  -6.434  -4.278  0.00  0.00    -0.394 OA
ATOM     13  H   UNL     1       0.312  -7.214  -4.807  0.00  0.00    +0.210 HD
ENDBRANCH   7  12
ENDBRANCH   2   5
BRANCH   1  14
ATOM     14  C   UNL     1      -0.690  -0.543  -1.252  0.00  0.00    +0.110 C 
BRANCH  14  19
ATOM     15  C   UNL     1      -0.019   1.541   0.011  0.00  0.00    +0.035 C 
ATOM     16  C   UNL     1       1.474   1.937  -0.002  0.00  0.00    +0.160 C 
ATOM     17  O   UNL     1       2.163   0.795   0.553  0.00  0.00    -0.379 OA
ATOM     18  C   UNL     1       1.506  -0.359  -0.014  0.00  0.00    +0.165 C 
ATOM     19  C   UNL     1       0.002  -0.004   0.002  0.00  0.00    +0.034 C 
ENDBRANCH  14  19
ENDBRANCH   1  14
TORSDOF 4
