REMARK  Name = ZINC40012564
REMARK  9 active torsions:
REMARK  status: ('A' for Active; 'I' for Inactive)
REMARK    1  A    between atoms: C_1  and  C_2
REMARK    2  A    between atoms: C_2  and  C_3
REMARK    3  A    between atoms: C_2  and  O_4
REMARK    4  A    between atoms: O_4  and  C_5
REMARK    5  A    between atoms: C_5  and  C_7
REMARK    6  A    between atoms: C_9  and  N_18
REMARK    7  A    between atoms: C_19  and  C_21
REMARK    8  A    between atoms: C_21  and  S_22
REMARK    9  A    between atoms: S_22  and  C_23
REMARK                            x       y       z     vdW  Elec       q    Type
REMARK                         _______ _______ _______ _____ _____    ______ ____
ROOT
ATOM      1  C   UNL     1       0.618  -1.196   3.521  0.00  0.00    +0.155 C 
ATOM      2  C   UNL     1       1.691  -0.175   3.969  0.00  0.00    +0.153 C 
ATOM      3  S   UNL     1       1.510  -0.361   5.792  0.00  0.00    -0.106 S 
ATOM      4  C   UNL     1      -0.136  -1.030   5.822  0.00  0.00    -0.013 C 
ATOM      5  C   UNL     1      -0.434  -1.396   4.582  0.00  0.00    -0.044 C 
ATOM      6  C   UNL     1      -1.797  -1.999   4.248  0.00  0.00    +0.032 C 
ATOM      7  C   UNL     1      -2.448  -2.510   5.532  0.00  0.00    +0.005 C 
ATOM      8  C   UNL     1      -2.455  -1.394   6.582  0.00  0.00    +0.005 C 
ATOM      9  C   UNL     1      -1.015  -1.150   7.036  0.00  0.00    +0.042 C 
ENDROOT
BRANCH   2  10
ATOM     10  N   UNL     1       3.028  -0.566   3.516  0.00  0.00    -0.301 N 
ATOM     11  C   UNL     1       3.849   0.351   2.967  0.00  0.00    +0.224 C 
ATOM     12  O   UNL     1       3.480   1.500   2.847  0.00  0.00    -0.275 OA
ATOM     13  H   UNL     1       3.323  -1.485   3.613  0.00  0.00    +0.150 HD
BRANCH  11  14
ATOM     14  C   UNL     1       5.224  -0.051   2.502  0.00  0.00    +0.173 C 
BRANCH  14  15
ATOM     15  S   UNL     1       6.077   1.395   1.815  0.00  0.00    -0.075 S 
BRANCH  15  16
ATOM     16  C   UNL     1       7.649   0.769   1.323  0.00  0.00    +0.210 A 
ATOM     17  N   UNL     1       8.047  -0.475   1.447  0.00  0.00    -0.144 NA
ATOM     18  H   UNL     1       9.918  -1.327   0.884  0.00  0.00    +0.192 HD
ATOM     19  N   UNL     1       9.352  -0.540   0.933  0.00  0.00    -0.246 N 
ATOM     20  C   UNL     1       9.664   0.706   0.521  0.00  0.00    +0.209 A 
ATOM     21  N   UNL     1       8.628   1.483   0.756  0.00  0.00    -0.188 NA
ATOM     22  N   UNL     1      10.860   1.097  -0.054  0.00  0.00    -0.328 N 
ATOM     23  H   UNL     1      11.567   0.448  -0.191  0.00  0.00    +0.145 HD
ATOM     24  H   UNL     1      10.991   2.021  -0.319  0.00  0.00    +0.145 HD
ENDBRANCH  15  16
ENDBRANCH  14  15
ENDBRANCH  11  14
ENDBRANCH   2  10
BRANCH   1  25
ATOM     25  C   UNL     1      -0.042  -0.697   2.261  0.00  0.00    +0.317 C 
ATOM     26  O   UNL     1      -1.233  -0.493   2.243  0.00  0.00    -0.250 OA
BRANCH  25  27
ATOM     27  O   UNL     1       0.693  -0.477   1.160  0.00  0.00    -0.461 OA
BRANCH  27  29
ATOM     28  C   UNL     1      -0.019   1.526   0.010  0.00  0.00    +0.052 C 
ATOM     29  C   UNL     1       0.002  -0.004   0.002  0.00  0.00    +0.170 C 
ATOM     30  C   UNL     1       0.718  -0.497  -1.257  0.00  0.00    +0.052 C 
ENDBRANCH  27  29
ENDBRANCH  25  27
ENDBRANCH   1  25
TORSDOF 7
