REMARK  Name = ZINC35427441
REMARK  4 active torsions:
REMARK  status: ('A' for Active; 'I' for Inactive)
REMARK    1  A    between atoms: C_1  and  C_2
REMARK    2  A    between atoms: C_2  and  N_3
REMARK    3  A    between atoms: C_17  and  C_31
REMARK    4  A    between atoms: N_23  and  C_24
REMARK                            x       y       z     vdW  Elec       q    Type
REMARK                         _______ _______ _______ _____ _____    ______ ____
ROOT
ATOM      1  N   UNL     1      -0.149   0.422  -2.228  0.00  0.00    +0.383 N 
ATOM      2  C   UNL     1      -0.485  -1.007  -2.235  0.00  0.00    -0.074 C 
ATOM      3  C   UNL     1       0.149  -1.698  -3.446  0.00  0.00    +0.018 C 
ATOM      4  C   UNL     1       1.639  -1.367  -3.452  0.00  0.00    -0.034 A 
ATOM      5  C   UNL     1       2.584  -2.099  -4.194  0.00  0.00    +0.004 A 
ATOM      6  C   UNL     1       3.879  -1.685  -4.112  0.00  0.00    +0.090 A 
ATOM      7  S   UNL     1       3.837  -0.309  -3.005  0.00  0.00    -0.077 S 
ATOM      8  C   UNL     1       2.088  -0.319  -2.708  0.00  0.00    -0.021 A 
ATOM      9  C   UNL     1       1.269   0.591  -1.855  0.00  0.00    -0.035 C 
ATOM     10  N   UNL     1       4.930  -2.275  -4.803  0.00  0.00    -0.312 N 
ATOM     11  C   UNL     1       6.170  -2.643  -4.404  0.00  0.00    +0.092 A 
ATOM     12  C   UNL     1       6.786  -3.240  -5.450  0.00  0.00    +0.020 A 
ATOM     13  C   UNL     1       5.890  -3.218  -6.540  0.00  0.00    +0.025 A 
ATOM     14  C   UNL     1       4.771  -2.602  -6.130  0.00  0.00    +0.049 A 
ATOM     15  C   UNL     1       3.540  -2.245  -6.907  0.00  0.00    +0.155 C 
ATOM     16  N   UNL     1       2.368  -3.048  -6.482  0.00  0.00    -0.268 N 
ATOM     17  C   UNL     1       2.224  -3.301  -5.037  0.00  0.00    +0.148 C 
ATOM     18  C   UNL     1       1.476  -3.523  -7.375  0.00  0.00    +0.308 C 
ATOM     19  O   UNL     1       1.623  -3.297  -8.560  0.00  0.00    -0.252 OA
ATOM     20  N   UNL     1       0.422  -4.250  -6.953  0.00  0.00    -0.267 N 
ATOM     21  H   UNL     1       0.268  -4.374  -6.004  0.00  0.00    +0.156 HD
ATOM     22  H   UNL     1      -0.303   0.809  -3.147  0.00  0.00    -0.081 HD
ENDROOT
BRANCH  20  23
ATOM     23  C   UNL     1      -0.450  -4.825  -7.886  0.00  0.00    +0.070 A 
ATOM     24  C   UNL     1      -0.619  -4.239  -9.133  0.00  0.00    +0.026 A 
ATOM     25  C   UNL     1      -1.480  -4.809 -10.052  0.00  0.00    +0.002 A 
ATOM     26  C   UNL     1      -2.174  -5.961  -9.730  0.00  0.00    +0.003 A 
ATOM     27  C   UNL     1      -2.010  -6.547  -8.489  0.00  0.00    +0.040 A 
ATOM     28  C   UNL     1      -1.145  -5.986  -7.567  0.00  0.00    +0.145 A 
ATOM     29  F   UNL     1      -0.979  -6.562  -6.356  0.00  0.00    -0.204 F 
ENDBRANCH  20  23
BRANCH  15  30
ATOM     30  C   UNL     1       3.234  -0.785  -6.698  0.00  0.00    -0.021 A 
ATOM     31  C   UNL     1       4.266   0.122  -6.545  0.00  0.00    +0.006 A 
ATOM     32  C   UNL     1       3.985   1.462  -6.354  0.00  0.00    +0.000 A 
ATOM     33  C   UNL     1       2.673   1.895  -6.316  0.00  0.00    +0.000 A 
ATOM     34  C   UNL     1       1.641   0.988  -6.470  0.00  0.00    +0.000 A 
ATOM     35  C   UNL     1       1.922  -0.351  -6.666  0.00  0.00    +0.006 A 
ENDBRANCH  15  30
BRANCH   1  37
ATOM     36  C   UNL     1      -0.735   2.626  -1.334  0.00  0.00    -0.017 C 
ATOM     37  C   UNL     1      -0.998   1.121  -1.254  0.00  0.00    -0.082 C 
ENDBRANCH   1  37
TORSDOF 3
