REMARK  Name = ZINC21882598
REMARK  15 active torsions:
REMARK  status: ('A' for Active; 'I' for Inactive)
REMARK    1  A    between atoms: C_1  and  C_2
REMARK    2  A    between atoms: C_2  and  N_3
REMARK    3  A    between atoms: N_3  and  C_4
REMARK    4  A    between atoms: N_3  and  C_32
REMARK    5  A    between atoms: C_4  and  C_5
REMARK    6  A    between atoms: C_5  and  C_6
REMARK    7  A    between atoms: C_6  and  N_7
REMARK    8  A    between atoms: C_8  and  C_10
REMARK    9  A    between atoms: C_10  and  C_11
REMARK   10  A    between atoms: C_11  and  C_12
REMARK   11  A    between atoms: C_24  and  C_28
REMARK   12  A    between atoms: C_28  and  C_29
REMARK   13  A    between atoms: C_28  and  C_30
REMARK   14  A    between atoms: C_28  and  C_31
REMARK   15  A    between atoms: C_36  and  C_38
REMARK                            x       y       z     vdW  Elec       q    Type
REMARK                         _______ _______ _______ _____ _____    ______ ____
ROOT
ATOM      1  C   UNL     1       6.202   9.023  -4.503  0.00  0.00    +0.083 C 
ENDROOT
BRANCH   1   2
ATOM      2  C   UNL     1       6.620   9.288  -5.926  0.00  0.00    +0.111 A 
ATOM      3  N   UNL     1       7.764   9.978  -6.168  0.00  0.00    -0.310 N 
ATOM      4  H   UNL     1       8.374  10.343  -5.329  0.00  0.00    +0.170 HD
ATOM      5  C   UNL     1       8.177  10.231  -7.425  0.00  0.00    +0.260 A 
ATOM      6  O   UNL     1       9.209  10.848  -7.625  0.00  0.00    -0.267 OA
ATOM      7  C   UNL     1       7.380   9.767  -8.522  0.00  0.00    +0.075 A 
ATOM      8  C   UNL     1       7.626   9.927  -9.955  0.00  0.00    -0.023 A 
ATOM      9  C   UNL     1       6.715   9.394 -10.795  0.00  0.00    -0.004 A 
ATOM     10  S   UNL     1       5.494   8.657  -9.742  0.00  0.00    -0.073 S 
ATOM     11  C   UNL     1       6.213   9.069  -8.173  0.00  0.00    +0.116 A 
ATOM     12  N   UNL     1       5.873   8.853  -6.905  0.00  0.00    -0.227 NA
ATOM     13  C   UNL     1       6.737   9.420 -12.293  0.00  0.00    +0.046 C 
ATOM     14  C   UNL     1       8.146   9.825 -12.750  0.00  0.00    -0.000 C 
ATOM     15  C   UNL     1       8.587  11.054 -11.950  0.00  0.00    +0.009 C 
ATOM     16  C   UNL     1       8.850  10.661 -10.495  0.00  0.00    +0.037 C 
BRANCH  14  17
ATOM     17  C   UNL     1       8.125  10.164 -14.241  0.00  0.00    -0.035 C 
ATOM     18  C   UNL     1       7.158  11.325 -14.487  0.00  0.00    +0.011 C 
ATOM     19  C   UNL     1       9.530  10.567 -14.693  0.00  0.00    +0.011 C 
ATOM     20  C   UNL     1       7.665   8.940 -15.036  0.00  0.00    +0.011 C 
ENDBRANCH  14  17
ENDBRANCH   1   2
BRANCH   1  21
ATOM     21  C   UNL     1       4.888   8.240  -4.494  0.00  0.00    +0.103 C 
BRANCH  21  23
ATOM     22  N   UNL     1       3.334   7.297  -2.816  0.00  0.00    -0.315 N 
ATOM     23  C   UNL     1       4.470   7.976  -3.070  0.00  0.00    +0.213 C 
ATOM     24  O   UNL     1       5.156   8.375  -2.153  0.00  0.00    -0.276 OA
ATOM     25  H   UNL     1       2.712   6.935  -3.648  0.00  0.00    +0.149 HD
BRANCH  22  26
ATOM     26  C   UNL     1       2.928   7.040  -1.432  0.00  0.00    +0.105 C 
BRANCH  26  27
ATOM     27  C   UNL     1       1.614   6.257  -1.423  0.00  0.00    +0.037 C 
BRANCH  27  28
ATOM     28  C   UNL     1       1.190   5.989   0.022  0.00  0.00    +0.106 C 
BRANCH  28  29
ATOM     29  N   UNL     1      -0.069   5.239   0.030  0.00  0.00    -0.330 N 
BRANCH  29  30
ATOM     30  C   UNL     1      -0.050   3.842   0.023  0.00  0.00    +0.030 A 
ATOM     31  C   UNL     1       1.161   3.163   0.008  0.00  0.00    +0.023 A 
ATOM     32  C   UNL     1       1.177   1.782   0.000  0.00  0.00    +0.002 A 
ATOM     33  C   UNL     1      -0.013   1.076   0.008  0.00  0.00    +0.003 A 
ATOM     34  C   UNL     1      -1.220   1.749   0.017  0.00  0.00    -0.049 A 
ATOM     35  C   UNL     1      -1.242   3.130   0.031  0.00  0.00    +0.026 A 
ATOM     36  C   UNL     1      -2.513   0.976   0.019  0.00  0.00    +0.044 C 
ENDBRANCH  29  30
BRANCH  29  38
ATOM     37  C   UNL     1      -1.778   6.196   1.494  0.00  0.00    +0.024 C 
ATOM     38  C   UNL     1      -1.347   5.954   0.046  0.00  0.00    +0.102 C 
ENDBRANCH  29  38
ENDBRANCH  28  29
ENDBRANCH  27  28
ENDBRANCH  26  27
ENDBRANCH  22  26
ENDBRANCH  21  23
ENDBRANCH   1  21
TORSDOF 10
