REMARK  Name = ZINC52094461
REMARK  4 active torsions:
REMARK  status: ('A' for Active; 'I' for Inactive)
REMARK    1  A    between atoms: C_1  and  N_2
REMARK    2  A    between atoms: N_2  and  C_3
REMARK    3  A    between atoms: C_3  and  C_5
REMARK    4  A    between atoms: C_3  and  C_10
REMARK                            x       y       z     vdW  Elec       q    Type
REMARK                         _______ _______ _______ _____ _____    ______ ____
ROOT
ATOM      1  C   UNL     1       0.841  -1.991   1.123  0.00  0.00    -0.041 A 
ATOM      2  C   UNL     1       0.002  -2.715   0.298  0.00  0.00    +0.031 A 
ATOM      3  C   UNL     1       0.119  -4.095   0.234  0.00  0.00    +0.067 A 
ATOM      4  C   UNL     1       1.085  -4.747   1.003  0.00  0.00    +0.068 A 
ATOM      5  C   UNL     1       1.923  -4.013   1.828  0.00  0.00    +0.043 A 
ATOM      6  C   UNL     1       1.802  -2.637   1.881  0.00  0.00    +0.022 A 
ATOM      7 BR   UNL     1       2.950  -1.633   3.000  0.00  0.00    -0.050 Br
ATOM      8  N   UNL     1       0.964  -6.108   0.732  0.00  0.00    -0.306 N 
ATOM      9  H   UNL     1       1.504  -6.814   1.120  0.00  0.00    +0.170 HD
ATOM     10  C   UNL     1      -0.029  -6.276  -0.162  0.00  0.00    +0.325 A 
ATOM     11  O   UNL     1      -0.394  -7.346  -0.611  0.00  0.00    -0.247 OA
ATOM     12  N   UNL     1      -0.558  -5.080  -0.481  0.00  0.00    -0.306 N 
ATOM     13  H   UNL     1      -1.287  -4.930  -1.103  0.00  0.00    +0.170 HD
ENDROOT
BRANCH   1  14
ATOM     14  C   UNL     1       0.713  -0.491   1.192  0.00  0.00    -0.006 C 
BRANCH  14  15
ATOM     15  C   UNL     1      -0.059  -0.109   2.429  0.00  0.00    -0.019 A 
ATOM     16  C   UNL     1       0.482   0.354   3.650  0.00  0.00    +0.043 A 
ATOM     17  C   UNL     1      -0.556   0.576   4.477  0.00  0.00    +0.195 A 
ATOM     18  O   UNL     1      -1.690   0.272   3.825  0.00  0.00    -0.471 OA
ATOM     19  C   UNL     1      -1.395  -0.139   2.581  0.00  0.00    +0.197 A 
ENDBRANCH  14  15
BRANCH  14  21
ATOM     20  C   UNL     1      -0.018   1.465   0.010  0.00  0.00    -0.099 C 
ATOM     21  N   UNL     1       0.002  -0.004   0.002  0.00  0.00    +0.385 N 
ATOM     22  H   UNL     1      -0.945  -0.353   0.009  0.00  0.00    -0.085 HD
ATOM     23  H   UNL     1       0.474  -0.330  -0.828  0.00  0.00    -0.085 HD
ENDBRANCH  14  21
ENDBRANCH   1  14
TORSDOF 3
