REMARK  Name = ZINC06088948
REMARK  10 active torsions:
REMARK  status: ('A' for Active; 'I' for Inactive)
REMARK    1  A    between atoms: C_1  and  C_2
REMARK    2  A    between atoms: C_6  and  N_8
REMARK    3  A    between atoms: N_8  and  S_9
REMARK    4  A    between atoms: S_9  and  C_12
REMARK    5  A    between atoms: C_15  and  N_20
REMARK    6  A    between atoms: C_16  and  O_18
REMARK    7  A    between atoms: O_18  and  C_19
REMARK    8  A    between atoms: N_20  and  C_21
REMARK    9  A    between atoms: C_22  and  C_23
REMARK   10  A    between atoms: C_22  and  C_25
REMARK                            x       y       z     vdW  Elec       q    Type
REMARK                         _______ _______ _______ _____ _____    ______ ____
ROOT
ATOM      1  C   UNL     1       2.724  -3.437   2.528  0.00  0.00    +0.112 A 
ATOM      2  C   UNL     1       3.386  -3.344   1.318  0.00  0.00    +0.031 A 
ATOM      3  C   UNL     1       4.673  -2.843   1.266  0.00  0.00    +0.029 A 
ATOM      4  C   UNL     1       5.303  -2.431   2.432  0.00  0.00    +0.073 A 
ATOM      5  C   UNL     1       4.635  -2.524   3.651  0.00  0.00    +0.143 A 
ATOM      6  C   UNL     1       3.344  -3.023   3.693  0.00  0.00    +0.076 A 
ENDROOT
BRANCH   1   7
ATOM      7  S   UNL     1       1.083  -4.077   2.586  0.00  0.00    +0.072 S 
ATOM      8  O   UNL     1       0.883  -4.562   3.906  0.00  0.00    -0.150 OA
ATOM      9  O   UNL     1       0.929  -4.902   1.439  0.00  0.00    -0.150 OA
BRANCH   7  10
ATOM     10  N   UNL     1       0.051  -2.796   2.390  0.00  0.00    -0.216 N 
ATOM     11  H   UNL     1      -0.543  -2.538   3.112  0.00  0.00    +0.174 HD
BRANCH  10  17
ATOM     12  C   UNL     1      -0.018   1.503   0.010  0.00  0.00    +0.044 C 
ATOM     13  C   UNL     1       0.002  -0.004   0.002  0.00  0.00    -0.049 A 
ATOM     14  C   UNL     1       0.006  -0.688  -1.200  0.00  0.00    +0.003 A 
ATOM     15  C   UNL     1       0.024  -2.071  -1.212  0.00  0.00    +0.002 A 
ATOM     16  C   UNL     1       0.039  -2.773  -0.023  0.00  0.00    +0.024 A 
ATOM     17  C   UNL     1       0.036  -2.089   1.186  0.00  0.00    +0.048 A 
ATOM     18  C   UNL     1       0.023  -0.700   1.194  0.00  0.00    +0.027 A 
ENDBRANCH  10  17
ENDBRANCH   7  10
ENDBRANCH   1   7
BRANCH   5  19
ATOM     19  O   UNL     1       5.248  -2.122   4.796  0.00  0.00    -0.493 OA
ATOM     20  C   UNL     1       4.502  -2.247   6.009  0.00  0.00    +0.277 C 
ENDBRANCH   5  19
BRANCH   4  21
ATOM     21  N   UNL     1       6.606  -1.923   2.383  0.00  0.00    -0.317 N 
ATOM     22  H   UNL     1       7.046  -1.636   3.198  0.00  0.00    +0.152 HD
BRANCH  21  23
ATOM     23  C   UNL     1       7.253  -1.834   1.199  0.00  0.00    +0.088 C 
ATOM     24  C   UNL     1       8.540  -1.333   1.151  0.00  0.00    +0.090 C 
BRANCH  24  25
ATOM     25  C   UNL     1       9.244  -1.236  -0.140  0.00  0.00    +0.233 A 
ATOM     26  N   UNL     1       8.744  -1.590  -1.299  0.00  0.00    -0.209 NA
ATOM     27  C   UNL     1       9.672  -1.361  -2.264  0.00  0.00    +0.111 A 
ATOM     28  C   UNL     1       9.689  -1.545  -3.648  0.00  0.00    +0.051 A 
ATOM     29  C   UNL     1      10.814  -1.206  -4.369  0.00  0.00    +0.043 A 
ATOM     30  C   UNL     1      11.928  -0.684  -3.727  0.00  0.00    +0.024 A 
ATOM     31  C   UNL     1      11.925  -0.498  -2.360  0.00  0.00    +0.050 A 
ATOM     32  C   UNL     1      10.802  -0.832  -1.619  0.00  0.00    +0.156 A 
ATOM     33  O   UNL     1      10.496  -0.765  -0.303  0.00  0.00    -0.435 OA
ATOM     34 CL   UNL     1      10.838  -1.434  -6.090  0.00  0.00    -0.083 Cl
ENDBRANCH  24  25
BRANCH  24  35
ATOM     35  C   UNL     1       9.181  -0.914   2.340  0.00  0.00    +0.265 C 
ATOM     36  O   UNL     1      10.312  -0.473   2.297  0.00  0.00    -0.295 OA
ENDBRANCH  24  35
ENDBRANCH  21  23
ENDBRANCH   4  21
TORSDOF 8
