REMARK  Name = ZINC20418455
REMARK  13 active torsions:
REMARK  status: ('A' for Active; 'I' for Inactive)
REMARK    1  A    between atoms: C_1  and  C_2
REMARK    2  A    between atoms: C_7  and  C_8
REMARK    3  A    between atoms: C_8  and  N_9
REMARK    4  A    between atoms: N_9  and  C_10
REMARK    5  A    between atoms: N_9  and  C_20
REMARK    6  A    between atoms: C_12  and  C_18
REMARK    7  A    between atoms: C_12  and  C_19
REMARK    8  A    between atoms: C_14  and  C_16
REMARK    9  A    between atoms: C_14  and  C_17
REMARK   10  A    between atoms: C_20  and  N_22
REMARK   11  A    between atoms: N_22  and  C_23
REMARK   12  A    between atoms: C_28  and  O_29
REMARK   13  A    between atoms: O_29  and  C_30
REMARK                            x       y       z     vdW  Elec       q    Type
REMARK                         _______ _______ _______ _____ _____    ______ ____
ROOT
ATOM      1  N   UNL     1      -0.050   1.099  -2.426  0.00  0.00    -0.305 N 
ENDROOT
BRANCH   1   2
ATOM      2  C   UNL     1      -0.776   1.563  -1.237  0.00  0.00    +0.073 C 
ATOM      3  C   UNL     1      -0.024   1.121   0.018  0.00  0.00    +0.009 C 
ATOM      4  C   UNL     1      -0.745   1.611   1.271  0.00  0.00    -0.072 C 
ATOM      5  N   UNL     1      -1.083   3.018   1.215  0.00  0.00    +0.386 N 
ATOM      6  C   UNL     1      -1.573   3.603  -0.015  0.00  0.00    -0.072 C 
ATOM      7  C   UNL     1      -0.840   3.091  -1.252  0.00  0.00    +0.009 C 
ATOM      8  C   UNL     1      -1.354   5.131   0.056  0.00  0.00    -0.010 C 
ATOM      9  C   UNL     1      -3.080   3.369  -0.178  0.00  0.00    -0.010 C 
ATOM     10  C   UNL     1      -1.991   0.752   1.514  0.00  0.00    -0.010 C 
ATOM     11  C   UNL     1       0.204   1.390   2.470  0.00  0.00    -0.010 C 
ATOM     12  H   UNL     1      -1.878   3.233   1.944  0.00  0.00    -0.084 HD
ATOM     13  H   UNL     1      -0.193   3.619   1.455  0.00  0.00    -0.084 HD
ENDBRANCH   1   2
BRANCH   1  14
ATOM     14  C   UNL     1       1.202   1.537  -2.665  0.00  0.00    +0.138 C 
ATOM     15  S   UNL     1       1.993   2.535  -1.520  0.00  0.00    -0.018 S 
BRANCH  14  16
ATOM     16  N   UNL     1       1.831   1.190  -3.805  0.00  0.00    -0.294 N 
ATOM     17  H   UNL     1       1.881   1.901  -4.644  0.00  0.00    +0.154 HD
BRANCH  16  18
ATOM     18  C   UNL     1       2.422  -0.075  -3.923  0.00  0.00    +0.075 A 
ATOM     19  C   UNL     1       2.278  -1.007  -2.905  0.00  0.00    +0.028 A 
ATOM     20  C   UNL     1       2.861  -2.254  -3.023  0.00  0.00    +0.022 A 
ATOM     21  C   UNL     1       3.589  -2.577  -4.155  0.00  0.00    +0.045 A 
ATOM     22  C   UNL     1       3.737  -1.653  -5.173  0.00  0.00    +0.067 A 
ATOM     23  C   UNL     1       3.150  -0.402  -5.064  0.00  0.00    +0.143 A 
ATOM     24 CL   UNL     1       4.318  -4.146  -4.297  0.00  0.00    -0.083 Cl
BRANCH  23  25
ATOM     25  O   UNL     1       3.290   0.505  -6.067  0.00  0.00    -0.493 OA
ATOM     26  C   UNL     1       4.050   0.101  -7.207  0.00  0.00    +0.277 C 
ENDBRANCH  23  25
ENDBRANCH  16  18
ENDBRANCH  14  16
ENDBRANCH   1  14
BRANCH   1  27
ATOM     27  C   UNL     1      -0.685   0.158  -3.351  0.00  0.00    +0.142 C 
BRANCH  27  34
ATOM     28  C   UNL     1      -2.254  -1.242  -5.333  0.00  0.00    +0.044 C 
ATOM     29  C   UNL     1      -2.075   0.251  -5.431  0.00  0.00    -0.046 A 
ATOM     30  C   UNL     1      -2.665   0.951  -6.466  0.00  0.00    +0.003 A 
ATOM     31  C   UNL     1      -2.497   2.320  -6.559  0.00  0.00    +0.000 A 
ATOM     32  C   UNL     1      -1.743   2.990  -5.613  0.00  0.00    +0.000 A 
ATOM     33  C   UNL     1      -1.156   2.290  -4.575  0.00  0.00    +0.005 A 
ATOM     34  C   UNL     1      -1.325   0.921  -4.483  0.00  0.00    -0.027 A 
ENDBRANCH  27  34
ENDBRANCH   1  27
TORSDOF 7
