REMARK  Name = ZINC22218539
REMARK  1 active torsions:
REMARK  status: ('A' for Active; 'I' for Inactive)
REMARK    1  A    between atoms: CA_11  and  C_14
REMARK                            x       y       z     vdW  Elec       q    Type
REMARK                         _______ _______ _______ _____ _____    ______ ____
ROOT
ATOM      1  C   UNL     1      -2.906   1.543   0.032  0.00  0.00    +0.000 C 
ATOM      2  C   UNL     1      -2.165   1.043   1.274  0.00  0.00    -0.002 C 
ATOM      3  C   UNL     1      -0.734   1.578   1.264  0.00  0.00    -0.015 C 
ATOM      4  C   UNL     1      -0.013   1.086   0.008  0.00  0.00    -0.068 C 
ATOM      5  C   UNL     1      -0.753   1.592  -1.232  0.00  0.00    -0.025 C 
ATOM      6  C   UNL     1      -2.184   1.053  -1.226  0.00  0.00    +0.002 C 
ATOM      7  C   UNL     1      -0.024   1.106  -2.488  0.00  0.00    +0.001 C 
ATOM      8  C   UNL     1       1.423   1.605  -2.452  0.00  0.00    -0.004 C 
ATOM      9  CA  UNL     1       2.101   1.103  -1.175  0.00  0.00    +0.044 C 
ATOM     10  N   UNL     1       1.365   1.593  -0.002  0.00  0.00    +0.390 N 
ATOM     11  H1  UNL     1       1.350   2.693  -0.030  0.00  0.00    -0.084 HD
ATOM     12  H2  UNL     1       1.887   1.257   0.906  0.00  0.00    -0.084 HD
ENDROOT
BRANCH   9  13
ATOM     13  C   UNL     1       3.518   1.613  -1.127  0.00  0.00    +0.343 C 
ATOM     14  O   UNL     1       3.792   2.573  -0.447  0.00  0.00    -0.248 OA
ATOM     15  OXT UNL     1       4.476   0.999  -1.839  0.00  0.00    -0.248 OA
ENDBRANCH   9  13
TORSDOF 1
