REMARK  Name = ZINC44028875
REMARK  13 active torsions:
REMARK  status: ('A' for Active; 'I' for Inactive)
REMARK    1  A    between atoms: C_1  and  C_2
REMARK    2  A    between atoms: C_2  and  O_34
REMARK    3  A    between atoms: C_10  and  O_33
REMARK    4  A    between atoms: C_12  and  O_32
REMARK    5  A    between atoms: C_14  and  O_17
REMARK    6  A    between atoms: O_17  and  C_18
REMARK    7  A    between atoms: C_18  and  C_30
REMARK    8  A    between atoms: C_19  and  O_29
REMARK    9  A    between atoms: C_21  and  O_28
REMARK   10  A    between atoms: C_23  and  C_26
REMARK   11  A    between atoms: C_26  and  O_27
REMARK   12  A    between atoms: C_30  and  O_31
REMARK   13  A    between atoms: O_34  and  C_35
REMARK                            x       y       z     vdW  Elec       q    Type
REMARK                         _______ _______ _______ _____ _____    ______ ____
ROOT
ATOM      1  C   UNL     1      -0.064   1.497   0.191  0.00  0.00    +0.110 C 
ATOM      2  C   UNL     1      -0.027  -0.031   0.114  0.00  0.00    +0.283 C 
ATOM      3  O   UNL     1       0.612  -0.428  -1.100  0.00  0.00    -0.324 OA
ATOM      4  C   UNL     1       1.983  -0.024  -1.207  0.00  0.00    +0.200 C 
ATOM      5  C   UNL     1       2.746  -0.593  -0.010  0.00  0.00    +0.179 C 
ATOM      6  C   UNL     1       2.054  -0.122   1.275  0.00  0.00    +0.186 C 
ATOM      7  O   UNL     1       0.692  -0.546   1.240  0.00  0.00    -0.318 OA
ATOM      8  C   UNL     1       2.789  -0.722   2.474  0.00  0.00    +0.179 C 
ATOM      9  C   UNL     1       4.255  -0.274   2.419  0.00  0.00    +0.201 C 
ATOM     10  C   UNL     1       4.869  -0.684   1.079  0.00  0.00    +0.285 C 
ATOM     11  O   UNL     1       4.098  -0.141   0.003  0.00  0.00    -0.340 OA
ENDROOT
BRANCH   9  12
ATOM     12  O   UNL     1       4.323   1.146   2.558  0.00  0.00    -0.384 OA
ATOM     13  H   UNL     1       5.223   1.501   2.532  0.00  0.00    +0.210 HD
ENDBRANCH   9  12
BRANCH   8  14
ATOM     14  O   UNL     1       2.187  -0.263   3.686  0.00  0.00    -0.386 OA
ATOM     15  H   UNL     1       2.605  -0.606   4.487  0.00  0.00    +0.210 HD
ENDBRANCH   8  14
BRANCH   2  16
ATOM     16  O   UNL     1      -1.363  -0.538   0.131  0.00  0.00    -0.330 OA
ATOM     17  C   UNL     1      -1.444  -1.964   0.063  0.00  0.00    +0.200 C 
ENDBRANCH   2  16
BRANCH  10  18
ATOM     18  O   UNL     1       6.207  -0.189   0.999  0.00  0.00    -0.313 OA
BRANCH  18  19
ATOM     19  C   UNL     1       6.975  -0.758  -0.063  0.00  0.00    +0.225 C 
ATOM     20  C   UNL     1       6.422  -0.285  -1.421  0.00  0.00    +0.207 C 
ATOM     21  C   UNL     1       7.591   0.511  -2.050  0.00  0.00    +0.179 C 
ATOM     22  C   UNL     1       8.447   0.866  -0.808  0.00  0.00    +0.178 C 
ATOM     23  O   UNL     1       8.337  -0.309   0.024  0.00  0.00    -0.336 OA
BRANCH  21  24
ATOM     24  O   UNL     1       8.329  -0.303  -2.964  0.00  0.00    -0.386 OA
ATOM     25  H   UNL     1       9.072   0.152  -3.384  0.00  0.00    +0.210 HD
ENDBRANCH  21  24
BRANCH  20  26
ATOM     26  O   UNL     1       6.079  -1.406  -2.240  0.00  0.00    -0.384 OA
ATOM     27  H   UNL     1       5.726  -1.166  -3.107  0.00  0.00    +0.210 HD
ENDBRANCH  20  26
BRANCH  22  28
ATOM     28  C   UNL     1       9.903   1.112  -1.210  0.00  0.00    +0.190 C 
BRANCH  28  29
ATOM     29  O   UNL     1      10.645   1.549  -0.069  0.00  0.00    -0.392 OA
ATOM     30  H   UNL     1      11.578   1.724  -0.251  0.00  0.00    +0.210 HD
ENDBRANCH  28  29
ENDBRANCH  22  28
BRANCH  19  31
ATOM     31  C   UNL     1       6.925  -2.285   0.019  0.00  0.00    +0.223 C 
BRANCH  31  32
ATOM     32  O   UNL     1       7.350  -2.707   1.317  0.00  0.00    -0.390 OA
ATOM     33  H   UNL     1       7.343  -3.666   1.441  0.00  0.00    +0.210 HD
ENDBRANCH  31  32
ENDBRANCH  19  31
ENDBRANCH  18  19
ENDBRANCH  10  18
TORSDOF 11
