REMARK  Name = ZINC19816274
REMARK  8 active torsions:
REMARK  status: ('A' for Active; 'I' for Inactive)
REMARK    1  A    between atoms: C_1  and  C_2
REMARK    2  A    between atoms: C_2  and  O_3
REMARK    3  A    between atoms: O_3  and  C_4
REMARK    4  A    between atoms: C_9  and  C_10
REMARK    5  A    between atoms: C_11  and  C_20
REMARK    6  A    between atoms: C_12  and  N_19
REMARK    7  A    between atoms: C_14  and  N_18
REMARK    8  A    between atoms: C_15  and  C_16
REMARK                            x       y       z     vdW  Elec       q    Type
REMARK                         _______ _______ _______ _____ _____    ______ ____
ROOT
ATOM      1  C   UNL     1       1.990  -1.397  -3.491  0.00  0.00    +0.108 C 
ATOM      2  C   UNL     1       3.469  -1.556  -3.492  0.00  0.00    +0.069 C 
ATOM      3  C   UNL     1       4.182  -2.307  -4.356  0.00  0.00    +0.079 C 
ATOM      4  S   UNL     1       3.398  -3.203  -5.653  0.00  0.00    -0.058 S 
ATOM      5  C   UNL     1       1.819  -2.437  -5.786  0.00  0.00    +0.079 C 
ATOM      6  C   UNL     1       1.323  -1.674  -4.791  0.00  0.00    +0.069 C 
ENDROOT
BRANCH   1  12
ATOM      7  C   UNL     1       0.777  -1.810  -1.336  0.00  0.00    +0.125 A 
ATOM      8  C   UNL     1       0.243  -2.669  -0.386  0.00  0.00    +0.046 A 
ATOM      9  C   UNL     1       0.351  -4.036  -0.554  0.00  0.00    +0.004 A 
ATOM     10  C   UNL     1       0.991  -4.548  -1.667  0.00  0.00    +0.001 A 
ATOM     11  C   UNL     1       1.525  -3.695  -2.615  0.00  0.00    +0.008 A 
ATOM     12  C   UNL     1       1.414  -2.327  -2.455  0.00  0.00    +0.008 A 
BRANCH   7  13
ATOM     13  O   UNL     1       0.671  -0.465  -1.174  0.00  0.00    -0.492 OA
BRANCH  13  15
ATOM     14  C   UNL     1      -0.019   1.526   0.010  0.00  0.00    +0.048 C 
ATOM     15  C   UNL     1       0.002  -0.004   0.002  0.00  0.00    +0.225 C 
ENDBRANCH  13  15
ENDBRANCH   7  13
ENDBRANCH   1  12
BRANCH   5  16
ATOM     16  N   UNL     1       1.075  -2.620  -6.928  0.00  0.00    -0.352 N 
ATOM     17  H   UNL     1       1.423  -3.167  -7.650  0.00  0.00    +0.143 HD
ATOM     18  H   UNL     1       0.204  -2.203  -7.012  0.00  0.00    +0.143 HD
ENDBRANCH   5  16
BRANCH   3  19
ATOM     19  N   UNL     1       5.548  -2.375  -4.220  0.00  0.00    -0.352 N 
ATOM     20  H   UNL     1       5.990  -1.885  -3.509  0.00  0.00    +0.143 HD
ATOM     21  H   UNL     1       6.071  -2.913  -4.835  0.00  0.00    +0.143 HD
ENDBRANCH   3  19
BRANCH   6  22
ATOM     22  C   UNL     1       0.040  -1.077  -5.005  0.00  0.00    +0.098 C 
ATOM     23  N   UNL     1      -0.979  -0.603  -5.175  0.00  0.00    -0.191 NA
ENDBRANCH   6  22
BRANCH   2  24
ATOM     24  C   UNL     1       4.201  -0.847  -2.487  0.00  0.00    +0.098 C 
ATOM     25  N   UNL     1       4.782  -0.284  -1.689  0.00  0.00    -0.191 NA
ENDBRANCH   2  24
TORSDOF 7
