REMARK  Name = ZINC08844385
REMARK  8 active torsions:
REMARK  status: ('A' for Active; 'I' for Inactive)
REMARK    1  A    between atoms: C_6  and  C_7
REMARK    2  A    between atoms: C_15  and  O_19
REMARK    3  A    between atoms: O_19  and  C_20
REMARK    4  A    between atoms: C_22  and  O_35
REMARK    5  A    between atoms: C_24  and  O_34
REMARK    6  A    between atoms: C_26  and  O_33
REMARK    7  A    between atoms: C_28  and  C_31
REMARK    8  A    between atoms: C_31  and  O_32
REMARK                            x       y       z     vdW  Elec       q    Type
REMARK                         _______ _______ _______ _____ _____    ______ ____
ROOT
ATOM      1  C   UNL     1      -3.566   1.702   0.491  0.00  0.00    +0.211 C 
ATOM      2  C   UNL     1      -3.745   3.048  -0.226  0.00  0.00    +0.129 C 
ATOM      3  C   UNL     1      -2.503   3.875   0.067  0.00  0.00    +0.170 C 
ATOM      4  O   UNL     1      -2.566   5.064   0.299  0.00  0.00    -0.292 OA
ATOM      5  C   UNL     1      -1.218   3.159   0.037  0.00  0.00    +0.059 A 
ATOM      6  C   UNL     1      -0.010   3.863   0.026  0.00  0.00    +0.018 A 
ATOM      7  C   UNL     1       1.172   3.179   0.008  0.00  0.00    +0.046 A 
ATOM      8  C   UNL     1       1.179   1.787   0.000  0.00  0.00    +0.128 A 
ATOM      9  C   UNL     1      -0.013   1.076   0.008  0.00  0.00    +0.092 A 
ATOM     10  C   UNL     1      -1.221   1.753   0.017  0.00  0.00    +0.135 A 
ATOM     11  O   UNL     1      -2.385   1.062   0.008  0.00  0.00    -0.483 OA
ENDROOT
BRANCH   1  17
ATOM     12  C   UNL     1      -4.806   0.058  -0.930  0.00  0.00    +0.011 A 
ATOM     13  C   UNL     1      -5.900  -0.748  -1.184  0.00  0.00    +0.050 A 
ATOM     14  C   UNL     1      -6.956  -0.789  -0.286  0.00  0.00    +0.162 A 
ATOM     15  C   UNL     1      -6.909  -0.020   0.871  0.00  0.00    +0.162 A 
ATOM     16  C   UNL     1      -5.806   0.782   1.122  0.00  0.00    +0.056 A 
ATOM     17  C   UNL     1      -4.760   0.824   0.219  0.00  0.00    -0.003 A 
ATOM     18  O   UNL     1      -7.932  -0.049   1.769  0.00  0.00    -0.485 OA
ATOM     19  C   UNL     1      -9.180  -0.576   1.304  0.00  0.00    +0.270 C 
ATOM     20  C   UNL     1      -8.898  -1.880   0.546  0.00  0.00    +0.270 C 
ATOM     21  O   UNL     1      -8.030  -1.581  -0.553  0.00  0.00    -0.485 OA
ENDBRANCH   1  17
BRANCH   8  22
ATOM     22  O   UNL     1       2.360   1.119  -0.014  0.00  0.00    -0.461 OA
BRANCH  22  23
ATOM     23  C   UNL     1       3.551   1.909  -0.021  0.00  0.00    +0.339 C 
ATOM     24  C   UNL     1       4.759   1.008  -0.288  0.00  0.00    +0.214 C 
ATOM     25  C   UNL     1       6.037   1.851  -0.234  0.00  0.00    +0.180 C 
ATOM     26  C   UNL     1       6.120   2.547   1.128  0.00  0.00    +0.177 C 
ATOM     27  C   UNL     1       4.859   3.389   1.339  0.00  0.00    +0.179 C 
ATOM     28  O   UNL     1       3.706   2.549   1.247  0.00  0.00    -0.331 OA
BRANCH  26  29
ATOM     29  O   UNL     1       6.216   1.565   2.161  0.00  0.00    -0.386 OA
ATOM     30  H   UNL     1       6.994   0.994   2.090  0.00  0.00    +0.210 HD
ENDBRANCH  26  29
BRANCH  25  31
ATOM     31  O   UNL     1       7.177   1.007  -0.409  0.00  0.00    -0.386 OA
ATOM     32  H   UNL     1       7.190   0.534  -1.252  0.00  0.00    +0.210 HD
ENDBRANCH  25  31
BRANCH  24  33
ATOM     33  O   UNL     1       4.820  -0.016   0.708  0.00  0.00    -0.383 OA
ATOM     34  H   UNL     1       4.040  -0.586   0.734  0.00  0.00    +0.210 HD
ENDBRANCH  24  33
BRANCH  27  35
ATOM     35  C   UNL     1       4.905   4.040   2.723  0.00  0.00    +0.190 C 
BRANCH  35  36
ATOM     36  O   UNL     1       3.787   4.916   2.876  0.00  0.00    -0.392 OA
ATOM     37  H   UNL     1       3.752   5.364   3.732  0.00  0.00    +0.210 HD
ENDBRANCH  35  36
ENDBRANCH  27  35
ENDBRANCH  22  23
ENDBRANCH   8  22
TORSDOF 8
