REMARK  Name = ZINC03900820
REMARK  8 active torsions:
REMARK  status: ('A' for Active; 'I' for Inactive)
REMARK    1  A    between atoms: C_1  and  C_2
REMARK    2  A    between atoms: C_17  and  C_28
REMARK    3  A    between atoms: C_22  and  C_23
REMARK    4  A    between atoms: C_22  and  O_27
REMARK    5  A    between atoms: C_23  and  N_63
REMARK    6  A    between atoms: C_24  and  C_25
REMARK    7  A    between atoms: C_24  and  N_63
REMARK    8  A    between atoms: C_25  and  O_26
REMARK                            x       y       z     vdW  Elec       q    Type
REMARK                         _______ _______ _______ _____ _____    ______ ____
ROOT
ATOM      1  C   UNL     1       1.366   7.775   0.369  0.00  0.00    +0.012 C 
ATOM      2  C   UNL     1       0.139   7.614   1.264  0.00  0.00    -0.026 C 
ATOM      3  C   UNL     1      -0.935   8.407   0.561  0.00  0.00    +0.007 C 
ATOM      4  C   UNL     1      -1.946   9.090   1.449  0.00  0.00    +0.001 C 
ATOM      5  C   UNL     1      -1.290   9.785   2.636  0.00  0.00    +0.000 C 
ATOM      6  C   UNL     1      -0.524   8.743   3.449  0.00  0.00    +0.004 C 
ATOM      7  C   UNL     1       0.564   8.115   2.603  0.00  0.00    -0.005 C 
ATOM      8  C   UNL     1       1.444   7.210   3.436  0.00  0.00    +0.004 C 
ATOM      9  C   UNL     1       0.931   5.765   3.446  0.00  0.00    +0.004 C 
ATOM     10  C   UNL     1       0.863   5.314   1.992  0.00  0.00    -0.004 C 
ATOM     11  C   UNL     1      -0.200   6.137   1.267  0.00  0.00    -0.001 C 
ATOM     12  C   UNL     1      -0.449   5.525  -0.102  0.00  0.00    +0.005 C 
ATOM     13  C   UNL     1      -1.192   4.183   0.062  0.00  0.00    +0.010 C 
ATOM     14  C   UNL     1      -0.788   3.494   1.336  0.00  0.00    -0.002 C 
ATOM     15  C   UNL     1       0.645   3.850   1.777  0.00  0.00    +0.001 C 
ATOM     16  C   UNL     1       0.847   2.922   2.983  0.00  0.00    +0.007 C 
ATOM     17  C   UNL     1       0.130   1.612   2.558  0.00  0.00    +0.034 C 
ATOM     18  C   UNL     1      -0.699   1.956   1.292  0.00  0.00    +0.057 C 
ATOM     19  C   UNL     1      -1.808   3.813   2.444  0.00  0.00    +0.014 C 
ENDROOT
BRANCH  18  20
ATOM     20  O   UNL     1      -2.009   1.396   1.388  0.00  0.00    -0.390 OA
ATOM     21  H   UNL     1      -2.021   0.429   1.425  0.00  0.00    +0.210 HD
ENDBRANCH  18  20
BRANCH  18  22
ATOM     22  C   UNL     1       0.016   1.456   0.044  0.00  0.00    -0.047 C 
BRANCH  22  23
ATOM     23  N   UNL     1       0.062  -0.018   0.071  0.00  0.00    +0.382 N 
ATOM     24  H   UNL     1      -0.896  -0.386   0.095  0.00  0.00    -0.086 HD
ATOM     25  H   UNL     1       0.568  -0.326   0.910  0.00  0.00    -0.086 HD
BRANCH  23  26
ATOM     26  C   UNL     1       0.751  -0.531  -1.128  0.00  0.00    -0.054 C 
BRANCH  26  27
ATOM     27  C   UNL     1       0.783  -2.060  -1.072  0.00  0.00    +0.137 C 
BRANCH  27  28
ATOM     28  O   UNL     1      -0.550  -2.567  -1.151  0.00  0.00    -0.397 OA
ATOM     29  H   UNL     1      -0.606  -3.532  -1.121  0.00  0.00    +0.209 HD
ENDBRANCH  27  28
ENDBRANCH  26  27
ENDBRANCH  23  26
ENDBRANCH  22  23
ENDBRANCH  18  22
TORSDOF 6
