REMARK  Name = ZINC15276750
REMARK  6 active torsions:
REMARK  status: ('A' for Active; 'I' for Inactive)
REMARK    1  A    between atoms: C_10  and  N_11
REMARK    2  A    between atoms: C_16  and  C_31
REMARK    3  A    between atoms: C_19  and  C_24
REMARK    4  A    between atoms: C_19  and  C_28
REMARK    5  A    between atoms: C_24  and  C_25
REMARK    6  A    between atoms: C_36  and  O_37
REMARK                            x       y       z     vdW  Elec       q    Type
REMARK                         _______ _______ _______ _____ _____    ______ ____
ROOT
ATOM      1  N   UNL     1       4.870   0.104  -0.047  0.00  0.00    -0.209 N 
ATOM      2  C   UNL     1       5.505   0.463   1.075  0.00  0.00    +0.229 C 
ATOM      3  O   UNL     1       5.130   0.219   2.201  0.00  0.00    -0.275 OA
ATOM      4  C   UNL     1       6.765   1.218   0.718  0.00  0.00    +0.077 C 
ATOM      5  C   UNL     1       6.611   2.693   1.146  0.00  0.00    -0.023 C 
ATOM      6  N   UNL     1       5.935   3.350  -0.001  0.00  0.00    +0.396 N 
ATOM      7  C   UNL     1       6.569   2.740  -1.197  0.00  0.00    +0.056 C 
ATOM      8  C   UNL     1       6.747   1.234  -0.834  0.00  0.00    +0.087 C 
ATOM      9  C   UNL     1       5.481   0.480  -1.176  0.00  0.00    +0.229 C 
ATOM     10  O   UNL     1       5.081   0.255  -2.298  0.00  0.00    -0.275 OA
ATOM     11  H   UNL     1       4.945   3.153   0.013  0.00  0.00    -0.083 HD
ATOM     12  H   UNL     1       6.098   4.345   0.016  0.00  0.00    -0.083 HD
ENDROOT
BRANCH   1  22
ATOM     13  C   UNL     1      -0.018   1.368   0.007  0.00  0.00    +0.001 A 
ATOM     14  C   UNL     1       1.168   2.100   0.001  0.00  0.00    +0.001 A 
ATOM     15  C   UNL     1       2.377   1.474  -0.015  0.00  0.00    +0.010 A 
ATOM     16  C   UNL     1       2.433   0.071  -0.024  0.00  0.00    +0.004 A 
ATOM     17  C   UNL     1       1.228  -0.674  -0.018  0.00  0.00    -0.016 A 
ATOM     18  C   UNL     1      -0.002   0.007  -0.002  0.00  0.00    +0.008 A 
ATOM     19  C   UNL     1       1.283  -2.078  -0.026  0.00  0.00    +0.008 A 
ATOM     20  C   UNL     1       2.488  -2.711  -0.041  0.00  0.00    +0.002 A 
ATOM     21  C   UNL     1       3.678  -1.989  -0.047  0.00  0.00    +0.024 A 
ATOM     22  C   UNL     1       3.667  -0.612  -0.040  0.00  0.00    +0.052 A 
ENDBRANCH   1  22
BRANCH   5  23
ATOM     23  C   UNL     1       5.762   2.793   2.387  0.00  0.00    -0.019 A 
ATOM     24  C   UNL     1       4.428   3.137   2.286  0.00  0.00    +0.005 A 
ATOM     25  C   UNL     1       3.649   3.229   3.424  0.00  0.00    +0.000 A 
ATOM     26  C   UNL     1       4.202   2.978   4.667  0.00  0.00    +0.004 A 
ATOM     27  C   UNL     1       5.535   2.634   4.773  0.00  0.00    +0.045 A 
ATOM     28  C   UNL     1       6.318   2.535   3.631  0.00  0.00    +0.118 A 
BRANCH  28  29
ATOM     29  O   UNL     1       7.629   2.191   3.733  0.00  0.00    -0.507 OA
ATOM     30  H   UNL     1       8.226   2.943   3.842  0.00  0.00    +0.292 HD
ENDBRANCH  28  29
ENDBRANCH   5  23
BRANCH   7  31
ATOM     31  C   UNL     1       7.912   3.371  -1.458  0.00  0.00    +0.347 C 
ATOM     32  O   UNL     1       8.312   4.272  -0.741  0.00  0.00    -0.248 OA
ATOM     33  O   UNL     1       8.599   2.981  -2.387  0.00  0.00    -0.248 OA
ENDBRANCH   7  31
BRANCH   7  34
ATOM     34  C   UNL     1       5.661   2.891  -2.418  0.00  0.00    +0.095 C 
BRANCH  34  35
ATOM     35  C   UNL     1       5.446   4.355  -2.706  0.00  0.00    +0.210 C 
ATOM     36  O   UNL     1       5.969   5.194  -2.004  0.00  0.00    -0.276 OA
ATOM     37  N   UNL     1       4.674   4.731  -3.745  0.00  0.00    -0.329 N 
ATOM     38  H   UNL     1       4.256   4.060  -4.307  0.00  0.00    +0.145 HD
ATOM     39  H   UNL     1       4.536   5.673  -3.930  0.00  0.00    +0.145 HD
ENDBRANCH  34  35
ENDBRANCH   7  34
TORSDOF 6
