REMARK  Name = ZINC40988791
REMARK  7 active torsions:
REMARK  status: ('A' for Active; 'I' for Inactive)
REMARK    1  A    between atoms: C_1  and  C_2
REMARK    2  A    between atoms: C_5  and  C_8
REMARK    3  A    between atoms: C_8  and  C_10
REMARK    4  A    between atoms: C_8  and  N_31
REMARK    5  A    between atoms: C_10  and  N_11
REMARK    6  A    between atoms: C_12  and  C_14
REMARK    7  A    between atoms: N_17  and  C_19
REMARK                            x       y       z     vdW  Elec       q    Type
REMARK                         _______ _______ _______ _____ _____    ______ ____
ROOT
ATOM      1  N   UNL     1       1.196  -6.319   0.676  0.00  0.00    -0.311 N 
ATOM      2  C   UNL     1       2.223  -7.057   1.139  0.00  0.00    +0.264 C 
ATOM      3  O   UNL     1       3.315  -6.548   1.298  0.00  0.00    -0.268 OA
ATOM      4  H   UNL     1       0.324  -6.725   0.549  0.00  0.00    +0.149 HD
ENDROOT
BRANCH   2   5
ATOM      5  C   UNL     1       2.022  -8.486   1.456  0.00  0.00    +0.150 A 
ATOM      6  C   UNL     1       2.986  -9.380   1.949  0.00  0.00    +0.006 A 
ATOM      7  C   UNL     1       2.355 -10.572   2.085  0.00  0.00    +0.044 A 
ATOM      8  N   UNL     1       1.082 -10.394   1.695  0.00  0.00    -0.263 N 
ATOM      9  N   UNL     1       0.897  -9.171   1.335  0.00  0.00    -0.166 NA
ATOM     10  C   UNL     1       3.025 -11.826   2.586  0.00  0.00    +0.055 C 
ATOM     11  C   UNL     1       4.543 -11.629   2.500  0.00  0.00    +0.006 C 
ATOM     12  C   UNL     1       4.928 -10.299   3.154  0.00  0.00    +0.005 C 
ATOM     13  C   UNL     1       4.433  -9.137   2.282  0.00  0.00    +0.039 C 
BRANCH   8  14
ATOM     14  C   UNL     1       0.052 -11.436   1.687  0.00  0.00    +0.130 C 
ATOM     15  C   UNL     1      -0.501 -11.609   0.263  0.00  0.00    +0.051 C 
ATOM     16  C   UNL     1      -1.792 -12.462   0.298  0.00  0.00    +0.168 C 
ATOM     17  S   UNL     1      -2.463 -12.110   1.974  0.00  0.00    -0.029 S 
ATOM     18  O   UNL     1      -3.656 -11.349   1.845  0.00  0.00    -0.174 OA
ATOM     19  O   UNL     1      -2.481 -13.316   2.727  0.00  0.00    -0.174 OA
ATOM     20  C   UNL     1      -1.124 -11.020   2.616  0.00  0.00    +0.192 C 
ENDBRANCH   8  14
ENDBRANCH   2   5
BRANCH   1  21
ATOM     21  C   UNL     1       1.395  -4.902   0.362  0.00  0.00    +0.094 C 
BRANCH  21  22
ATOM     22  C   UNL     1       0.054  -4.269  -0.016  0.00  0.00    -0.020 C 
BRANCH  22  23
ATOM     23  N   UNL     1      -0.564  -5.043  -1.101  0.00  0.00    +0.385 N 
ATOM     24  C   UNL     1       0.340  -5.027  -2.268  0.00  0.00    -0.078 C 
ATOM     25  C   UNL     1       0.048  -6.243  -3.110  0.00  0.00    -0.019 C 
ATOM     26  C   UNL     1      -0.923  -5.912  -4.260  0.00  0.00    -0.002 C 
ATOM     27  C   UNL     1      -2.051  -4.966  -3.801  0.00  0.00    -0.002 C 
ATOM     28  C   UNL     1      -2.583  -5.325  -2.438  0.00  0.00    -0.019 C 
ATOM     29  C   UNL     1      -1.825  -4.508  -1.370  0.00  0.00    -0.078 C 
ATOM     30  H   UNL     1      -0.675  -5.997  -0.794  0.00  0.00    -0.081 HD
ENDBRANCH  22  23
BRANCH  22  35
ATOM     31  C   UNL     1      -3.445  -4.273   4.583  0.00  0.00    +0.044 C 
ATOM     32  C   UNL     1      -2.533  -4.272   3.384  0.00  0.00    -0.050 A 
ATOM     33  C   UNL     1      -1.851  -3.121   3.035  0.00  0.00    +0.003 A 
ATOM     34  C   UNL     1      -1.014  -3.120   1.935  0.00  0.00    +0.002 A 
ATOM     35  C   UNL     1      -0.858  -4.270   1.184  0.00  0.00    -0.059 A 
ATOM     36  C   UNL     1      -1.539  -5.421   1.533  0.00  0.00    +0.002 A 
ATOM     37  C   UNL     1      -2.373  -5.423   2.636  0.00  0.00    +0.003 A 
ENDBRANCH  22  35
ENDBRANCH  21  22
ENDBRANCH   1  21
TORSDOF 6
