REMARK  Name = ZINC49508891
REMARK  9 active torsions:
REMARK  status: ('A' for Active; 'I' for Inactive)
REMARK    1  A    between atoms: C_1  and  N_2
REMARK    2  A    between atoms: N_5  and  C_8
REMARK    3  A    between atoms: C_8  and  C_10
REMARK    4  A    between atoms: C_8  and  C_27
REMARK    5  A    between atoms: C_10  and  N_11
REMARK    6  A    between atoms: C_12  and  C_14
REMARK    7  A    between atoms: N_16  and  C_17
REMARK    8  A    between atoms: C_22  and  C_23
REMARK    9  A    between atoms: N_36  and  C_37
REMARK                            x       y       z     vdW  Elec       q    Type
REMARK                         _______ _______ _______ _____ _____    ______ ____
ROOT
ATOM      1  C   UNL     1       0.657  -5.016   0.277  0.00  0.00    +0.104 C 
ENDROOT
BRANCH   1   2
ATOM      2  C   UNL     1       1.570  -5.285   1.446  0.00  0.00    -0.028 A 
ATOM      3  C   UNL     1       1.512  -4.476   2.566  0.00  0.00    +0.007 A 
ATOM      4  C   UNL     1       2.349  -4.722   3.636  0.00  0.00    +0.024 A 
ATOM      5  C   UNL     1       3.248  -5.781   3.587  0.00  0.00    +0.033 A 
ATOM      6  C   UNL     1       3.304  -6.593   2.465  0.00  0.00    -0.026 A 
ATOM      7  C   UNL     1       2.458  -6.341   1.397  0.00  0.00    +0.010 A 
ATOM      8  C   UNL     1       4.258  -7.755   2.380  0.00  0.00    +0.038 C 
ATOM      9  C   UNL     1       5.405  -7.579   3.374  0.00  0.00    +0.024 C 
ATOM     10  C   UNL     1       4.819  -7.284   4.761  0.00  0.00    +0.105 C 
ATOM     11  N   UNL     1       4.092  -6.010   4.680  0.00  0.00    -0.333 N 
ATOM     12  C   UNL     1       4.247  -4.996   5.726  0.00  0.00    +0.129 C 
ENDBRANCH   1   2
BRANCH   1  17
ATOM     13  C   UNL     1       3.372  -0.509  -1.740  0.00  0.00    -0.096 C 
ATOM     14  N   UNL     1       2.957  -1.704  -0.993  0.00  0.00    +0.379 N 
ATOM     15  C   UNL     1       1.679  -1.440  -0.318  0.00  0.00    -0.064 C 
ATOM     16  C   UNL     1       1.256  -2.678   0.475  0.00  0.00    +0.066 C 
ATOM     17  N   UNL     1       1.118  -3.819  -0.440  0.00  0.00    -0.297 NA
ATOM     18  C   UNL     1       2.383  -4.081  -1.141  0.00  0.00    +0.066 C 
ATOM     19  C   UNL     1       2.797  -2.831  -1.922  0.00  0.00    -0.064 C 
ATOM     20  H   UNL     1       3.659  -1.932  -0.306  0.00  0.00    -0.082 HD
ENDBRANCH   1  17
BRANCH   1  21
ATOM     21  C   UNL     1      -0.768  -4.788   0.785  0.00  0.00    +0.128 C 
BRANCH  21  22
ATOM     22  N   UNL     1      -1.630  -4.403  -0.336  0.00  0.00    -0.306 N 
ATOM     23  C   UNL     1      -2.936  -4.147  -0.124  0.00  0.00    +0.299 C 
ATOM     24  O   UNL     1      -3.399  -4.236   0.995  0.00  0.00    -0.265 OA
ATOM     25  H   UNL     1      -1.261  -4.332  -1.230  0.00  0.00    +0.149 HD
BRANCH  23  26
ATOM     26  C   UNL     1      -3.815  -3.754  -1.266  0.00  0.00    +0.303 C 
ATOM     27  O   UNL     1      -3.353  -3.666  -2.385  0.00  0.00    -0.265 OA
ATOM     28  N   UNL     1      -5.121  -3.498  -1.054  0.00  0.00    -0.277 N 
ATOM     29  H   UNL     1      -5.474  -3.490  -0.150  0.00  0.00    +0.155 HD
BRANCH  28  30
ATOM     30  C   UNL     1      -5.968  -3.245  -2.136  0.00  0.00    +0.045 A 
ATOM     31  C   UNL     1      -5.603  -3.647  -3.415  0.00  0.00    +0.024 A 
ATOM     32  C   UNL     1      -6.442  -3.395  -4.482  0.00  0.00    +0.002 A 
ATOM     33  C   UNL     1      -7.644  -2.743  -4.280  0.00  0.00    +0.001 A 
ATOM     34  C   UNL     1      -8.011  -2.340  -3.009  0.00  0.00    +0.014 A 
ATOM     35  C   UNL     1      -7.179  -2.595  -1.935  0.00  0.00    +0.076 A 
BRANCH  35  36
ATOM     36  C   UNL     1      -7.582  -2.163  -0.549  0.00  0.00    +0.419 C 
ATOM     37  F   UNL     1      -8.832  -1.535  -0.602  0.00  0.00    -0.166 F 
ATOM     38  F   UNL     1      -7.658  -3.283   0.285  0.00  0.00    -0.166 F 
ATOM     39  F   UNL     1      -6.632  -1.268  -0.045  0.00  0.00    -0.166 F 
ENDBRANCH  35  36
ENDBRANCH  28  30
ENDBRANCH  23  26
ENDBRANCH  21  22
ENDBRANCH   1  21
TORSDOF 7
