REMARK  Name = ZINC21139108
REMARK  10 active torsions:
REMARK  status: ('A' for Active; 'I' for Inactive)
REMARK    1  A    between atoms: C_4  and  S_7
REMARK    2  A    between atoms: S_7  and  C_8
REMARK    3  A    between atoms: C_13  and  N_14
REMARK    4  A    between atoms: C_15  and  C_17
REMARK    5  A    between atoms: C_17  and  O_18
REMARK    6  A    between atoms: O_18  and  C_19
REMARK    7  A    between atoms: C_19  and  C_21
REMARK    8  A    between atoms: C_21  and  C_22
REMARK    9  A    between atoms: C_22  and  C_24
REMARK   10  A    between atoms: C_22  and  N_31
REMARK                            x       y       z     vdW  Elec       q    Type
REMARK                         _______ _______ _______ _____ _____    ______ ____
ROOT
ATOM      1  O   UNL     1       2.394   1.909  -1.204  0.00  0.00    -0.455 OA
ENDROOT
BRANCH   1   2
ATOM      2  C   UNL     1       3.509   2.657  -1.217  0.00  0.00    +0.310 C 
ATOM      3  O   UNL     1       3.434   3.856  -1.088  0.00  0.00    -0.251 OA
BRANCH   2   4
ATOM      4  C   UNL     1       4.854   2.001  -1.393  0.00  0.00    +0.147 C 
BRANCH   4   5
ATOM      5  C   UNL     1       5.950   3.069  -1.371  0.00  0.00    +0.117 C 
BRANCH   5   6
ATOM      6  C   UNL     1       7.301   2.404  -1.423  0.00  0.00    -0.008 A 
ATOM      7  C   UNL     1       7.405   1.079  -1.806  0.00  0.00    +0.007 A 
ATOM      8  C   UNL     1       8.645   0.470  -1.857  0.00  0.00    +0.000 A 
ATOM      9  C   UNL     1       9.781   1.183  -1.518  0.00  0.00    +0.001 A 
ATOM     10  C   UNL     1       9.677   2.505  -1.130  0.00  0.00    +0.020 A 
ATOM     11  C   UNL     1       8.437   3.116  -1.083  0.00  0.00    +0.046 A 
ATOM     12 CL   UNL     1       8.305   4.778  -0.595  0.00  0.00    -0.083 Cl
ENDBRANCH   5   6
BRANCH   5  13
ATOM     13  N   UNL     1       5.795   3.950  -2.531  0.00  0.00    -0.292 N 
ATOM     14  C   UNL     1       5.793   3.433  -3.775  0.00  0.00    +0.298 C 
ATOM     15  O   UNL     1       6.003   2.247  -3.941  0.00  0.00    -0.253 OA
ATOM     16  N   UNL     1       5.558   4.231  -4.836  0.00  0.00    -0.313 N 
ATOM     17  H   UNL     1       5.680   5.035  -2.386  0.00  0.00    +0.151 HD
ATOM     18  H   UNL     1       5.557   3.808  -5.852  0.00  0.00    +0.146 HD
ATOM     19  H   UNL     1       5.369   5.304  -4.686  0.00  0.00    +0.146 HD
ENDBRANCH   5  13
ENDBRANCH   4   5
ENDBRANCH   2   4
ENDBRANCH   1   2
BRANCH   1  20
ATOM     20  C   UNL     1       1.134   2.609  -1.031  0.00  0.00    +0.328 C 
BRANCH  20  22
ATOM     21  N   UNL     1      -1.270   2.039  -0.902  0.00  0.00    -0.282 N 
ATOM     22  C   UNL     1       0.002   1.614  -1.042  0.00  0.00    +0.255 C 
ATOM     23  O   UNL     1       0.235   0.432  -1.181  0.00  0.00    -0.272 OA
ATOM     24  H   UNL     1      -1.477   3.103  -0.716  0.00  0.00    +0.155 HD
BRANCH  21  30
ATOM     25  C   UNL     1      -3.644   1.582  -1.047  0.00  0.00    +0.034 A 
ATOM     26  C   UNL     1      -4.687   0.670  -1.142  0.00  0.00    +0.017 A 
ATOM     27  C   UNL     1      -4.420  -0.685  -1.171  0.00  0.00    +0.001 A 
ATOM     28  C   UNL     1      -3.114  -1.138  -1.112  0.00  0.00    +0.002 A 
ATOM     29  C   UNL     1      -2.069  -0.237  -1.022  0.00  0.00    +0.024 A 
ATOM     30  C   UNL     1      -2.328   1.125  -0.992  0.00  0.00    +0.047 A 
BRANCH  25  31
ATOM     31  S   UNL     1      -3.983   3.310  -1.002  0.00  0.00    -0.088 S 
BRANCH  31  35
ATOM     32  C   UNL     1      -3.585   4.391   3.378  0.00  0.00    +0.000 A 
ATOM     33  C   UNL     1      -3.994   5.346   2.467  0.00  0.00    +0.001 A 
ATOM     34  C   UNL     1      -4.117   5.021   1.130  0.00  0.00    +0.015 A 
ATOM     35  C   UNL     1      -3.828   3.731   0.702  0.00  0.00    +0.013 A 
ATOM     36  C   UNL     1      -3.423   2.771   1.622  0.00  0.00    +0.015 A 
ATOM     37  C   UNL     1      -3.297   3.106   2.956  0.00  0.00    +0.001 A 
ENDBRANCH  31  35
ENDBRANCH  25  31
ENDBRANCH  21  30
ENDBRANCH  20  22
ENDBRANCH   1  20
TORSDOF 10
