REMARK  Name = ZINC23125411
REMARK  12 active torsions:
REMARK  status: ('A' for Active; 'I' for Inactive)
REMARK    1  A    between atoms: C_1  and  C_2
REMARK    2  A    between atoms: C_2  and  N_3
REMARK    3  A    between atoms: C_5  and  C_23
REMARK    4  A    between atoms: C_6  and  N_22
REMARK    5  A    between atoms: N_7  and  C_9
REMARK    6  A    between atoms: C_9  and  C_10
REMARK    7  A    between atoms: N_12  and  C_13
REMARK    8  A    between atoms: C_15  and  C_21
REMARK    9  A    between atoms: C_18  and  O_19
REMARK   10  A    between atoms: O_19  and  C_20
REMARK   11  A    between atoms: C_25  and  C_28
REMARK   12  A    between atoms: C_33  and  C_34
REMARK                            x       y       z     vdW  Elec       q    Type
REMARK                         _______ _______ _______ _____ _____    ______ ____
ROOT
ATOM      1  N   UNL     1       2.618  10.441  -2.097  0.00  0.00    -0.329 N 
ATOM      2  C   UNL     1       2.881   9.417  -1.186  0.00  0.00    +0.127 A 
ATOM      3  C   UNL     1       2.946   9.553   0.225  0.00  0.00    +0.117 A 
ATOM      4  C   UNL     1       3.232   8.294   0.742  0.00  0.00    +0.127 A 
ATOM      5  N   UNL     1       3.332   7.446  -0.303  0.00  0.00    -0.262 N 
ATOM      6  N   UNL     1       3.117   8.165  -1.483  0.00  0.00    -0.282 N 
ATOM      7  H   UNL     1       2.438  11.465  -1.737  0.00  0.00    +0.147 HD
ATOM      8  H   UNL     1       3.122   7.841  -2.535  0.00  0.00    +0.188 HD
ENDROOT
BRANCH   3   9
ATOM      9  C   UNL     1       2.749  10.790   0.994  0.00  0.00    +0.265 A 
ATOM     10  N   UNL     1       2.478  11.989   0.504  0.00  0.00    -0.187 NA
ATOM     11  C   UNL     1       2.385  12.803   1.576  0.00  0.00    +0.203 A 
ATOM     12  N   UNL     1       2.600  12.074   2.641  0.00  0.00    -0.056 NA
ATOM     13  O   UNL     1       2.804  10.920   2.330  0.00  0.00    -0.332 OA
BRANCH  11  14
ATOM     14  C   UNL     1       2.092  14.258   1.552  0.00  0.00    +0.025 A 
ATOM     15  C   UNL     1       1.888  14.910   0.338  0.00  0.00    +0.012 A 
ATOM     16  C   UNL     1       1.611  16.262   0.321  0.00  0.00    +0.001 A 
ATOM     17  C   UNL     1       1.547  16.972   1.507  0.00  0.00    +0.000 A 
ATOM     18  C   UNL     1       1.754  16.331   2.714  0.00  0.00    +0.004 A 
ATOM     19  C   UNL     1       2.026  14.978   2.743  0.00  0.00    -0.040 A 
ATOM     20  C   UNL     1       2.252  14.280   4.059  0.00  0.00    +0.044 C 
ENDBRANCH  11  14
ENDBRANCH   3   9
BRANCH   4  21
ATOM     21  N   UNL     1       3.384   7.971   2.078  0.00  0.00    -0.343 N 
ATOM     22  H   UNL     1       3.610   6.935   2.371  0.00  0.00    +0.144 HD
ATOM     23  H   UNL     1       3.279   8.750   2.847  0.00  0.00    +0.144 HD
ENDBRANCH   4  21
BRANCH   1  25
ATOM     24  C   UNL     1       2.275  11.438  -4.304  0.00  0.00    +0.024 C 
ATOM     25  C   UNL     1       2.581  10.152  -3.533  0.00  0.00    +0.099 C 
ENDBRANCH   1  25
BRANCH   5  26
ATOM     26  C   UNL     1       3.624   6.013  -0.215  0.00  0.00    +0.239 C 
BRANCH  26  27
ATOM     27  C   UNL     1       2.333   5.244  -0.094  0.00  0.00    +0.239 C 
ATOM     28  O   UNL     1       1.274   5.835  -0.082  0.00  0.00    -0.273 OA
ATOM     29  N   UNL     1       2.356   3.900   0.001  0.00  0.00    -0.281 N 
ATOM     30  H   UNL     1       3.317   3.369   0.063  0.00  0.00    +0.155 HD
BRANCH  29  31
ATOM     31  C   UNL     1       1.155   3.178   0.019  0.00  0.00    +0.076 A 
ATOM     32  C   UNL     1       0.033   3.712   0.636  0.00  0.00    +0.030 A 
ATOM     33  C   UNL     1      -1.151   2.998   0.654  0.00  0.00    -0.048 A 
ATOM     34  C   UNL     1      -1.221   1.755   0.053  0.00  0.00    +0.007 A 
ATOM     35  C   UNL     1      -0.106   1.214  -0.559  0.00  0.00    +0.048 A 
ATOM     36  C   UNL     1       1.084   1.923  -0.581  0.00  0.00    +0.141 A 
ATOM     37  C   UNL     1      -2.369   3.579   1.324  0.00  0.00    +0.044 C 
BRANCH  36  38
ATOM     38  O   UNL     1       2.181   1.396  -1.188  0.00  0.00    -0.493 OA
ATOM     39  C   UNL     1       2.035   0.105  -1.783  0.00  0.00    +0.277 C 
ENDBRANCH  36  38
ENDBRANCH  29  31
ENDBRANCH  26  27
ENDBRANCH   5  26
TORSDOF 8
