REMARK  Name = ZINC42035631
REMARK  5 active torsions:
REMARK  status: ('A' for Active; 'I' for Inactive)
REMARK    1  A    between atoms: C_1  and  C_2
REMARK    2  A    between atoms: C_2  and  N_3
REMARK    3  A    between atoms: C_4  and  C_7
REMARK    4  A    between atoms: N_5  and  N_6
REMARK    5  A    between atoms: C_8  and  C_12
REMARK                            x       y       z     vdW  Elec       q    Type
REMARK                         _______ _______ _______ _____ _____    ______ ____
ROOT
ATOM      1  N   UNL     1       1.060  -0.626  -0.902  0.00  0.00    -0.329 N 
ATOM      2  C   UNL     1       1.062  -1.984  -1.222  0.00  0.00    +0.123 C 
ATOM      3  N   UNL     1       0.228  -2.795  -0.631  0.00  0.00    -0.300 N 
ATOM      4  H   UNL     1       1.680  -0.023  -1.341  0.00  0.00    +0.147 HD
ATOM      5  H   UNL     1      -0.331  -2.472   0.093  0.00  0.00    +0.185 HD
ENDROOT
BRANCH   2   6
ATOM      6  C   UNL     1       2.004  -2.503  -2.226  0.00  0.00    +0.054 A 
ATOM      7  C   UNL     1       2.506  -1.882  -3.342  0.00  0.00    -0.033 A 
ATOM      8  C   UNL     1       3.386  -2.575  -4.144  0.00  0.00    +0.011 A 
ATOM      9  C   UNL     1       3.729  -3.845  -3.807  0.00  0.00    +0.046 A 
ATOM     10  S   UNL     1       2.799  -4.100  -2.305  0.00  0.00    -0.094 S 
ATOM     11  C   UNL     1       2.103  -0.471  -3.684  0.00  0.00    +0.045 C 
ENDBRANCH   2   6
BRANCH   3  12
ATOM     12  N   UNL     1       0.138  -4.130  -1.044  0.00  0.00    -0.304 N 
ATOM     13  H   UNL     1      -0.361  -4.770  -0.512  0.00  0.00    +0.162 HD
ATOM     14  H   UNL     1       0.576  -4.416  -1.861  0.00  0.00    +0.162 HD
ENDBRANCH   3  12
BRANCH   1  16
ATOM     15  C   UNL     1       0.326   1.398   0.260  0.00  0.00    +0.024 C 
ATOM     16  C   UNL     1       0.121  -0.110   0.098  0.00  0.00    +0.099 C 
ENDBRANCH   1  16
TORSDOF 3
