REMARK  Name = ZINC39948397
REMARK  15 active torsions:
REMARK  status: ('A' for Active; 'I' for Inactive)
REMARK    1  A    between atoms: C_1  and  C_2
REMARK    2  A    between atoms: C_4  and  C_27
REMARK    3  A    between atoms: C_7  and  C_17
REMARK    4  A    between atoms: C_9  and  C_16
REMARK    5  A    between atoms: C_11  and  C_12
REMARK    6  A    between atoms: C_11  and  O_15
REMARK    7  A    between atoms: C_12  and  C_13
REMARK    8  A    between atoms: C_19  and  O_25
REMARK    9  A    between atoms: C_22  and  O_23
REMARK   10  A    between atoms: O_23  and  C_24
REMARK   11  A    between atoms: O_25  and  C_26
REMARK   12  A    between atoms: C_29  and  O_35
REMARK   13  A    between atoms: C_32  and  O_33
REMARK   14  A    between atoms: O_33  and  C_34
REMARK   15  A    between atoms: O_35  and  C_36
REMARK                            x       y       z     vdW  Elec       q    Type
REMARK                         _______ _______ _______ _____ _____    ______ ____
ROOT
ATOM      1  C   UNL     1      -0.019   1.524   0.010  0.00  0.00    +0.009 C 
ATOM      2  C   UNL     1       0.002  -0.004   0.002  0.00  0.00    +0.008 C 
ATOM      3  C   UNL     1      -1.412  -0.563  -0.071  0.00  0.00    -0.031 C 
ATOM      4  N   UNL     1      -2.111  -0.397   1.206  0.00  0.00    +0.389 N 
ATOM      5  C   UNL     1      -1.425  -1.173   2.243  0.00  0.00    -0.031 C 
ATOM      6  C   UNL     1      -0.013  -0.654   2.471  0.00  0.00    +0.008 C 
ATOM      7  C   UNL     1       0.788  -0.555   1.181  0.00  0.00    +0.072 C 
ATOM      8  C   UNL     1      -0.039   0.680   3.215  0.00  0.00    +0.009 C 
ATOM      9  H   UNL     1      -2.165   0.572   1.461  0.00  0.00    -0.084 HD
ATOM     10  H   UNL     1      -3.057  -0.752   1.107  0.00  0.00    -0.084 HD
ENDROOT
BRANCH   5  11
ATOM     11  C   UNL     1      -2.208  -1.084   3.527  0.00  0.00    -0.016 A 
ATOM     12  C   UNL     1      -3.117  -0.061   3.713  0.00  0.00    +0.051 A 
ATOM     13  C   UNL     1      -3.837   0.021   4.896  0.00  0.00    +0.121 A 
ATOM     14  C   UNL     1      -3.645  -0.925   5.892  0.00  0.00    +0.049 A 
ATOM     15  C   UNL     1      -2.735  -1.948   5.706  0.00  0.00    +0.049 A 
ATOM     16  C   UNL     1      -2.019  -2.033   4.521  0.00  0.00    +0.122 A 
BRANCH  16  17
ATOM     17  O   UNL     1      -1.128  -3.043   4.336  0.00  0.00    -0.495 OA
ATOM     18  C   UNL     1      -0.984  -3.985   5.401  0.00  0.00    +0.277 C 
ENDBRANCH  16  17
BRANCH  13  19
ATOM     19  O   UNL     1      -4.732   1.028   5.079  0.00  0.00    -0.495 OA
ATOM     20  C   UNL     1      -5.439   1.050   6.320  0.00  0.00    +0.277 C 
ENDBRANCH  13  19
ENDBRANCH   5  11
BRANCH   3  21
ATOM     21  C   UNL     1      -2.180   0.152  -1.153  0.00  0.00    -0.016 A 
ATOM     22  C   UNL     1      -2.973   1.238  -0.835  0.00  0.00    +0.051 A 
ATOM     23  C   UNL     1      -3.680   1.895  -1.831  0.00  0.00    +0.121 A 
ATOM     24  C   UNL     1      -3.590   1.464  -3.146  0.00  0.00    +0.049 A 
ATOM     25  C   UNL     1      -2.797   0.378  -3.463  0.00  0.00    +0.049 A 
ATOM     26  C   UNL     1      -2.086  -0.277  -2.468  0.00  0.00    +0.122 A 
BRANCH  26  27
ATOM     27  O   UNL     1      -1.301  -1.341  -2.782  0.00  0.00    -0.495 OA
ATOM     28  C   UNL     1      -1.251  -1.728  -4.157  0.00  0.00    +0.277 C 
ENDBRANCH  26  27
BRANCH  23  29
ATOM     29  O   UNL     1      -4.461   2.964  -1.518  0.00  0.00    -0.495 OA
ATOM     30  C   UNL     1      -5.160   3.593  -2.593  0.00  0.00    +0.277 C 
ENDBRANCH  23  29
ENDBRANCH   3  21
BRANCH   7  31
ATOM     31  O   UNL     1       1.272  -1.867   0.839  0.00  0.00    -0.388 OA
ATOM     32  H   UNL     1       1.786  -2.292   1.539  0.00  0.00    +0.210 HD
ENDBRANCH   7  31
BRANCH   7  33
ATOM     33  C   UNL     1       2.013   0.344   1.426  0.00  0.00    +0.061 C 
BRANCH  33  34
ATOM     34  C   UNL     1       2.803  -0.189   2.593  0.00  0.00    -0.032 C 
ATOM     35  C   UNL     1       4.077  -0.462   2.451  0.00  0.00    +0.004 C 
ENDBRANCH  33  34
ENDBRANCH   7  33
TORSDOF 9
