REMARK  Name = ZINC13865733
REMARK  7 active torsions:
REMARK  status: ('A' for Active; 'I' for Inactive)
REMARK    1  A    between atoms: C_1  and  C_2
REMARK    2  A    between atoms: C_3  and  O_24
REMARK    3  A    between atoms: C_4  and  C_10
REMARK    4  A    between atoms: C_5  and  C_8
REMARK    5  A    between atoms: C_8  and  O_9
REMARK    6  A    between atoms: N_11  and  N_12
REMARK    7  A    between atoms: N_14  and  C_15
REMARK                            x       y       z     vdW  Elec       q    Type
REMARK                         _______ _______ _______ _____ _____    ______ ____
ROOT
ATOM      1  C   UNL     1       2.307  -3.226  -3.075  0.00  0.00    +0.144 C 
ATOM      2  N   UNL     1       1.762  -2.510  -4.021  0.00  0.00    -0.180 NA
ENDROOT
BRANCH   1   6
ATOM      3  C   UNL     1       3.747   0.916  -0.666  0.00  0.00    +0.069 C 
ATOM      4  C   UNL     1       3.671  -0.585  -0.773  0.00  0.00    +0.080 A 
ATOM      5  C   UNL     1       3.034  -1.161  -1.858  0.00  0.00    +0.147 A 
ATOM      6  C   UNL     1       2.972  -2.565  -1.943  0.00  0.00    +0.045 A 
ATOM      7  C   UNL     1       3.563  -3.314  -0.915  0.00  0.00    +0.008 A 
ATOM      8  C   UNL     1       4.176  -2.652   0.128  0.00  0.00    +0.117 A 
ATOM      9  N   UNL     1       4.216  -1.334   0.167  0.00  0.00    -0.256 NA
BRANCH   5  10
ATOM     10  O   UNL     1       2.478  -0.386  -2.825  0.00  0.00    -0.504 OA
ATOM     11  H   UNL     1       3.081  -0.168  -3.550  0.00  0.00    +0.292 HD
ENDBRANCH   5  10
BRANCH   7  12
ATOM     12  C   UNL     1       3.528  -4.820  -0.949  0.00  0.00    +0.193 C 
BRANCH  12  13
ATOM     13  O   UNL     1       4.194  -5.338   0.204  0.00  0.00    -0.390 OA
ATOM     14  H   UNL     1       4.211  -6.304   0.248  0.00  0.00    +0.210 HD
ENDBRANCH  12  13
ENDBRANCH   7  12
ENDBRANCH   1   6
BRANCH   2  15
ATOM     15  N   UNL     1       1.179  -3.090  -5.015  0.00  0.00    -0.258 N 
ATOM     16  C   UNL     1       0.628  -2.366  -5.971  0.00  0.00    +0.163 C 
ATOM     17  N   UNL     1       0.007  -2.984  -7.028  0.00  0.00    -0.294 N 
ATOM     18  S   UNL     1       0.691  -0.607  -5.891  0.00  0.00    -0.014 SA
ATOM     19  H   UNL     1      -0.348  -3.881  -6.926  0.00  0.00    +0.154 HD
ATOM     20  H   UNL     1       1.144  -4.058  -5.058  0.00  0.00    +0.191 HD
BRANCH  17  21
ATOM     21  C   UNL     1      -0.114  -2.320  -8.253  0.00  0.00    +0.034 A 
ATOM     22  C   UNL     1       0.885  -1.452  -8.677  0.00  0.00    +0.025 A 
ATOM     23  C   UNL     1       0.763  -0.798  -9.886  0.00  0.00    +0.023 A 
ATOM     24  C   UNL     1      -0.353  -1.004 -10.677  0.00  0.00    +0.059 A 
ATOM     25  C   UNL     1      -1.351  -1.868 -10.258  0.00  0.00    +0.061 A 
ATOM     26  C   UNL     1      -1.231  -2.530  -9.051  0.00  0.00    +0.044 A 
ATOM     27 CL   UNL     1      -2.751  -2.124 -11.253  0.00  0.00    -0.082 Cl
ATOM     28 CL   UNL     1      -0.503  -0.178 -12.197  0.00  0.00    -0.082 Cl
ENDBRANCH  17  21
ENDBRANCH   2  15
TORSDOF 6
