REMARK  Name = ZINC34936025
REMARK  6 active torsions:
REMARK  status: ('A' for Active; 'I' for Inactive)
REMARK    1  A    between atoms: C_1  and  C_2
REMARK    2  A    between atoms: C_7  and  C_10
REMARK    3  A    between atoms: C_11  and  C_13
REMARK    4  A    between atoms: C_13  and  N_14
REMARK    5  A    between atoms: C_16  and  S_23
REMARK    6  A    between atoms: S_23  and  C_24
REMARK                            x       y       z     vdW  Elec       q    Type
REMARK                         _______ _______ _______ _____ _____    ______ ____
ROOT
ATOM      1  N   UNL     1       3.855   1.136  -3.689  0.00  0.00    -0.337 N 
ATOM      2  C   UNL     1       4.716   0.646  -4.641  0.00  0.00    +0.102 A 
ATOM      3  C   UNL     1       5.115   1.645  -5.451  0.00  0.00    +0.040 A 
ATOM      4  C   UNL     1       4.457   2.869  -4.978  0.00  0.00    +0.014 A 
ATOM      5  C   UNL     1       3.674   2.489  -3.873  0.00  0.00    +0.051 A 
ATOM      6  C   UNL     1       2.919   3.451  -3.209  0.00  0.00    +0.026 A 
ATOM      7  C   UNL     1       2.945   4.759  -3.642  0.00  0.00    +0.002 A 
ATOM      8  C   UNL     1       3.716   5.128  -4.735  0.00  0.00    +0.001 A 
ATOM      9  C   UNL     1       4.472   4.200  -5.396  0.00  0.00    +0.011 A 
ENDROOT
BRANCH   1  10
ATOM     10  C   UNL     1       3.220   0.338  -2.638  0.00  0.00    +0.217 C 
BRANCH  10  19
ATOM     11  C   UNL     1      -1.394   0.586  -1.502  0.00  0.00    +0.039 C 
ATOM     12  C   UNL     1      -1.260  -0.935  -1.604  0.00  0.00    +0.133 C 
ATOM     13  C   UNL     1      -0.261  -1.287  -2.712  0.00  0.00    +0.139 C 
ATOM     14  N   UNL     1       1.078  -0.850  -2.287  0.00  0.00    -0.295 N 
ATOM     15  C   UNL     1       1.547  -1.256  -0.953  0.00  0.00    +0.139 C 
ATOM     16  C   UNL     1       0.461  -0.905   0.070  0.00  0.00    +0.133 C 
ATOM     17  O   UNL     1      -0.787  -1.457  -0.360  0.00  0.00    -0.371 OA
ATOM     18  C   UNL     1       0.835  -1.487   1.434  0.00  0.00    +0.039 C 
ATOM     19  C   UNL     1       1.852  -0.099  -3.096  0.00  0.00    +0.235 C 
ATOM     20  O   UNL     1       1.448   0.226  -4.192  0.00  0.00    -0.274 OA
ENDBRANCH  10  19
ENDBRANCH   1  10
BRANCH   3  21
ATOM     21  S   UNL     1       6.218   1.510  -6.818  0.00  0.00    -0.055 S 
BRANCH  21  22
ATOM     22  C   UNL     1       6.782  -0.158  -6.747  0.00  0.00    +0.127 C 
ATOM     23  N   UNL     1       7.021  -0.830  -7.874  0.00  0.00    -0.382 N 
ATOM     24  N   UNL     1       6.971  -0.749  -5.566  0.00  0.00    -0.339 N 
ATOM     25  H   UNL     1       6.883  -0.401  -8.733  0.00  0.00    +0.158 HD
ATOM     26  H   UNL     1       6.793  -0.261  -4.747  0.00  0.00    +0.144 HD
ATOM     27  H   UNL     1       7.285  -1.665  -5.527  0.00  0.00    +0.144 HD
ATOM     28  H   UNL     1       7.331  -1.748  -7.835  0.00  0.00    +0.158 HD
ENDBRANCH  21  22
ENDBRANCH   3  21
TORSDOF 4
