REMARK  Name = ZINC35671775
REMARK  12 active torsions:
REMARK  status: ('A' for Active; 'I' for Inactive)
REMARK    1  A    between atoms: C_1  and  C_2
REMARK    2  A    between atoms: C_5  and  N_9
REMARK    3  A    between atoms: C_7  and  C_8
REMARK    4  A    between atoms: C_11  and  C_31
REMARK    5  A    between atoms: C_15  and  C_17
REMARK    6  A    between atoms: C_17  and  N_18
REMARK    7  A    between atoms: N_18  and  C_19
REMARK    8  A    between atoms: C_19  and  C_20
REMARK    9  A    between atoms: C_20  and  N_21
REMARK   10  A    between atoms: N_21  and  C_22
REMARK   11  A    between atoms: N_21  and  C_23
REMARK   12  A    between atoms: C_24  and  C_26
REMARK                            x       y       z     vdW  Elec       q    Type
REMARK                         _______ _______ _______ _____ _____    ______ ____
ROOT
ATOM      1  N   UNL     1       0.381  -4.067  -0.521  0.00  0.00    -0.287 N 
ATOM      2  C   UNL     1       1.388  -4.847  -0.006  0.00  0.00    +0.122 A 
ATOM      3  C   UNL     1       1.109  -6.128  -0.357  0.00  0.00    +0.091 A 
ATOM      4  N   UNL     1      -0.039  -6.127  -1.068  0.00  0.00    -0.214 NA
ATOM      5  C   UNL     1      -0.485  -4.899  -1.167  0.00  0.00    +0.207 A 
ATOM      6  N   UNL     1      -1.645  -4.509  -1.823  0.00  0.00    -0.254 N 
ATOM      7  C   UNL     1      -2.420  -5.432  -2.425  0.00  0.00    +0.237 C 
ATOM      8  O   UNL     1      -2.105  -6.603  -2.395  0.00  0.00    -0.274 OA
ATOM      9  H   UNL     1      -1.897  -3.573  -1.847  0.00  0.00    +0.158 HD
ENDROOT
BRANCH   1  14
ATOM     10  C   UNL     1      -0.099   1.567  -0.030  0.00  0.00    +0.044 C 
ATOM     11  C   UNL     1       0.029   0.071  -0.160  0.00  0.00    -0.047 A 
ATOM     12  C   UNL     1      -0.092  -0.526  -1.402  0.00  0.00    +0.005 A 
ATOM     13  C   UNL     1       0.024  -1.897  -1.524  0.00  0.00    +0.026 A 
ATOM     14  C   UNL     1       0.263  -2.675  -0.400  0.00  0.00    +0.049 A 
ATOM     15  C   UNL     1       0.384  -2.073   0.845  0.00  0.00    +0.029 A 
ATOM     16  C   UNL     1       0.272  -0.701   0.961  0.00  0.00    -0.046 A 
ATOM     17  C   UNL     1       0.408  -0.045   2.311  0.00  0.00    +0.044 C 
ENDBRANCH   1  14
BRANCH   3  18
ATOM     18  C   UNL     1       1.924  -7.321  -0.019  0.00  0.00    +0.002 A 
ATOM     19  C   UNL     1       3.091  -7.182   0.730  0.00  0.00    +0.011 A 
ATOM     20  C   UNL     1       3.845  -8.295   1.042  0.00  0.00    +0.020 A 
ATOM     21  C   UNL     1       3.443  -9.548   0.612  0.00  0.00    +0.041 A 
ATOM     22  C   UNL     1       2.285  -9.692  -0.132  0.00  0.00    +0.020 A 
ATOM     23  C   UNL     1       1.521  -8.586  -0.445  0.00  0.00    +0.011 A 
ATOM     24 CL   UNL     1       4.397 -10.944   1.007  0.00  0.00    -0.084 Cl
ENDBRANCH   3  18
BRANCH   7  25
ATOM     25  C   UNL     1      -3.679  -5.009  -3.137  0.00  0.00    +0.204 C 
BRANCH  25  26
ATOM     26  N   UNL     1      -4.339  -6.188  -3.705  0.00  0.00    -0.288 N 
ATOM     27  C   UNL     1      -3.961  -6.656  -4.911  0.00  0.00    +0.282 C 
ATOM     28  O   UNL     1      -4.572  -7.575  -5.425  0.00  0.00    -0.267 OA
BRANCH  27  29
ATOM     29  C   UNL     1      -2.816  -6.058  -5.604  0.00  0.00    +0.189 A 
ATOM     30  C   UNL     1      -2.396  -6.358  -6.868  0.00  0.00    +0.054 A 
ATOM     31  C   UNL     1      -1.274  -5.554  -7.123  0.00  0.00    +0.042 A 
ATOM     32  C   UNL     1      -1.060  -4.808  -6.017  0.00  0.00    +0.196 A 
ATOM     33  O   UNL     1      -1.994  -5.111  -5.106  0.00  0.00    -0.458 OA
ENDBRANCH  27  29
BRANCH  26  34
ATOM     34  C   UNL     1      -5.409  -6.857  -2.961  0.00  0.00    +0.090 C 
BRANCH  34  35
ATOM     35  C   UNL     1      -6.756  -6.239  -3.338  0.00  0.00    -0.060 C 
BRANCH  35  36
ATOM     36  N   UNL     1      -7.829  -6.910  -2.592  0.00  0.00    +0.377 N 
ATOM     37  C   UNL     1      -9.108  -6.239  -2.863  0.00  0.00    -0.097 C 
ATOM     38  C   UNL     1      -7.915  -8.315  -3.015  0.00  0.00    -0.097 C 
ATOM     39  H   UNL     1      -7.630  -6.868  -1.604  0.00  0.00    -0.083 HD
ENDBRANCH  35  36
ENDBRANCH  34  35
ENDBRANCH  26  34
ENDBRANCH  25  26
ENDBRANCH   7  25
TORSDOF 8
