REMARK  Name = ZINC43025215
REMARK  7 active torsions:
REMARK  status: ('A' for Active; 'I' for Inactive)
REMARK    1  A    between atoms: C_1  and  C_2
REMARK    2  A    between atoms: C_2  and  C_4
REMARK    3  A    between atoms: C_2  and  N_22
REMARK    4  A    between atoms: C_4  and  C_6
REMARK    5  A    between atoms: C_4  and  S_13
REMARK    6  A    between atoms: S_13  and  C_14
REMARK    7  A    between atoms: C_18  and  N_20
REMARK                            x       y       z     vdW  Elec       q    Type
REMARK                         _______ _______ _______ _____ _____    ______ ____
ROOT
ATOM      1  C   UNL     1       0.850  -0.514   1.169  0.00  0.00    +0.069 C 
ENDROOT
BRANCH   1   2
ATOM      2  C   UNL     1       0.955  -1.989   0.882  0.00  0.00    -0.035 A 
ATOM      3  C   UNL     1       1.469  -2.423  -0.326  0.00  0.00    +0.005 A 
ATOM      4  C   UNL     1       1.566  -3.776  -0.591  0.00  0.00    +0.001 A 
ATOM      5  C   UNL     1       1.150  -4.697   0.353  0.00  0.00    +0.015 A 
ATOM      6  C   UNL     1       0.637  -4.263   1.562  0.00  0.00    +0.018 A 
ATOM      7  C   UNL     1       0.544  -2.909   1.828  0.00  0.00    +0.020 A 
ATOM      8 BR   UNL     1       0.067  -5.522   2.853  0.00  0.00    -0.050 Br
ENDBRANCH   1   2
BRANCH   1  10
ATOM      9  C   UNL     1      -0.210   1.632   0.453  0.00  0.00    -0.013 C 
ATOM     10  C   UNL     1      -0.060   0.144   0.130  0.00  0.00    -0.060 C 
BRANCH  10  11
ATOM     11  N   UNL     1      -1.380  -0.498   0.157  0.00  0.00    +0.381 N 
ATOM     12  H   UNL     1      -1.980  -0.064  -0.529  0.00  0.00    -0.090 HD
ATOM     13  H   UNL     1      -1.281  -1.480  -0.056  0.00  0.00    -0.090 HD
ATOM     14  H   UNL     1      -1.787  -0.393   1.074  0.00  0.00    -0.090 HD
ENDBRANCH  10  11
ENDBRANCH   1  10
BRANCH   1  15
ATOM     15  S   UNL     1       2.499   0.237   1.092  0.00  0.00    -0.080 S 
BRANCH  15  16
ATOM     16  C   UNL     1       3.339  -0.435   2.488  0.00  0.00    +0.192 A 
ATOM     17  N   UNL     1       2.671  -1.206   3.333  0.00  0.00    -0.207 NA
ATOM     18  C   UNL     1       3.273  -1.732   4.398  0.00  0.00    +0.122 A 
ATOM     19  C   UNL     1       4.620  -1.460   4.617  0.00  0.00    +0.086 A 
ATOM     20  C   UNL     1       5.289  -0.646   3.708  0.00  0.00    +0.122 A 
ATOM     21  N   UNL     1       4.623  -0.160   2.662  0.00  0.00    -0.207 NA
ATOM     22  N   UNL     1       2.567  -2.538   5.277  0.00  0.00    -0.343 N 
ATOM     23  H   UNL     1       1.628  -2.722   5.119  0.00  0.00    +0.144 HD
ATOM     24  H   UNL     1       3.012  -2.917   6.051  0.00  0.00    +0.144 HD
BRANCH  20  25
ATOM     25  N   UNL     1       6.631  -0.348   3.886  0.00  0.00    -0.343 N 
ATOM     26  H   UNL     1       7.111  -0.709   4.648  0.00  0.00    +0.144 HD
ATOM     27  H   UNL     1       7.090   0.220   3.248  0.00  0.00    +0.144 HD
ENDBRANCH  20  25
ENDBRANCH  15  16
ENDBRANCH   1  15
TORSDOF 6
