REMARK  Name = ZINC63514893
REMARK  9 active torsions:
REMARK  status: ('A' for Active; 'I' for Inactive)
REMARK    1  A    between atoms: C_1  and  C_2
REMARK    2  A    between atoms: C_4  and  C_17
REMARK    3  A    between atoms: C_7  and  O_12
REMARK    4  A    between atoms: O_12  and  C_13
REMARK    5  A    between atoms: C_17  and  C_18
REMARK    6  A    between atoms: C_18  and  N_19
REMARK    7  A    between atoms: N_19  and  S_20
REMARK    8  A    between atoms: S_20  and  C_23
REMARK    9  A    between atoms: C_25  and  N_30
REMARK                            x       y       z     vdW  Elec       q    Type
REMARK                         _______ _______ _______ _____ _____    ______ ____
ROOT
ATOM      1  C   UNL     1      -2.426  -0.551  -1.674  0.00  0.00    +0.050 C 
ENDROOT
BRANCH   1   4
ATOM      2  C   UNL     1       0.342   0.921  -0.853  0.00  0.00    +0.035 C 
ATOM      3  C   UNL     1       0.209  -0.586  -1.081  0.00  0.00    +0.103 C 
ATOM      4  C   UNL     1      -1.228  -1.018  -0.889  0.00  0.00    -0.037 C 
ATOM      5  C   UNL     1      -1.219  -1.906   0.130  0.00  0.00    +0.003 A 
ATOM      6  C   UNL     1      -2.280  -2.676   0.788  0.00  0.00    +0.056 A 
ATOM      7  C   UNL     1      -1.964  -3.510   1.809  0.00  0.00    +0.129 A 
ATOM      8  C   UNL     1      -0.645  -3.669   2.267  0.00  0.00    +0.048 A 
ATOM      9  C   UNL     1       0.398  -3.004   1.726  0.00  0.00    +0.029 A 
ATOM     10  C   UNL     1       0.171  -2.074   0.615  0.00  0.00    +0.043 A 
ATOM     11  N   UNL     1       0.989  -1.320  -0.079  0.00  0.00    -0.378 N 
ATOM     12  H   UNL     1       1.949  -1.257   0.050  0.00  0.00    +0.160 HD
BRANCH   7  13
ATOM     13  O   UNL     1      -2.957  -4.217   2.409  0.00  0.00    -0.420 OA
BRANCH  13  14
ATOM     14  C   UNL     1      -2.580  -5.084   3.481  0.00  0.00    +0.489 C 
ATOM     15  F   UNL     1      -1.671  -6.037   3.011  0.00  0.00    -0.149 F 
ATOM     16  F   UNL     1      -1.983  -4.333   4.500  0.00  0.00    -0.149 F 
ATOM     17 CL   UNL     1      -4.044  -5.916   4.125  0.00  0.00    +0.000 Cl
ENDBRANCH  13  14
ENDBRANCH   7  13
ENDBRANCH   1   4
BRANCH   1  18
ATOM     18  C   UNL     1      -3.662  -1.339  -1.234  0.00  0.00    +0.110 C 
BRANCH  18  19
ATOM     19  N   UNL     1      -4.799  -0.979  -2.084  0.00  0.00    -0.190 NA
ATOM     20  H   UNL     1      -4.927  -1.422  -2.937  0.00  0.00    +0.148 HD
BRANCH  19  21
ATOM     21  S   UNL     1      -5.867   0.187  -1.590  0.00  0.00    +0.060 S 
ATOM     22  O   UNL     1      -6.857   0.287  -2.603  0.00  0.00    -0.153 OA
ATOM     23  O   UNL     1      -6.188  -0.105  -0.236  0.00  0.00    -0.153 OA
BRANCH  21  24
ATOM     24  C   UNL     1      -4.998   1.720  -1.582  0.00  0.00    +0.126 A 
ATOM     25  C   UNL     1      -5.224   2.648  -2.581  0.00  0.00    +0.062 A 
ATOM     26  C   UNL     1      -4.543   3.850  -2.575  0.00  0.00    +0.128 A 
ATOM     27  C   UNL     1      -3.634   4.125  -1.571  0.00  0.00    +0.034 A 
ATOM     28  C   UNL     1      -3.406   3.199  -0.571  0.00  0.00    +0.024 A 
ATOM     29  C   UNL     1      -4.093   1.997  -0.573  0.00  0.00    +0.067 A 
ATOM     30 CL   UNL     1      -3.814   0.835   0.686  0.00  0.00    -0.082 Cl
BRANCH  26  31
ATOM     31  N   UNL     1      -4.785   4.843  -3.646  0.00  0.00    +0.056 N 
ATOM     32  O   UNL     1      -5.580   4.603  -4.525  0.00  0.00    -0.126 OA
ATOM     33  O   UNL     1      -4.189   5.895  -3.641  0.00  0.00    -0.126 OA
ENDBRANCH  26  31
ENDBRANCH  21  24
ENDBRANCH  19  21
ENDBRANCH  18  19
ENDBRANCH   1  18
TORSDOF 8
