REMARK  Name = ZINC38847628
REMARK  10 active torsions:
REMARK  status: ('A' for Active; 'I' for Inactive)
REMARK    1  A    between atoms: C_1  and  C_2
REMARK    2  A    between atoms: C_2  and  O_3
REMARK    3  A    between atoms: O_3  and  C_4
REMARK    4  A    between atoms: N_13  and  C_14
REMARK    5  A    between atoms: C_14  and  C_15
REMARK    6  A    between atoms: C_15  and  C_16
REMARK    7  A    between atoms: C_16  and  N_17
REMARK    8  A    between atoms: C_22  and  C_24
REMARK    9  A    between atoms: C_25  and  C_36
REMARK   10  A    between atoms: C_28  and  C_29
REMARK                            x       y       z     vdW  Elec       q    Type
REMARK                         _______ _______ _______ _____ _____    ______ ____
ROOT
ATOM      1  C   UNL     1      -1.498  -1.849   0.006  0.00  0.00    +0.147 A 
ATOM      2  C   UNL     1      -0.392  -2.665  -0.003  0.00  0.00    +0.048 A 
ATOM      3  C   UNL     1      -0.513  -4.047  -0.009  0.00  0.00    +0.005 A 
ATOM      4  C   UNL     1      -1.772  -4.618  -0.006  0.00  0.00    +0.017 A 
ATOM      5  C   UNL     1      -2.884  -3.811   0.004  0.00  0.00    +0.044 A 
ATOM      6  C   UNL     1      -2.804  -2.401   0.016  0.00  0.00    +0.122 A 
ATOM      7  N   UNL     1      -3.987  -1.747   0.031  0.00  0.00    -0.221 NA
ATOM      8  C   UNL     1      -5.139  -2.375   0.038  0.00  0.00    +0.168 A 
ATOM      9  S   UNL     1      -4.639  -4.090   0.011  0.00  0.00    -0.052 S 
ATOM     10  N   UNL     1      -6.418  -1.843   0.054  0.00  0.00    -0.246 N 
ATOM     11  C   UNL     1      -6.592  -0.506   0.063  0.00  0.00    +0.258 C 
ATOM     12  O   UNL     1      -5.626   0.233   0.058  0.00  0.00    -0.269 OA
ENDROOT
BRANCH  11  13
ATOM     13  C   UNL     1      -7.951   0.059   0.080  0.00  0.00    +0.107 A 
ATOM     14  C   UNL     1      -8.690   0.371   1.184  0.00  0.00    +0.147 A 
ATOM     15  O   UNL     1      -9.864   0.859   0.777  0.00  0.00    -0.359 OA
ATOM     16  N   UNL     1      -9.907   0.871  -0.635  0.00  0.00    -0.077 NA
ATOM     17  C   UNL     1      -8.773   0.403  -1.091  0.00  0.00    +0.127 A 
ATOM     18  C   UNL     1      -8.254   0.195   2.615  0.00  0.00    +0.090 C 
BRANCH  17  19
ATOM     19  C   UNL     1      -8.390   0.245  -2.515  0.00  0.00    +0.023 A 
ATOM     20  C   UNL     1      -7.144  -0.280  -2.851  0.00  0.00    +0.011 A 
ATOM     21  C   UNL     1      -6.793  -0.424  -4.178  0.00  0.00    +0.001 A 
ATOM     22  C   UNL     1      -7.676  -0.049  -5.175  0.00  0.00    +0.001 A 
ATOM     23  C   UNL     1      -8.915   0.473  -4.849  0.00  0.00    +0.020 A 
ATOM     24  C   UNL     1      -9.279   0.617  -3.524  0.00  0.00    +0.050 A 
ATOM     25 CL   UNL     1     -10.837   1.265  -3.115  0.00  0.00    -0.083 Cl
ENDBRANCH  17  19
ENDBRANCH  11  13
BRANCH   1  26
ATOM     26  O   UNL     1      -1.339  -0.499   0.012  0.00  0.00    -0.490 OA
BRANCH  26  28
ATOM     27  C   UNL     1      -0.019   1.526   0.010  0.00  0.00    +0.048 C 
ATOM     28  C   UNL     1       0.002  -0.004   0.002  0.00  0.00    +0.226 C 
ENDBRANCH  26  28
ENDBRANCH   1  26
BRANCH  10  29
ATOM     29  C   UNL     1      -7.582  -2.733   0.060  0.00  0.00    +0.117 C 
BRANCH  29  30
ATOM     30  C   UNL     1      -7.973  -3.051   1.505  0.00  0.00    +0.041 C 
BRANCH  30  31
ATOM     31  C   UNL     1      -9.188  -3.981   1.511  0.00  0.00    +0.124 C 
BRANCH  31  32
ATOM     32  N   UNL     1      -9.562  -4.285   2.895  0.00  0.00    -0.338 N 
ATOM     33  C   UNL     1      -9.096  -5.326   3.652  0.00  0.00    +0.104 A 
ATOM     34  C   UNL     1      -9.695  -5.232   4.854  0.00  0.00    +0.101 A 
ATOM     35  N   UNL     1     -10.506  -4.163   4.831  0.00  0.00    -0.352 N 
ATOM     36  C   UNL     1     -10.427  -3.588   3.663  0.00  0.00    +0.173 A 
ATOM     37  H   UNL     1     -11.060  -3.863   5.569  0.00  0.00    +0.166 HD
ENDBRANCH  31  32
ENDBRANCH  30  31
ENDBRANCH  29  30
ENDBRANCH  10  29
TORSDOF 8
