REMARK  Name = ZINC37041588
REMARK  4 active torsions:
REMARK  status: ('A' for Active; 'I' for Inactive)
REMARK    1  A    between atoms: C_3  and  N_12
REMARK    2  A    between atoms: C_6  and  S_7
REMARK    3  A    between atoms: S_7  and  N_10
REMARK    4  A    between atoms: C_13  and  C_15
REMARK                            x       y       z     vdW  Elec       q    Type
REMARK                         _______ _______ _______ _____ _____    ______ ____
ROOT
ATOM      1  C   UNL     1       0.065   1.242  -0.620  0.00  0.00    +0.030 A 
ATOM      2  C   UNL     1       1.250   1.952  -0.618  0.00  0.00    +0.026 A 
ATOM      3  C   UNL     1       2.381   1.409  -0.024  0.00  0.00    +0.048 A 
ATOM      4  C   UNL     1       2.317   0.153   0.568  0.00  0.00    +0.041 A 
ATOM      5  C   UNL     1       1.128  -0.551   0.562  0.00  0.00    +0.045 A 
ATOM      6  C   UNL     1       0.004  -0.007  -0.031  0.00  0.00    +0.106 A 
ATOM      7 BR   UNL     1       3.855  -0.591   1.378  0.00  0.00    -0.048 Br
ENDROOT
BRANCH   3   8
ATOM      8  N   UNL     1       3.584   2.125  -0.021  0.00  0.00    -0.286 N 
ATOM      9  C   UNL     1       3.568   3.470  -0.116  0.00  0.00    +0.203 C 
ATOM     10  O   UNL     1       2.512   4.066  -0.103  0.00  0.00    -0.277 OA
ATOM     11  H   UNL     1       4.429   1.654   0.049  0.00  0.00    +0.155 HD
BRANCH   9  12
ATOM     12  C   UNL     1       4.862   4.232  -0.238  0.00  0.00    +0.016 C 
ATOM     13  C   UNL     1       5.730   3.997   1.016  0.00  0.00    -0.009 C 
ATOM     14  C   UNL     1       6.372   5.388   1.262  0.00  0.00    -0.020 C 
ATOM     15  C   UNL     1       5.224   6.340   0.844  0.00  0.00    -0.082 C 
ATOM     16  N   UNL     1       4.587   5.678  -0.319  0.00  0.00    +0.387 N 
ATOM     17  H   UNL     1       4.970   6.049  -1.175  0.00  0.00    -0.085 HD
ATOM     18  H   UNL     1       3.591   5.836  -0.297  0.00  0.00    -0.085 HD
ENDBRANCH   9  12
ENDBRANCH   3   8
BRANCH   6  19
ATOM     19  S   UNL     1      -1.510  -0.908  -0.035  0.00  0.00    +0.056 S 
ATOM     20  O   UNL     1      -1.447  -1.815   1.057  0.00  0.00    -0.153 OA
ATOM     21  O   UNL     1      -2.552   0.049  -0.171  0.00  0.00    -0.153 OA
BRANCH  19  22
ATOM     22  N   UNL     1      -1.529  -1.827  -1.413  0.00  0.00    -0.204 NA
ATOM     23  H   UNL     1      -0.782  -1.791  -2.030  0.00  0.00    +0.144 HD
ATOM     24  H   UNL     1      -2.287  -2.401  -1.602  0.00  0.00    +0.144 HD
ENDBRANCH  19  22
ENDBRANCH   6  19
TORSDOF 4
