REMARK  Name = ZINC59467046
REMARK  8 active torsions:
REMARK  status: ('A' for Active; 'I' for Inactive)
REMARK    1  A    between atoms: C_1  and  C_2
REMARK    2  A    between atoms: C_3  and  C_15
REMARK    3  A    between atoms: C_4  and  N_14
REMARK    4  A    between atoms: C_6  and  C_7
REMARK    5  A    between atoms: C_7  and  C_13
REMARK    6  A    between atoms: N_8  and  N_9
REMARK    7  A    between atoms: N_9  and  C_10
REMARK    8  A    between atoms: C_10  and  N_12
REMARK                            x       y       z     vdW  Elec       q    Type
REMARK                         _______ _______ _______ _____ _____    ______ ____
ROOT
ATOM      1  C   UNL     1      -0.018   1.503   0.010  0.00  0.00    +0.046 C 
ATOM      2  C   UNL     1       0.002  -0.004   0.002  0.00  0.00    -0.021 A 
ATOM      3  C   UNL     1       0.007  -0.734  -1.187  0.00  0.00    +0.068 A 
ATOM      4  C   UNL     1       0.026  -2.124  -1.089  0.00  0.00    +0.076 A 
ATOM      5  S   UNL     1       0.037  -2.411   0.566  0.00  0.00    -0.072 S 
ATOM      6  C   UNL     1       0.023  -0.731   1.158  0.00  0.00    +0.040 A 
ENDROOT
BRANCH   3   7
ATOM      7  C   UNL     1      -0.009  -0.064  -2.490  0.00  0.00    +0.244 C 
ATOM      8  O   UNL     1       1.039   0.229  -3.037  0.00  0.00    -0.270 OA
ATOM      9  N   UNL     1      -1.183   0.228  -3.084  0.00  0.00    -0.325 N 
ATOM     10  H   UNL     1      -2.018  -0.006  -2.649  0.00  0.00    +0.145 HD
ATOM     11  H   UNL     1      -1.193   0.671  -3.947  0.00  0.00    +0.145 HD
ENDBRANCH   3   7
BRANCH   6  12
ATOM     12  C   UNL     1       0.030  -0.249   2.542  0.00  0.00    +0.070 C 
ATOM     13  N   UNL     1       0.015   1.029   2.786  0.00  0.00    -0.185 NA
ATOM     14  C   UNL     1       0.054  -1.234   3.683  0.00  0.00    +0.068 C 
BRANCH  13  15
ATOM     15  N   UNL     1       0.021   1.489   4.109  0.00  0.00    -0.218 N 
ATOM     16  H   UNL     1       0.036   0.856   4.843  0.00  0.00    +0.176 HD
BRANCH  15  17
ATOM     17  C   UNL     1       0.005   2.813   4.362  0.00  0.00    +0.147 C 
ATOM     18  S   UNL     1       0.013   3.376   5.979  0.00  0.00    -0.017 S 
BRANCH  17  19
ATOM     19  N   UNL     1      -0.016   3.694   3.342  0.00  0.00    -0.339 N 
ATOM     20  H   UNL     1      -0.021   3.375   2.426  0.00  0.00    +0.144 HD
ATOM     21  H   UNL     1      -0.027   4.646   3.523  0.00  0.00    +0.144 HD
ENDBRANCH  17  19
ENDBRANCH  15  17
ENDBRANCH  13  15
ENDBRANCH   6  12
BRANCH   4  22
ATOM     22  N   UNL     1       0.033  -3.048  -2.112  0.00  0.00    -0.352 N 
ATOM     23  H   UNL     1       0.025  -2.750  -3.035  0.00  0.00    +0.143 HD
ATOM     24  H   UNL     1       0.047  -3.996  -1.909  0.00  0.00    +0.143 HD
ENDBRANCH   4  22
TORSDOF 6
