REMARK  Name = ZINC49147320
REMARK  8 active torsions:
REMARK  status: ('A' for Active; 'I' for Inactive)
REMARK    1  A    between atoms: C_1  and  C_2
REMARK    2  A    between atoms: C_2  and  C_4
REMARK    3  A    between atoms: C_2  and  N_23
REMARK    4  A    between atoms: C_7  and  S_10
REMARK    5  A    between atoms: S_10  and  N_13
REMARK    6  A    between atoms: N_13  and  C_14
REMARK    7  A    between atoms: C_14  and  C_16
REMARK    8  A    between atoms: C_14  and  C_17
REMARK                            x       y       z     vdW  Elec       q    Type
REMARK                         _______ _______ _______ _____ _____    ______ ____
ROOT
ATOM      1  S   UNL     1       2.826  -1.949  -4.962  0.00  0.00    +0.059 S 
ATOM      2  O   UNL     1       1.916  -1.778  -6.040  0.00  0.00    -0.153 OA
ATOM      3  O   UNL     1       4.117  -1.356  -4.954  0.00  0.00    -0.153 OA
ENDROOT
BRANCH   1   7
ATOM      4  C   UNL     1       0.707  -0.490  -1.238  0.00  0.00    -0.062 A 
ATOM      5  C   UNL     1       2.089  -0.511  -1.284  0.00  0.00    +0.004 A 
ATOM      6  C   UNL     1       2.736  -0.957  -2.421  0.00  0.00    +0.029 A 
ATOM      7  C   UNL     1       2.002  -1.382  -3.512  0.00  0.00    +0.105 A 
ATOM      8  C   UNL     1       0.620  -1.362  -3.466  0.00  0.00    +0.029 A 
ATOM      9  C   UNL     1      -0.027  -0.920  -2.327  0.00  0.00    +0.004 A 
BRANCH   4  11
ATOM     10  C   UNL     1      -0.019   1.526   0.010  0.00  0.00    -0.009 C 
ATOM     11  C   UNL     1       0.002  -0.004   0.002  0.00  0.00    -0.047 C 
BRANCH  11  12
ATOM     12  N   UNL     1       0.713  -0.491   1.192  0.00  0.00    +0.382 N 
ATOM     13  H   UNL     1       0.240  -0.165   2.022  0.00  0.00    -0.089 HD
ATOM     14  H   UNL     1       0.726  -1.500   1.187  0.00  0.00    -0.089 HD
ATOM     15  H   UNL     1       1.659  -0.141   1.185  0.00  0.00    -0.089 HD
ENDBRANCH  11  12
ENDBRANCH   4  11
ENDBRANCH   1   7
BRANCH   1  16
ATOM     16  N   UNL     1       3.054  -3.580  -4.790  0.00  0.00    -0.182 NA
ATOM     17  H   UNL     1       3.953  -3.940  -4.724  0.00  0.00    +0.149 HD
BRANCH  16  18
ATOM     18  C   UNL     1       1.899  -4.480  -4.736  0.00  0.00    +0.110 C 
ATOM     19  C   UNL     1       1.620  -5.036  -6.134  0.00  0.00    +0.031 C 
BRANCH  18  20
ATOM     20  C   UNL     1       2.192  -5.617  -3.792  0.00  0.00    +0.009 A 
ATOM     21  C   UNL     1       1.369  -6.215  -2.895  0.00  0.00    +0.014 A 
ATOM     22  C   UNL     1       1.859  -7.253  -2.125  0.00  0.00    +0.028 A 
ATOM     23  C   UNL     1       3.148  -7.643  -2.289  0.00  0.00    +0.078 A 
ATOM     24  S   UNL     1       3.708  -6.532  -3.570  0.00  0.00    -0.080 S 
ATOM     25 CL   UNL     1       4.024  -8.899  -1.472  0.00  0.00    -0.076 Cl
ENDBRANCH  18  20
ENDBRANCH  16  18
ENDBRANCH   1  16
TORSDOF 6
