REMARK  Name = ZINC63192167
REMARK  4 active torsions:
REMARK  status: ('A' for Active; 'I' for Inactive)
REMARK    1  A    between atoms: C_1  and  C_2
REMARK    2  A    between atoms: C_2  and  C_4
REMARK    3  A    between atoms: C_2  and  N_24
REMARK    4  A    between atoms: N_10  and  C_11
REMARK                            x       y       z     vdW  Elec       q    Type
REMARK                         _______ _______ _______ _____ _____    ______ ____
ROOT
ATOM      1  C   UNL     1      -0.677  -2.290  -1.490  0.00  0.00    +0.179 C 
ATOM      2  C   UNL     1      -1.366  -1.710  -2.704  0.00  0.00    +0.035 A 
ATOM      3  C   UNL     1      -1.689  -2.786  -3.521  0.00  0.00    +0.044 A 
ATOM      4  C   UNL     1      -2.342  -2.545  -4.728  0.00  0.00    +0.062 A 
ATOM      5  C   UNL     1      -2.660  -1.252  -5.100  0.00  0.00    +0.128 A 
ATOM      6  C   UNL     1      -2.333  -0.188  -4.277  0.00  0.00    +0.077 A 
ATOM      7  C   UNL     1      -1.683  -0.420  -3.075  0.00  0.00    +0.133 A 
ATOM      8  F   UNL     1      -1.361   0.614  -2.269  0.00  0.00    -0.205 F 
ATOM      9  F   UNL     1      -3.293  -1.026  -6.272  0.00  0.00    -0.205 F 
ATOM     10  N   UNL     1      -1.269  -3.980  -2.935  0.00  0.00    -0.283 N 
ATOM     11  C   UNL     1      -0.666  -3.782  -1.747  0.00  0.00    +0.239 C 
ATOM     12  O   UNL     1      -0.203  -4.634  -1.019  0.00  0.00    -0.273 OA
ATOM     13  H   UNL     1      -1.395  -4.854  -3.337  0.00  0.00    +0.155 HD
ENDROOT
BRANCH   1  19
ATOM     14  C   UNL     1      -1.184  -0.606   0.174  0.00  0.00    +0.043 C 
ATOM     15  C   UNL     1      -1.874  -0.369   1.519  0.00  0.00    +0.017 C 
ATOM     16  C   UNL     1      -3.378  -0.607   1.365  0.00  0.00    +0.003 C 
ATOM     17  C   UNL     1      -3.612  -2.031   0.854  0.00  0.00    +0.015 C 
ATOM     18  C   UNL     1      -2.872  -2.220  -0.472  0.00  0.00    +0.085 C 
ATOM     19  N   UNL     1      -1.437  -1.982  -0.271  0.00  0.00    -0.286 NA
BRANCH  14  21
ATOM     20  C   UNL     1       0.901  -1.463   1.252  0.00  0.00    -0.013 C 
ATOM     21  C   UNL     1       0.323  -0.389   0.328  0.00  0.00    -0.061 C 
BRANCH  21  22
ATOM     22  N   UNL     1       0.569   0.939   0.906  0.00  0.00    +0.381 N 
ATOM     23  H   UNL     1       1.561   1.124   0.911  0.00  0.00    -0.090 HD
ATOM     24  H   UNL     1       0.099   1.639   0.352  0.00  0.00    -0.090 HD
ATOM     25  H   UNL     1       0.217   0.965   1.851  0.00  0.00    -0.090 HD
ENDBRANCH  21  22
ENDBRANCH  14  21
ENDBRANCH   1  19
TORSDOF 3
