REMARK  Name = ZINC04097706
REMARK  12 active torsions:
REMARK  status: ('A' for Active; 'I' for Inactive)
REMARK    1  A    between atoms: C_3  and  O_37
REMARK    2  A    between atoms: C_4  and  O_36
REMARK    3  A    between atoms: C_6  and  C_7
REMARK    4  A    between atoms: C_8  and  O_19
REMARK    5  A    between atoms: C_11  and  O_18
REMARK    6  A    between atoms: C_13  and  O_17
REMARK    7  A    between atoms: O_19  and  C_20
REMARK    8  A    between atoms: C_22  and  O_35
REMARK    9  A    between atoms: C_24  and  O_34
REMARK   10  A    between atoms: C_26  and  O_33
REMARK   11  A    between atoms: C_28  and  C_31
REMARK   12  A    between atoms: C_31  and  O_32
REMARK                            x       y       z     vdW  Elec       q    Type
REMARK                         _______ _______ _______ _____ _____    ______ ____
ROOT
ATOM      1  C   UNL     1       5.619   6.117  -1.271  0.00  0.00    +0.177 A 
ATOM      2  C   UNL     1       4.422   5.384  -1.175  0.00  0.00    +0.167 A 
ATOM      3  C   UNL     1       3.234   6.076  -1.260  0.00  0.00    +0.064 A 
ATOM      4  C   UNL     1       3.354   7.472  -1.425  0.00  0.00    +0.062 A 
ATOM      5  C   UNL     1       2.222   8.302  -1.519  0.00  0.00    +0.131 A 
ATOM      6  C   UNL     1       2.384   9.650  -1.682  0.00  0.00    +0.091 A 
ATOM      7  C   UNL     1       3.663  10.207  -1.756  0.00  0.00    +0.124 A 
ATOM      8  C   UNL     1       4.787   9.416  -1.667  0.00  0.00    +0.092 A 
ATOM      9  C   UNL     1       4.655   8.029  -1.499  0.00  0.00    +0.143 A 
ATOM     10  O   UNL     1       5.640   7.317  -1.417  0.00  0.00    -0.451 OA
ENDROOT
BRANCH   1  16
ATOM     11  C   UNL     1       7.508   4.903  -2.348  0.00  0.00    +0.015 A 
ATOM     12  C   UNL     1       8.706   4.225  -2.270  0.00  0.00    +0.050 A 
ATOM     13  C   UNL     1       9.315   4.026  -1.040  0.00  0.00    +0.158 A 
ATOM     14  C   UNL     1       8.717   4.510   0.123  0.00  0.00    +0.159 A 
ATOM     15  C   UNL     1       7.519   5.195   0.050  0.00  0.00    +0.060 A 
ATOM     16  C   UNL     1       6.904   5.390  -1.188  0.00  0.00    +0.025 A 
BRANCH  14  17
ATOM     17  O   UNL     1       9.316   4.314   1.328  0.00  0.00    -0.503 OA
ATOM     18  H   UNL     1       9.927   5.019   1.583  0.00  0.00    +0.292 HD
ENDBRANCH  14  17
BRANCH  13  19
ATOM     19  O   UNL     1      10.495   3.357  -0.967  0.00  0.00    -0.503 OA
ATOM     20  H   UNL     1      11.274   3.925  -1.039  0.00  0.00    +0.292 HD
ENDBRANCH  13  19
ENDBRANCH   1  16
BRANCH   7  21
ATOM     21  O   UNL     1       3.799  11.548  -1.918  0.00  0.00    -0.507 OA
ATOM     22  H   UNL     1       3.843  12.042  -1.087  0.00  0.00    +0.292 HD
ENDBRANCH   7  21
BRANCH   5  23
ATOM     23  O   UNL     1       0.976   7.768  -1.449  0.00  0.00    -0.506 OA
ATOM     24  H   UNL     1       0.619   7.719  -0.551  0.00  0.00    +0.292 HD
ENDBRANCH   5  23
BRANCH   2  25
ATOM     25  O   UNL     1       4.437   4.034  -1.011  0.00  0.00    -0.457 OA
BRANCH  25  26
ATOM     26  C   UNL     1       3.172   3.377  -0.925  0.00  0.00    +0.339 C 
ATOM     27  C   UNL     1       3.386   1.862  -0.868  0.00  0.00    +0.214 C 
ATOM     28  C   UNL     1       2.029   1.168  -0.715  0.00  0.00    +0.180 C 
ATOM     29  C   UNL     1       1.332   1.704   0.539  0.00  0.00    +0.177 C 
ATOM     30  C   UNL     1       1.197   3.224   0.428  0.00  0.00    +0.179 C 
ATOM     31  O   UNL     1       2.491   3.805   0.257  0.00  0.00    -0.331 OA
BRANCH  29  32
ATOM     32  O   UNL     1       0.034   1.116   0.652  0.00  0.00    -0.386 OA
ATOM     33  H   UNL     1       0.044   0.151   0.722  0.00  0.00    +0.210 HD
ENDBRANCH  29  32
BRANCH  28  34
ATOM     34  O   UNL     1       2.225  -0.242  -0.587  0.00  0.00    -0.386 OA
ATOM     35  H   UNL     1       2.663  -0.649  -1.348  0.00  0.00    +0.210 HD
ENDBRANCH  28  34
BRANCH  27  36
ATOM     36  O   UNL     1       4.015   1.422  -2.073  0.00  0.00    -0.383 OA
ATOM     37  H   UNL     1       4.880   1.822  -2.234  0.00  0.00    +0.210 HD
ENDBRANCH  27  36
BRANCH  30  38
ATOM     38  C   UNL     1       0.555   3.775   1.703  0.00  0.00    +0.190 C 
BRANCH  38  39
ATOM     39  O   UNL     1       0.323   5.176   1.553  0.00  0.00    -0.392 OA
ATOM     40  H   UNL     1      -0.083   5.593   2.326  0.00  0.00    +0.210 HD
ENDBRANCH  38  39
ENDBRANCH  30  38
ENDBRANCH  25  26
ENDBRANCH   2  25
TORSDOF 12
