REMARK  Name = ZINC42737447
REMARK  8 active torsions:
REMARK  status: ('A' for Active; 'I' for Inactive)
REMARK    1  A    between atoms: C_1  and  C_2
REMARK    2  A    between atoms: C_2  and  N_3
REMARK    3  A    between atoms: N_3  and  C_4
REMARK    4  A    between atoms: N_3  and  C_16
REMARK    5  A    between atoms: C_4  and  C_5
REMARK    6  A    between atoms: N_7  and  C_8
REMARK    7  A    between atoms: C_11  and  N_15
REMARK    8  A    between atoms: C_16  and  C_17
REMARK                            x       y       z     vdW  Elec       q    Type
REMARK                         _______ _______ _______ _____ _____    ______ ____
ROOT
ATOM      1  C   UNL     1       2.165   1.590  -1.533  0.00  0.00    +0.201 C 
ATOM      2  O   UNL     1       1.231   2.354  -1.413  0.00  0.00    -0.278 OA
ATOM      3  N   UNL     1       3.399   2.069  -1.786  0.00  0.00    -0.286 N 
ATOM      4  H   UNL     1       4.132   1.456  -1.953  0.00  0.00    +0.155 HD
ENDROOT
BRANCH   3   5
ATOM      5  C   UNL     1       3.623   3.452  -1.808  0.00  0.00    +0.048 A 
ATOM      6  C   UNL     1       2.605   4.314  -2.192  0.00  0.00    +0.026 A 
ATOM      7  C   UNL     1       2.825   5.677  -2.213  0.00  0.00    +0.024 A 
ATOM      8  C   UNL     1       4.066   6.186  -1.852  0.00  0.00    +0.026 A 
ATOM      9  C   UNL     1       5.085   5.324  -1.468  0.00  0.00    +0.039 A 
ATOM     10  C   UNL     1       4.863   3.961  -1.441  0.00  0.00    +0.041 A 
ATOM     11 BR   UNL     1       6.247   2.787  -0.912  0.00  0.00    -0.048 Br
BRANCH   8  12
ATOM     12  N   UNL     1       4.289   7.567  -1.874  0.00  0.00    -0.358 N 
ATOM     13  H   UNL     1       3.577   8.169  -2.142  0.00  0.00    +0.142 HD
ATOM     14  H   UNL     1       5.156   7.922  -1.622  0.00  0.00    +0.142 HD
ENDBRANCH   8  12
ENDBRANCH   3   5
BRANCH   1  15
ATOM     15  C   UNL     1       1.946   0.105  -1.399  0.00  0.00    +0.019 C 
BRANCH  15  16
ATOM     16  N   UNL     1       0.562  -0.150  -0.977  0.00  0.00    +0.391 N 
ATOM     17  H   UNL     1      -0.073   0.305  -1.616  0.00  0.00    -0.081 HD
BRANCH  16  19
ATOM     18  C   UNL     1       1.219  -0.406   1.368  0.00  0.00    -0.017 C 
ATOM     19  C   UNL     1       0.357   0.380   0.378  0.00  0.00    -0.081 C 
ENDBRANCH  16  19
BRANCH  16  20
ATOM     20  C   UNL     1       0.307  -1.596  -0.981  0.00  0.00    +0.037 C 
BRANCH  20  21
ATOM     21  C   UNL     1      -1.173  -1.855  -0.689  0.00  0.00    +0.376 C 
ATOM     22  F   UNL     1      -1.959  -1.118  -1.582  0.00  0.00    -0.173 F 
ATOM     23  F   UNL     1      -1.447  -3.218  -0.841  0.00  0.00    -0.173 F 
ATOM     24  F   UNL     1      -1.464  -1.463   0.622  0.00  0.00    -0.173 F 
ENDBRANCH  20  21
ENDBRANCH  16  20
ENDBRANCH  15  16
ENDBRANCH   1  15
TORSDOF 7
