REMARK  Name = ZINC08964096
REMARK  9 active torsions:
REMARK  status: ('A' for Active; 'I' for Inactive)
REMARK    1  A    between atoms: C_1  and  N_2
REMARK    2  A    between atoms: C_9  and  C_11
REMARK    3  A    between atoms: C_11  and  C_13
REMARK    4  A    between atoms: C_11  and  N_67
REMARK    5  A    between atoms: C_13  and  N_14
REMARK    6  A    between atoms: C_15  and  C_17
REMARK    7  A    between atoms: N_19  and  C_20
REMARK    8  A    between atoms: C_20  and  C_21
REMARK    9  A    between atoms: C_21  and  C_22
REMARK                            x       y       z     vdW  Elec       q    Type
REMARK                         _______ _______ _______ _____ _____    ______ ____
ROOT
ATOM      1  C   UNL     1      -3.378   6.139  -1.056  0.00  0.00    -0.020 C 
ENDROOT
BRANCH   1  10
ATOM      2  C   UNL     1       2.190   4.067   1.505  0.00  0.00    +0.129 C 
ATOM      3  N   UNL     1       1.043   3.272   1.046  0.00  0.00    -0.332 N 
ATOM      4  C   UNL     1       1.411   2.430  -0.113  0.00  0.00    +0.109 C 
ATOM      5  C   UNL     1       0.087   2.342  -0.906  0.00  0.00    +0.056 C 
ATOM      6  C   UNL     1      -0.640   3.605  -0.490  0.00  0.00    -0.025 A 
ATOM      7  C   UNL     1      -0.022   4.098   0.653  0.00  0.00    +0.033 A 
ATOM      8  C   UNL     1      -0.504   5.269   1.233  0.00  0.00    +0.023 A 
ATOM      9  C   UNL     1      -1.585   5.924   0.679  0.00  0.00    +0.004 A 
ATOM     10  C   UNL     1      -2.197   5.422  -0.455  0.00  0.00    -0.059 A 
ATOM     11  C   UNL     1      -1.722   4.261  -1.038  0.00  0.00    +0.007 A 
ENDBRANCH   1  10
BRANCH   1  16
ATOM     12  C   UNL     1      -5.597   7.021  -0.580  0.00  0.00    -0.078 C 
ATOM     13  C   UNL     1      -6.667   6.752   0.508  0.00  0.00    -0.020 C 
ATOM     14  C   UNL     1      -6.290   5.344   1.022  0.00  0.00    -0.020 C 
ATOM     15  C   UNL     1      -4.806   5.164   0.651  0.00  0.00    -0.078 C 
ATOM     16  N   UNL     1      -4.393   6.412   0.006  0.00  0.00    +0.385 N 
ATOM     17  H   UNL     1      -3.988   7.046   0.705  0.00  0.00    -0.081 HD
ENDBRANCH   1  16
BRANCH   1  18
ATOM     18  C   UNL     1      -2.913   7.458  -1.676  0.00  0.00    +0.094 C 
BRANCH  18  19
ATOM     19  N   UNL     1      -4.008   8.047  -2.450  0.00  0.00    -0.309 N 
ATOM     20  C   UNL     1      -3.876   9.283  -2.972  0.00  0.00    +0.299 C 
ATOM     21  O   UNL     1      -2.849   9.907  -2.801  0.00  0.00    -0.265 OA
ATOM     22  H   UNL     1      -4.828   7.548  -2.587  0.00  0.00    +0.149 HD
BRANCH  20  23
ATOM     23  C   UNL     1      -4.993   9.884  -3.762  0.00  0.00    +0.299 C 
ATOM     24  O   UNL     1      -6.020   9.259  -3.933  0.00  0.00    -0.265 OA
ATOM     25  N   UNL     1      -4.861  11.119  -4.284  0.00  0.00    -0.307 N 
ATOM     26  H   UNL     1      -4.041  11.618  -4.147  0.00  0.00    +0.149 HD
BRANCH  25  27
ATOM     27  C   UNL     1      -5.957  11.708  -5.058  0.00  0.00    +0.109 C 
BRANCH  27  28
ATOM     28  C   UNL     1      -5.552  13.105  -5.532  0.00  0.00    +0.049 C 
BRANCH  28  29
ATOM     29  C   UNL     1      -6.679  13.711  -6.329  0.00  0.00    -0.072 C 
ATOM     30  C   UNL     1      -7.511  14.487  -5.710  0.00  0.00    -0.028 C 
ATOM     31  C   UNL     1      -8.685  15.154  -6.365  0.00  0.00    +0.027 C 
ATOM     32  C   UNL     1      -8.517  15.142  -7.886  0.00  0.00    +0.004 C 
ATOM     33  C   UNL     1      -8.161  13.715  -8.323  0.00  0.00    +0.005 C 
ATOM     34  C   UNL     1      -6.764  13.383  -7.790  0.00  0.00    +0.030 C 
ENDBRANCH  28  29
ENDBRANCH  27  28
ENDBRANCH  25  27
ENDBRANCH  20  23
ENDBRANCH  18  19
ENDBRANCH   1  18
TORSDOF 8
