REMARK  Name = ZINC35466129
REMARK  11 active torsions:
REMARK  status: ('A' for Active; 'I' for Inactive)
REMARK    1  A    between atoms: C_3  and  O_38
REMARK    2  A    between atoms: C_4  and  O_37
REMARK    3  A    between atoms: C_6  and  C_7
REMARK    4  A    between atoms: C_15  and  O_20
REMARK    5  A    between atoms: C_16  and  O_19
REMARK    6  A    between atoms: O_20  and  C_21
REMARK    7  A    between atoms: C_23  and  O_36
REMARK    8  A    between atoms: C_25  and  O_35
REMARK    9  A    between atoms: C_27  and  O_34
REMARK   10  A    between atoms: C_29  and  C_32
REMARK   11  A    between atoms: C_32  and  O_33
REMARK                            x       y       z     vdW  Elec       q    Type
REMARK                         _______ _______ _______ _____ _____    ______ ____
ROOT
ATOM      1  C   UNL     1      -1.294  -0.774   0.010  0.00  0.00    +0.211 C 
ATOM      2  C   UNL     1      -1.813  -0.918  -1.428  0.00  0.00    +0.129 C 
ATOM      3  C   UNL     1      -3.131  -1.668  -1.356  0.00  0.00    +0.171 C 
ATOM      4  O   UNL     1      -3.427  -2.517  -2.171  0.00  0.00    -0.292 OA
ATOM      5  C   UNL     1      -4.031  -1.312  -0.248  0.00  0.00    +0.063 A 
ATOM      6  C   UNL     1      -5.357  -1.755  -0.236  0.00  0.00    +0.019 A 
ATOM      7  C   UNL     1      -6.176  -1.420   0.805  0.00  0.00    +0.050 A 
ATOM      8  C   UNL     1      -5.698  -0.640   1.853  0.00  0.00    +0.169 A 
ATOM      9  C   UNL     1      -4.383  -0.189   1.854  0.00  0.00    +0.202 A 
ATOM     10  C   UNL     1      -3.538  -0.519   0.802  0.00  0.00    +0.177 A 
ATOM     11  O   UNL     1      -2.259  -0.073   0.794  0.00  0.00    -0.479 OA
ENDROOT
BRANCH   1  17
ATOM     12  C   UNL     1      -0.017   1.378   0.010  0.00  0.00    +0.011 A 
ATOM     13  C   UNL     1       1.170   2.089   0.002  0.00  0.00    +0.049 A 
ATOM     14  C   UNL     1       2.380   1.415  -0.013  0.00  0.00    +0.158 A 
ATOM     15  C   UNL     1       2.399   0.024  -0.021  0.00  0.00    +0.159 A 
ATOM     16  C   UNL     1       1.207  -0.682  -0.013  0.00  0.00    +0.056 A 
ATOM     17  C   UNL     1       0.002  -0.004   0.002  0.00  0.00    -0.003 A 
BRANCH  15  18
ATOM     18  O   UNL     1       3.585  -0.642  -0.036  0.00  0.00    -0.503 OA
ATOM     19  H   UNL     1       3.937  -0.839   0.843  0.00  0.00    +0.292 HD
ENDBRANCH  15  18
BRANCH  14  20
ATOM     20  O   UNL     1       3.548   2.113  -0.021  0.00  0.00    -0.503 OA
ATOM     21  H   UNL     1       3.894   2.310   0.860  0.00  0.00    +0.292 HD
ENDBRANCH  14  20
ENDBRANCH   1  17
BRANCH   9  22
ATOM     22  O   UNL     1      -3.924   0.574   2.884  0.00  0.00    -0.501 OA
ATOM     23  H   UNL     1      -3.541   0.064   3.611  0.00  0.00    +0.292 HD
ENDBRANCH   9  22
BRANCH   8  24
ATOM     24  O   UNL     1      -6.521  -0.316   2.882  0.00  0.00    -0.457 OA
BRANCH  24  25
ATOM     25  C   UNL     1      -7.861  -0.810   2.821  0.00  0.00    +0.339 C 
ATOM     26  C   UNL     1      -8.699  -0.149   3.919  0.00  0.00    +0.214 C 
ATOM     27  C   UNL     1     -10.117  -0.728   3.885  0.00  0.00    +0.180 C 
ATOM     28  C   UNL     1     -10.040  -2.249   4.050  0.00  0.00    +0.177 C 
ATOM     29  C   UNL     1      -9.150  -2.829   2.947  0.00  0.00    +0.179 C 
ATOM     30  O   UNL     1      -7.856  -2.226   3.015  0.00  0.00    -0.331 OA
BRANCH  28  31
ATOM     31  O   UNL     1      -9.485  -2.563   5.328  0.00  0.00    -0.386 OA
ATOM     32  H   UNL     1      -9.997  -2.222   6.074  0.00  0.00    +0.210 HD
ENDBRANCH  28  31
BRANCH  27  33
ATOM     33  O   UNL     1     -10.887  -0.169   4.952  0.00  0.00    -0.386 OA
ATOM     34  H   UNL     1     -10.971   0.794   4.913  0.00  0.00    +0.210 HD
ENDBRANCH  27  33
BRANCH  26  35
ATOM     35  O   UNL     1      -8.107  -0.407   5.193  0.00  0.00    -0.383 OA
ATOM     36  H   UNL     1      -7.205  -0.071   5.283  0.00  0.00    +0.210 HD
ENDBRANCH  26  35
BRANCH  29  37
ATOM     37  C   UNL     1      -9.019  -4.341   3.139  0.00  0.00    +0.190 C 
BRANCH  37  38
ATOM     38  O   UNL     1      -8.286  -4.898   2.047  0.00  0.00    -0.392 OA
ATOM     39  H   UNL     1      -8.165  -5.856   2.103  0.00  0.00    +0.210 HD
ENDBRANCH  37  38
ENDBRANCH  29  37
ENDBRANCH  24  25
ENDBRANCH   8  24
TORSDOF 11
