REMARK  Name = ZINC12293584
REMARK  7 active torsions:
REMARK  status: ('A' for Active; 'I' for Inactive)
REMARK    1  A    between atoms: C_1  and  O_2
REMARK    2  A    between atoms: O_2  and  C_3
REMARK    3  A    between atoms: C_15  and  C_16
REMARK    4  A    between atoms: C_15  and  N_60
REMARK    5  A    between atoms: C_16  and  C_18
REMARK    6  A    between atoms: C_16  and  O_28
REMARK    7  A    between atoms: C_30  and  O_32
REMARK                            x       y       z     vdW  Elec       q    Type
REMARK                         _______ _______ _______ _____ _____    ______ ____
ROOT
ATOM      1  C   UNL     1      10.189   2.971  -1.419  0.00  0.00    +0.124 A 
ATOM      2  C   UNL     1      10.986   2.200  -0.585  0.00  0.00    +0.046 A 
ATOM      3  C   UNL     1      10.627   0.898  -0.299  0.00  0.00    +0.013 A 
ATOM      4  C   UNL     1       9.474   0.354  -0.842  0.00  0.00    +0.023 A 
ATOM      5  C   UNL     1       8.677   1.119  -1.676  0.00  0.00    +0.130 A 
ATOM      6  C   UNL     1       9.036   2.431  -1.963  0.00  0.00    +0.091 A 
ATOM      7  O   UNL     1       7.543   0.621  -2.236  0.00  0.00    -0.485 OA
ATOM      8  C   UNL     1       6.987  -0.567  -1.676  0.00  0.00    +0.110 C 
ATOM      9  C   UNL     1       5.903  -1.119  -2.602  0.00  0.00    +0.029 C 
ATOM     10  C   UNL     1       4.760  -0.106  -2.704  0.00  0.00    -0.075 C 
ATOM     11  C   UNL     1       5.221   0.727  -0.476  0.00  0.00    -0.075 C 
ATOM     12  C   UNL     1       6.379  -0.260  -0.306  0.00  0.00    +0.029 C 
ATOM     13  C   UNL     1       8.104  -1.605  -1.518  0.00  0.00    +0.084 C 
ATOM     14  C   UNL     1       9.117  -1.071  -0.502  0.00  0.00    +0.152 C 
ATOM     15  N   UNL     1       4.199   0.121  -1.355  0.00  0.00    +0.382 N 
ATOM     16  H   UNL     1       3.911  -0.781  -0.958  0.00  0.00    -0.082 HD
ENDROOT
BRANCH   1  18
ATOM     17  C   UNL     1      11.742   4.744  -1.105  0.00  0.00    +0.277 C 
ATOM     18  O   UNL     1      10.540   4.254  -1.702  0.00  0.00    -0.495 OA
ENDBRANCH   1  18
BRANCH  14  19
ATOM     19  O   UNL     1      10.295  -1.878  -0.536  0.00  0.00    -0.387 OA
ATOM     20  H   UNL     1      10.982  -1.597   0.084  0.00  0.00    +0.210 HD
ENDBRANCH  14  19
BRANCH  15  21
ATOM     21  C   UNL     1       3.019   1.006  -1.442  0.00  0.00    -0.042 C 
BRANCH  21  22
ATOM     22  C   UNL     1       1.828   0.185  -1.938  0.00  0.00    +0.128 C 
BRANCH  22  23
ATOM     23  C   UNL     1       0.611   1.070  -2.027  0.00  0.00    -0.020 A 
ATOM     24  C   UNL     1      -0.112   1.362  -0.871  0.00  0.00    +0.007 A 
ATOM     25  C   UNL     1      -1.215   2.156  -0.916  0.00  0.00    +0.009 A 
ATOM     26  C   UNL     1      -1.636   2.692  -2.145  0.00  0.00    -0.018 A 
ATOM     27  C   UNL     1      -2.771   3.517  -2.232  0.00  0.00    +0.008 A 
ATOM     28  C   UNL     1      -3.150   4.017  -3.439  0.00  0.00    +0.001 A 
ATOM     29  C   UNL     1      -2.427   3.726  -4.595  0.00  0.00    +0.001 A 
ATOM     30  C   UNL     1      -1.323   2.932  -4.550  0.00  0.00    +0.008 A 
ATOM     31  C   UNL     1      -0.899   2.400  -3.320  0.00  0.00    -0.018 A 
ATOM     32  C   UNL     1       0.233   1.571  -3.234  0.00  0.00    +0.014 A 
ENDBRANCH  22  23
BRANCH  22  33
ATOM     33  O   UNL     1       1.573  -0.885  -1.026  0.00  0.00    -0.389 OA
ATOM     34  H   UNL     1       1.365  -0.595  -0.127  0.00  0.00    +0.210 HD
ENDBRANCH  22  33
ENDBRANCH  21  22
ENDBRANCH  15  21
TORSDOF 6
