REMARK  Name = ZINC37650020
REMARK  9 active torsions:
REMARK  status: ('A' for Active; 'I' for Inactive)
REMARK    1  A    between atoms: C_1  and  C_2
REMARK    2  A    between atoms: C_2  and  C_3
REMARK    3  A    between atoms: C_2  and  C_4
REMARK    4  A    between atoms: C_4  and  C_6
REMARK    5  A    between atoms: C_4  and  N_11
REMARK    6  A    between atoms: N_11  and  C_12
REMARK    7  A    between atoms: C_12  and  C_13
REMARK    8  A    between atoms: C_17  and  S_19
REMARK    9  A    between atoms: S_19  and  N_22
REMARK                            x       y       z     vdW  Elec       q    Type
REMARK                         _______ _______ _______ _____ _____    ______ ____
ROOT
ATOM      1  C   UNL     1      -2.014   1.513  -0.975  0.00  0.00    -0.046 C 
ENDROOT
BRANCH   1   2
ATOM      2  C   UNL     1      -2.688   2.100  -2.188  0.00  0.00    -0.063 A 
ATOM      3  C   UNL     1      -1.957   2.337  -3.338  0.00  0.00    +0.002 A 
ATOM      4  C   UNL     1      -2.575   2.876  -4.450  0.00  0.00    +0.002 A 
ATOM      5  C   UNL     1      -3.924   3.178  -4.414  0.00  0.00    +0.028 A 
ATOM      6  C   UNL     1      -4.655   2.940  -3.265  0.00  0.00    +0.105 A 
ATOM      7  C   UNL     1      -4.037   2.397  -2.154  0.00  0.00    +0.030 A 
BRANCH   6   8
ATOM      8  S   UNL     1      -6.373   3.325  -3.219  0.00  0.00    +0.056 S 
ATOM      9  O   UNL     1      -6.710   3.516  -1.852  0.00  0.00    -0.153 OA
ATOM     10  O   UNL     1      -6.592   4.325  -4.205  0.00  0.00    -0.153 OA
BRANCH   8  11
ATOM     11  N   UNL     1      -7.191   1.976  -3.724  0.00  0.00    -0.204 NA
ATOM     12  H   UNL     1      -6.701   1.177  -3.974  0.00  0.00    +0.144 HD
ATOM     13  H   UNL     1      -8.160   1.985  -3.769  0.00  0.00    +0.144 HD
ENDBRANCH   8  11
ENDBRANCH   6   8
ENDBRANCH   1   2
BRANCH   1  14
ATOM     14  N   UNL     1      -2.088   0.047  -1.036  0.00  0.00    +0.387 N 
ATOM     15  H   UNL     1      -1.701  -0.273  -1.911  0.00  0.00    -0.085 HD
ATOM     16  H   UNL     1      -3.051  -0.245  -0.967  0.00  0.00    -0.085 HD
BRANCH  14  17
ATOM     17  C   UNL     1      -1.321  -0.528   0.077  0.00  0.00    -0.031 C 
BRANCH  17  18
ATOM     18  C   UNL     1      -1.980  -0.164   1.382  0.00  0.00    -0.024 A 
ATOM     19  C   UNL     1      -1.408   0.206   2.554  0.00  0.00    +0.009 A 
ATOM     20  C   UNL     1      -2.220   0.498   3.634  0.00  0.00    +0.008 A 
ATOM     21  C   UNL     1      -3.564   0.406   3.489  0.00  0.00    +0.045 A 
ATOM     22  S   UNL     1      -3.719  -0.101   1.784  0.00  0.00    -0.103 S 
ENDBRANCH  17  18
BRANCH  17  24
ATOM     23  C   UNL     1      -0.553  -2.422  -1.360  0.00  0.00    +0.006 C 
ATOM     24  C   UNL     1      -1.279  -2.051  -0.066  0.00  0.00    -0.027 C 
ATOM     25  C   UNL     1      -0.536  -2.655   1.127  0.00  0.00    +0.006 C 
ENDBRANCH  17  24
ENDBRANCH  14  17
ENDBRANCH   1  14
TORSDOF 7
