REMARK  Name = ZINC35483199
REMARK  11 active torsions:
REMARK  status: ('A' for Active; 'I' for Inactive)
REMARK    1  A    between atoms: C_1  and  C_2
REMARK    2  A    between atoms: C_2  and  N_3
REMARK    3  A    between atoms: N_3  and  C_4
REMARK    4  A    between atoms: N_3  and  C_6
REMARK    5  A    between atoms: C_4  and  C_5
REMARK    6  A    between atoms: C_6  and  C_7
REMARK    7  A    between atoms: C_7  and  N_8
REMARK    8  A    between atoms: C_9  and  C_24
REMARK    9  A    between atoms: C_26  and  O_32
REMARK   10  A    between atoms: C_27  and  O_31
REMARK   11  A    between atoms: O_32  and  C_33
REMARK                            x       y       z     vdW  Elec       q    Type
REMARK                         _______ _______ _______ _____ _____    ______ ____
ROOT
ATOM      1  N   UNL     1       1.352  -4.018  -2.683  0.00  0.00    -0.285 N 
ATOM      2  C   UNL     1       2.206  -5.017  -2.019  0.00  0.00    +0.145 C 
ATOM      3  C   UNL     1       1.678  -6.349  -2.442  0.00  0.00    +0.072 A 
ATOM      4  C   UNL     1       2.118  -7.710  -2.117  0.00  0.00    +0.199 A 
ATOM      5  O   UNL     1       2.946  -7.956  -1.258  0.00  0.00    -0.287 OA
ATOM      6  C   UNL     1       1.458  -8.758  -2.935  0.00  0.00    +0.064 A 
ATOM      7  C   UNL     1       1.908 -10.078  -2.888  0.00  0.00    +0.015 A 
ATOM      8  C   UNL     1       1.294 -11.031  -3.651  0.00  0.00    +0.001 A 
ATOM      9  C   UNL     1       0.226 -10.689  -4.470  0.00  0.00    +0.004 A 
ATOM     10  C   UNL     1      -0.232  -9.392  -4.527  0.00  0.00    +0.047 A 
ATOM     11  C   UNL     1       0.377  -8.402  -3.756  0.00  0.00    +0.139 A 
ATOM     12  O   UNL     1      -0.096  -7.136  -3.821  0.00  0.00    -0.450 OA
ATOM     13  C   UNL     1       0.613  -6.131  -3.269  0.00  0.00    +0.199 A 
ATOM     14  C   UNL     1       0.423  -4.677  -3.405  0.00  0.00    +0.283 C 
ATOM     15  O   UNL     1      -0.443  -4.148  -4.073  0.00  0.00    -0.267 OA
ENDROOT
BRANCH   2  16
ATOM     16  C   UNL     1       3.636  -4.857  -2.466  0.00  0.00    -0.018 A 
ATOM     17  C   UNL     1       4.664  -4.997  -1.552  0.00  0.00    +0.055 A 
ATOM     18  C   UNL     1       5.980  -4.850  -1.961  0.00  0.00    +0.163 A 
ATOM     19  C   UNL     1       6.263  -4.563  -3.293  0.00  0.00    +0.173 A 
ATOM     20  C   UNL     1       5.229  -4.425  -4.204  0.00  0.00    +0.063 A 
ATOM     21  C   UNL     1       3.917  -4.577  -3.790  0.00  0.00    +0.025 A 
ATOM     22 BR   UNL     1       5.609  -4.034  -6.015  0.00  0.00    -0.046 Br
BRANCH  19  23
ATOM     23  O   UNL     1       7.553  -4.418  -3.699  0.00  0.00    -0.503 OA
ATOM     24  H   UNL     1       7.968  -5.240  -3.994  0.00  0.00    +0.292 HD
ENDBRANCH  19  23
BRANCH  18  25
ATOM     25  O   UNL     1       6.992  -4.987  -1.063  0.00  0.00    -0.491 OA
ATOM     26  C   UNL     1       6.626  -5.281   0.287  0.00  0.00    +0.277 C 
ENDBRANCH  18  25
ENDBRANCH   2  16
BRANCH   1  27
ATOM     27  C   UNL     1       1.484  -2.563  -2.572  0.00  0.00    +0.090 C 
BRANCH  27  28
ATOM     28  C   UNL     1       0.646  -2.063  -1.393  0.00  0.00    -0.060 C 
BRANCH  28  29
ATOM     29  N   UNL     1       0.874  -0.624  -1.207  0.00  0.00    +0.380 N 
ATOM     30  H   UNL     1       1.863  -0.451  -1.102  0.00  0.00    -0.082 HD
BRANCH  29  32
ATOM     31  C   UNL     1       0.718   1.591  -2.240  0.00  0.00    -0.017 C 
ATOM     32  C   UNL     1       0.370   0.108  -2.377  0.00  0.00    -0.082 C 
ENDBRANCH  29  32
BRANCH  29  33
ATOM     33  C   UNL     1       0.167  -0.168  -0.002  0.00  0.00    -0.082 C 
ATOM     34  C   UNL     1       0.798  -0.812   1.234  0.00  0.00    -0.017 C 
ENDBRANCH  29  33
ENDBRANCH  28  29
ENDBRANCH  27  28
ENDBRANCH   1  27
TORSDOF 8
