REMARK  Name = ZINC01856207
REMARK  10 active torsions:
REMARK  status: ('A' for Active; 'I' for Inactive)
REMARK    1  A    between atoms: C_4  and  S_26
REMARK    2  A    between atoms: C_5  and  C_24
REMARK    3  A    between atoms: C_6  and  C_19
REMARK    4  A    between atoms: C_8  and  C_10
REMARK    5  A    between atoms: N_12  and  C_13
REMARK    6  A    between atoms: S_26  and  C_27
REMARK    7  A    between atoms: C_27  and  C_28
REMARK    8  A    between atoms: N_30  and  C_31
REMARK    9  A    between atoms: C_34  and  O_37
REMARK   10  A    between atoms: O_37  and  C_38
REMARK                            x       y       z     vdW  Elec       q    Type
REMARK                         _______ _______ _______ _____ _____    ______ ____
ROOT
ATOM      1  C   UNL     1       5.109  -5.576  -9.346  0.00  0.00    +0.034 C 
ATOM      2  C   UNL     1       5.316  -4.131  -9.722  0.00  0.00    +0.048 C 
ATOM      3  N   UNL     1       4.627  -3.218  -9.130  0.00  0.00    -0.248 NA
ATOM      4  C   UNL     1       4.767  -1.901  -9.434  0.00  0.00    +0.092 C 
ATOM      5  C   UNL     1       5.345  -1.517 -10.610  0.00  0.00    +0.155 C 
ATOM      6  C   UNL     1       5.830  -2.567 -11.578  0.00  0.00    +0.067 C 
ATOM      7  C   UNL     1       6.317  -3.783 -10.790  0.00  0.00    +0.133 C 
ENDROOT
BRANCH   6   8
ATOM      8  C   UNL     1       4.699  -2.979 -12.484  0.00  0.00    -0.004 A 
ATOM      9  C   UNL     1       4.614  -2.897 -13.835  0.00  0.00    +0.011 A 
ATOM     10  C   UNL     1       3.465  -3.342 -14.462  0.00  0.00    +0.008 A 
ATOM     11  C   UNL     1       2.458  -3.847 -13.709  0.00  0.00    +0.045 A 
ATOM     12  S   UNL     1       3.126  -3.709 -12.059  0.00  0.00    -0.101 S 
ENDBRANCH   6   8
BRANCH   7  13
ATOM     13  C   UNL     1       7.641  -3.460 -10.146  0.00  0.00    +0.227 C 
ATOM     14  O   UNL     1       8.140  -2.366 -10.302  0.00  0.00    -0.275 OA
ATOM     15  N   UNL     1       8.269  -4.387  -9.396  0.00  0.00    -0.285 N 
ATOM     16  H   UNL     1       7.908  -5.285  -9.332  0.00  0.00    +0.155 HD
BRANCH  15  17
ATOM     17  C   UNL     1       9.442  -4.054  -8.710  0.00  0.00    +0.033 A 
ATOM     18  C   UNL     1      10.433  -5.009  -8.523  0.00  0.00    +0.023 A 
ATOM     19  C   UNL     1      11.592  -4.677  -7.849  0.00  0.00    +0.002 A 
ATOM     20  C   UNL     1      11.762  -3.397  -7.353  0.00  0.00    +0.000 A 
ATOM     21  C   UNL     1      10.775  -2.446  -7.534  0.00  0.00    +0.002 A 
ATOM     22  C   UNL     1       9.616  -2.771  -8.211  0.00  0.00    +0.023 A 
ENDBRANCH  15  17
ENDBRANCH   7  13
BRANCH   5  23
ATOM     23  C   UNL     1       5.489  -0.127 -10.922  0.00  0.00    +0.073 C 
ATOM     24  N   UNL     1       5.603   0.976 -11.170  0.00  0.00    -0.196 NA
ENDBRANCH   5  23
BRANCH   4  25
ATOM     25  S   UNL     1       4.198  -0.678  -8.300  0.00  0.00    -0.100 S 
BRANCH  25  26
ATOM     26  C   UNL     1       3.549  -1.744  -6.988  0.00  0.00    +0.171 C 
BRANCH  26  27
ATOM     27  C   UNL     1       2.993  -0.890  -5.878  0.00  0.00    +0.227 C 
ATOM     28  O   UNL     1       3.031   0.319  -5.964  0.00  0.00    -0.275 OA
ATOM     29  N   UNL     1       2.452  -1.471  -4.788  0.00  0.00    -0.285 N 
ATOM     30  H   UNL     1       2.488  -2.435  -4.684  0.00  0.00    +0.155 HD
BRANCH  29  31
ATOM     31  C   UNL     1       1.839  -0.683  -3.805  0.00  0.00    +0.034 A 
ATOM     32  C   UNL     1       1.173   0.481  -4.165  0.00  0.00    +0.027 A 
ATOM     33  C   UNL     1       0.568   1.258  -3.196  0.00  0.00    +0.047 A 
ATOM     34  C   UNL     1       0.626   0.875  -1.864  0.00  0.00    +0.120 A 
ATOM     35  C   UNL     1       1.296  -0.285  -1.504  0.00  0.00    +0.047 A 
ATOM     36  C   UNL     1       1.896  -1.065  -2.472  0.00  0.00    +0.027 A 
BRANCH  34  37
ATOM     37  O   UNL     1       0.030   1.640  -0.911  0.00  0.00    -0.495 OA
ATOM     38  C   UNL     1       0.129   1.185   0.441  0.00  0.00    +0.277 C 
ENDBRANCH  34  37
ENDBRANCH  29  31
ENDBRANCH  26  27
ENDBRANCH  25  26
ENDBRANCH   4  25
TORSDOF 9
