REMARK  Name = ZINC38850175
REMARK  12 active torsions:
REMARK  status: ('A' for Active; 'I' for Inactive)
REMARK    1  A    between atoms: C_1  and  C_2
REMARK    2  A    between atoms: N_11  and  C_12
REMARK    3  A    between atoms: C_12  and  C_13
REMARK    4  A    between atoms: C_13  and  C_14
REMARK    5  A    between atoms: C_14  and  N_15
REMARK    6  A    between atoms: N_15  and  C_16
REMARK    7  A    between atoms: N_15  and  C_17
REMARK    8  A    between atoms: C_18  and  C_20
REMARK    9  A    between atoms: C_23  and  S_26
REMARK   10  A    between atoms: S_26  and  N_29
REMARK   11  A    between atoms: N_29  and  C_30
REMARK   12  A    between atoms: N_29  and  C_31
REMARK                            x       y       z     vdW  Elec       q    Type
REMARK                         _______ _______ _______ _____ _____    ______ ____
ROOT
ATOM      1  C   UNL     1       0.239  -3.772   0.700  0.00  0.00    +0.046 C 
ATOM      2  C   UNL     1      -1.062  -3.011   0.711  0.00  0.00    -0.024 A 
ATOM      3  C   UNL     1      -1.905  -3.095  -0.367  0.00  0.00    +0.007 A 
ATOM      4  C   UNL     1      -3.111  -2.412  -0.398  0.00  0.00    +0.021 A 
ATOM      5  C   UNL     1      -3.474  -1.627   0.682  0.00  0.00    +0.057 A 
ATOM      6  C   UNL     1      -2.635  -1.537   1.766  0.00  0.00    +0.059 A 
ATOM      7  C   UNL     1      -1.401  -2.223   1.835  0.00  0.00    +0.085 A 
ATOM      8  N   UNL     1      -0.692  -2.039   2.969  0.00  0.00    -0.224 NA
ATOM      9  C   UNL     1      -1.115  -1.276   3.950  0.00  0.00    +0.168 A 
ATOM     10  S   UNL     1      -2.680  -0.682   3.323  0.00  0.00    -0.050 S 
ATOM     11  N   UNL     1      -0.502  -0.997   5.159  0.00  0.00    -0.246 N 
ATOM     12  C   UNL     1      -0.074   0.254   5.425  0.00  0.00    +0.252 C 
ATOM     13  O   UNL     1       0.539   0.482   6.449  0.00  0.00    -0.270 OA
ATOM     14 CL   UNL     1      -4.978  -0.760   0.668  0.00  0.00    -0.082 Cl
ENDROOT
BRANCH  12  15
ATOM     15  C   UNL     1      -0.351   1.347   4.470  0.00  0.00    +0.037 A 
ATOM     16  C   UNL     1      -0.369   1.093   3.098  0.00  0.00    +0.015 A 
ATOM     17  C   UNL     1      -0.628   2.118   2.212  0.00  0.00    +0.029 A 
ATOM     18  C   UNL     1      -0.870   3.397   2.682  0.00  0.00    +0.106 A 
ATOM     19  C   UNL     1      -0.854   3.657   4.041  0.00  0.00    +0.029 A 
ATOM     20  C   UNL     1      -0.602   2.639   4.937  0.00  0.00    +0.015 A 
BRANCH  18  21
ATOM     21  S   UNL     1      -1.199   4.701   1.544  0.00  0.00    +0.061 S 
ATOM     22  O   UNL     1      -0.854   5.912   2.202  0.00  0.00    -0.153 OA
ATOM     23  O   UNL     1      -0.619   4.316   0.305  0.00  0.00    -0.153 OA
BRANCH  21  24
ATOM     24  N   UNL     1      -2.838   4.742   1.307  0.00  0.00    -0.177 NA
ATOM     25  C   UNL     1      -3.682   5.574   2.168  0.00  0.00    +0.132 C 
BRANCH  24  26
ATOM     26  C   UNL     1      -3.443   3.947   0.235  0.00  0.00    +0.080 C 
ATOM     27  C   UNL     1      -4.925   4.179  -0.065  0.00  0.00    +0.022 C 
ATOM     28  C   UNL     1      -4.478   2.894   0.636  0.00  0.00    +0.022 C 
ENDBRANCH  24  26
ENDBRANCH  21  24
ENDBRANCH  18  21
ENDBRANCH  12  15
BRANCH  11  29
ATOM     29  C   UNL     1      -0.317  -2.060   6.150  0.00  0.00    +0.114 C 
BRANCH  29  30
ATOM     30  C   UNL     1       1.030  -2.746   5.917  0.00  0.00    +0.001 C 
BRANCH  30  31
ATOM     31  C   UNL     1       1.223  -3.856   6.952  0.00  0.00    -0.078 C 
BRANCH  31  32
ATOM     32  N   UNL     1       2.517  -4.515   6.728  0.00  0.00    +0.376 N 
ATOM     33  C   UNL     1       3.603  -3.558   6.978  0.00  0.00    -0.097 C 
ATOM     34  C   UNL     1       2.650  -5.656   7.643  0.00  0.00    -0.097 C 
ATOM     35  H   UNL     1       2.568  -4.840   5.775  0.00  0.00    -0.083 HD
ENDBRANCH  31  32
ENDBRANCH  30  31
ENDBRANCH  29  30
ENDBRANCH  11  29
TORSDOF 8
