REMARK  Name = ZINC58093976
REMARK  8 active torsions:
REMARK  status: ('A' for Active; 'I' for Inactive)
REMARK    1  A    between atoms: C_1  and  C_2
REMARK    2  A    between atoms: C_2  and  C_3
REMARK    3  A    between atoms: C_5  and  C_15
REMARK    4  A    between atoms: C_9  and  C_13
REMARK    5  A    between atoms: C_9  and  C_14
REMARK    6  A    between atoms: C_15  and  C_17
REMARK    7  A    between atoms: C_15  and  N_24
REMARK    8  A    between atoms: C_20  and  C_23
REMARK                            x       y       z     vdW  Elec       q    Type
REMARK                         _______ _______ _______ _____ _____    ______ ____
ROOT
ATOM      1  C   UNL     1       0.707  -0.490  -1.238  0.00  0.00    -0.047 A 
ATOM      2  C   UNL     1      -0.009  -0.719  -2.398  0.00  0.00    +0.007 A 
ATOM      3  C   UNL     1       0.630  -1.164  -3.537  0.00  0.00    -0.036 A 
ATOM      4  C   UNL     1       2.006  -1.386  -3.525  0.00  0.00    +0.039 A 
ATOM      5  C   UNL     1       2.715  -1.151  -2.353  0.00  0.00    -0.011 A 
ATOM      6  C   UNL     1       2.075  -0.703  -1.220  0.00  0.00    +0.010 A 
ATOM      7  C   UNL     1       4.159  -1.479  -2.657  0.00  0.00    +0.068 C 
ATOM      8  C   UNL     1       4.141  -1.909  -4.108  0.00  0.00    +0.227 C 
ATOM      9  O   UNL     1       5.097  -2.262  -4.767  0.00  0.00    -0.275 OA
ATOM     10  N   UNL     1       2.868  -1.827  -4.530  0.00  0.00    -0.284 N 
ATOM     11  C   UNL     1       4.649  -2.621  -1.764  0.00  0.00    +0.025 C 
ATOM     12  C   UNL     1       5.039  -0.240  -2.476  0.00  0.00    +0.025 C 
ATOM     13  H   UNL     1       2.581  -2.049  -5.429  0.00  0.00    +0.155 HD
ENDROOT
BRANCH   1  15
ATOM     14  C   UNL     1      -0.019   1.526   0.010  0.00  0.00    +0.009 C 
ATOM     15  C   UNL     1       0.002  -0.004   0.002  0.00  0.00    +0.032 C 
ENDBRANCH   1  15
BRANCH   3  16
ATOM     16  C   UNL     1      -0.160  -1.411  -4.796  0.00  0.00    -0.011 C 
BRANCH  16  17
ATOM     17  C   UNL     1      -0.539  -2.868  -4.873  0.00  0.00    -0.058 A 
ATOM     18  C   UNL     1      -1.618  -3.341  -4.150  0.00  0.00    +0.002 A 
ATOM     19  C   UNL     1      -1.965  -4.677  -4.221  0.00  0.00    +0.003 A 
ATOM     20  C   UNL     1      -1.234  -5.540  -5.015  0.00  0.00    -0.050 A 
ATOM     21  C   UNL     1      -0.155  -5.067  -5.739  0.00  0.00    +0.003 A 
ATOM     22  C   UNL     1       0.189  -3.730  -5.671  0.00  0.00    +0.002 A 
ATOM     23  C   UNL     1      -1.612  -6.997  -5.092  0.00  0.00    +0.044 C 
ENDBRANCH  16  17
BRANCH  16  24
ATOM     24  N   UNL     1      -1.377  -0.589  -4.779  0.00  0.00    +0.385 N 
ATOM     25  H   UNL     1      -1.124   0.386  -4.727  0.00  0.00    -0.089 HD
ATOM     26  H   UNL     1      -1.907  -0.754  -5.622  0.00  0.00    -0.089 HD
ATOM     27  H   UNL     1      -1.938  -0.834  -3.976  0.00  0.00    -0.089 HD
ENDBRANCH  16  24
ENDBRANCH   3  16
TORSDOF 4
