REMARK  Name = ZINC67102459
REMARK  8 active torsions:
REMARK  status: ('A' for Active; 'I' for Inactive)
REMARK    1  A    between atoms: C_1  and  C_2
REMARK    2  A    between atoms: C_6  and  C_7
REMARK    3  A    between atoms: N_9  and  N_10
REMARK    4  A    between atoms: N_13  and  C_14
REMARK    5  A    between atoms: C_14  and  C_15
REMARK    6  A    between atoms: C_15  and  C_16
REMARK    7  A    between atoms: C_19  and  S_22
REMARK    8  A    between atoms: S_22  and  N_25
REMARK                            x       y       z     vdW  Elec       q    Type
REMARK                         _______ _______ _______ _____ _____    ______ ____
ROOT
ATOM      1  N   UNL     1       0.058  -0.732   4.900  0.00  0.00    -0.218 N 
ATOM      2  C   UNL     1       0.080  -1.625   5.909  0.00  0.00    +0.316 C 
ATOM      3  O   UNL     1       0.086  -1.239   7.062  0.00  0.00    -0.251 OA
ATOM      4  N   UNL     1       0.096  -2.945   5.640  0.00  0.00    -0.298 N 
ATOM      5  H   UNL     1       0.047   0.219   5.094  0.00  0.00    +0.174 HD
ATOM      6  H   UNL     1       0.091  -3.253   4.720  0.00  0.00    +0.150 HD
ENDROOT
BRANCH   1   9
ATOM      7  C   UNL     1       0.030  -0.283   2.562  0.00  0.00    +0.267 C 
ATOM      8  O   UNL     1       0.016   0.910   2.805  0.00  0.00    -0.268 OA
ATOM      9  N   UNL     1       0.052  -1.176   3.571  0.00  0.00    -0.229 N 
ATOM     10  H   UNL     1       0.063  -2.126   3.378  0.00  0.00    +0.173 HD
BRANCH   7  16
ATOM     11  C   UNL     1      -0.018   1.503   0.010  0.00  0.00    +0.045 C 
ATOM     12  C   UNL     1       0.002  -0.004   0.002  0.00  0.00    -0.031 A 
ATOM     13  C   UNL     1       0.007  -0.729  -1.166  0.00  0.00    +0.011 A 
ATOM     14  C   UNL     1       0.026  -2.083  -1.101  0.00  0.00    +0.046 A 
ATOM     15  S   UNL     1       0.038  -2.416   0.545  0.00  0.00    -0.092 S 
ATOM     16  C   UNL     1       0.023  -0.748   1.172  0.00  0.00    +0.078 A 
ENDBRANCH   7  16
ENDBRANCH   1   9
BRANCH   4  17
ATOM     17  C   UNL     1       0.119  -3.916   6.737  0.00  0.00    +0.110 C 
BRANCH  17  18
ATOM     18  C   UNL     1       0.133  -5.334   6.163  0.00  0.00    +0.054 C 
BRANCH  18  19
ATOM     19  C   UNL     1       0.157  -6.333   7.291  0.00  0.00    -0.046 A 
ATOM     20  C   UNL     1       1.365  -6.770   7.801  0.00  0.00    +0.005 A 
ATOM     21  C   UNL     1       1.388  -7.686   8.836  0.00  0.00    +0.029 A 
ATOM     22  C   UNL     1       0.202  -8.165   9.361  0.00  0.00    +0.105 A 
ATOM     23  C   UNL     1      -1.006  -7.726   8.852  0.00  0.00    +0.029 A 
ATOM     24  C   UNL     1      -1.029  -6.807   7.820  0.00  0.00    +0.005 A 
BRANCH  22  25
ATOM     25  S   UNL     1       0.230  -9.333  10.680  0.00  0.00    +0.056 S 
ATOM     26  O   UNL     1      -1.004 -10.035  10.627  0.00  0.00    -0.153 OA
ATOM     27  O   UNL     1       1.486  -9.994  10.610  0.00  0.00    -0.153 OA
BRANCH  25  28
ATOM     28  N   UNL     1       0.226  -8.474  12.096  0.00  0.00    -0.204 NA
ATOM     29  H   UNL     1      -0.183  -8.851  12.890  0.00  0.00    +0.144 HD
ATOM     30  H   UNL     1       0.631  -7.594  12.130  0.00  0.00    +0.144 HD
ENDBRANCH  25  28
ENDBRANCH  22  25
ENDBRANCH  18  19
ENDBRANCH  17  18
ENDBRANCH   4  17
TORSDOF 7
