REMARK  Name = ZINC22805459
REMARK  7 active torsions:
REMARK  status: ('A' for Active; 'I' for Inactive)
REMARK    1  A    between atoms: C_1  and  N_2
REMARK    2  A    between atoms: C_3  and  C_5
REMARK    3  A    between atoms: C_5  and  N_6
REMARK    4  A    between atoms: N_9  and  C_12
REMARK    5  A    between atoms: C_12  and  C_13
REMARK    6  A    between atoms: C_16  and  C_32
REMARK    7  A    between atoms: C_24  and  C_25
REMARK                            x       y       z     vdW  Elec       q    Type
REMARK                         _______ _______ _______ _____ _____    ______ ____
ROOT
ATOM      1  C   UNL     1       2.960   3.695  -0.082  0.00  0.00    +0.249 C 
ATOM      2  O   UNL     1       3.795   2.816  -0.091  0.00  0.00    -0.272 OA
ATOM      3  N   UNL     1       3.341   4.987  -0.021  0.00  0.00    -0.183 N 
ATOM      4  C   UNL     1       4.735   5.482   0.046  0.00  0.00    +0.147 C 
ATOM      5  C   UNL     1       4.537   6.890   0.630  0.00  0.00    +0.067 C 
ATOM      6  C   UNL     1       5.419   7.925  -0.072  0.00  0.00    +0.012 C 
ATOM      7  C   UNL     1       5.031   9.311   0.437  0.00  0.00    +0.005 C 
ATOM      8  C   UNL     1       3.600   9.693   0.117  0.00  0.00    +0.037 C 
ATOM      9  C   UNL     1       2.640   8.542   0.120  0.00  0.00    -0.023 C 
ATOM     10  C   UNL     1       1.310   8.781   0.034  0.00  0.00    +0.020 C 
ATOM     11  C   UNL     1       3.104   7.212   0.212  0.00  0.00    +0.068 C 
ATOM     12  N   UNL     1       2.491   6.099  -0.004  0.00  0.00    -0.181 NA
ENDROOT
BRANCH  10  13
ATOM     13  C   UNL     1       0.819  10.155  -0.061  0.00  0.00    +0.012 A 
ATOM     14  C   UNL     1      -0.486  10.612  -0.162  0.00  0.00    +0.015 A 
ATOM     15  C   UNL     1      -0.698  11.968  -0.236  0.00  0.00    +0.008 A 
ATOM     16  C   UNL     1       0.368  12.811  -0.218  0.00  0.00    +0.046 A 
ATOM     17  S   UNL     1       1.744  11.682  -0.085  0.00  0.00    -0.097 S 
ENDBRANCH  10  13
BRANCH   4  18
ATOM     18  C   UNL     1       5.350   5.552  -1.328  0.00  0.00    +0.013 A 
ATOM     19  C   UNL     1       6.616   5.257  -1.712  0.00  0.00    +0.013 A 
ATOM     20  C   UNL     1       6.962   5.396  -3.043  0.00  0.00    +0.008 A 
ATOM     21  C   UNL     1       6.026   5.824  -3.925  0.00  0.00    +0.045 A 
ATOM     22  S   UNL     1       4.599   6.039  -2.873  0.00  0.00    -0.100 S 
ENDBRANCH   4  18
BRANCH   1  23
ATOM     23  C   UNL     1       1.495   3.345  -0.140  0.00  0.00    +0.182 C 
BRANCH  23  27
ATOM     24  N   UNL     1       0.363  -0.534  -1.372  0.00  0.00    +0.387 N 
ATOM     25  C   UNL     1       1.766  -0.136  -1.554  0.00  0.00    -0.063 C 
ATOM     26  C   UNL     1       1.868   1.391  -1.521  0.00  0.00    +0.066 C 
ATOM     27  N   UNL     1       1.344   1.887  -0.241  0.00  0.00    -0.298 NA
ATOM     28  C   UNL     1      -0.059   1.489  -0.060  0.00  0.00    +0.066 C 
ATOM     29  C   UNL     1      -0.161  -0.038  -0.092  0.00  0.00    -0.063 C 
ATOM     30  H   UNL     1      -0.227  -0.078  -2.181  0.00  0.00    -0.081 HD
BRANCH  24  31
ATOM     31  C   UNL     1       0.212  -1.992  -1.473  0.00  0.00    +0.019 C 
BRANCH  31  34
ATOM     32  C   UNL     1       0.900  -4.177  -4.540  0.00  0.00    +0.128 C 
ATOM     33  N   UNL     1       0.590  -3.748  -3.174  0.00  0.00    -0.320 N 
ATOM     34  C   UNL     1       0.531  -2.434  -2.878  0.00  0.00    +0.196 C 
ATOM     35  O   UNL     1       0.736  -1.608  -3.742  0.00  0.00    -0.278 OA
ATOM     36  H   UNL     1       0.405  -4.497  -2.391  0.00  0.00    +0.148 HD
ENDBRANCH  31  34
ENDBRANCH  24  31
ENDBRANCH  23  27
ENDBRANCH   1  23
TORSDOF 6
