REMARK  Name = ZINC40688460
REMARK  7 active torsions:
REMARK  status: ('A' for Active; 'I' for Inactive)
REMARK    1  A    between atoms: C_1  and  C_2
REMARK    2  A    between atoms: C_2  and  C_3
REMARK    3  A    between atoms: C_6  and  N_9
REMARK    4  A    between atoms: C_11  and  N_24
REMARK    5  A    between atoms: C_12  and  N_16
REMARK    6  A    between atoms: N_16  and  N_17
REMARK    7  A    between atoms: N_17  and  C_18
REMARK                            x       y       z     vdW  Elec       q    Type
REMARK                         _______ _______ _______ _____ _____    ______ ____
ROOT
ATOM      1  N   UNL     1      -5.319  -1.968   0.042  0.00  0.00    -0.299 N 
ATOM      2  C   UNL     1      -6.017  -2.109  -1.152  0.00  0.00    +0.126 A 
ATOM      3  C   UNL     1      -7.361  -2.486  -1.147  0.00  0.00    +0.105 A 
ATOM      4  C   UNL     1      -8.014  -2.613  -2.374  0.00  0.00    +0.161 A 
ATOM      5  N   UNL     1      -7.336  -2.371  -3.494  0.00  0.00    -0.219 NA
ATOM      6  C   UNL     1      -6.068  -2.016  -3.454  0.00  0.00    +0.200 A 
ATOM      7  N   UNL     1      -5.415  -1.881  -2.317  0.00  0.00    -0.333 N 
ATOM      8  H   UNL     1      -5.785  -2.045   0.889  0.00  0.00    +0.154 HD
ATOM      9  H   UNL     1      -4.483  -1.614  -2.330  0.00  0.00    +0.168 HD
ENDROOT
BRANCH   1  13
ATOM     10  C   UNL     1      -1.223  -1.213  -0.016  0.00  0.00    -0.048 A 
ATOM     11  C   UNL     1      -2.032  -0.561   0.897  0.00  0.00    +0.005 A 
ATOM     12  C   UNL     1      -3.391  -0.809   0.919  0.00  0.00    +0.023 A 
ATOM     13  C   UNL     1      -3.944  -1.714   0.023  0.00  0.00    +0.032 A 
ATOM     14  C   UNL     1      -3.129  -2.367  -0.893  0.00  0.00    +0.023 A 
ATOM     15  C   UNL     1      -1.772  -2.111  -0.913  0.00  0.00    +0.005 A 
BRANCH  10  17
ATOM     16  C   UNL     1       0.549   0.224  -0.986  0.00  0.00    +0.009 C 
ATOM     17  C   UNL     1       0.259  -0.940  -0.036  0.00  0.00    +0.032 C 
ENDBRANCH  10  17
ENDBRANCH   1  13
BRANCH   3  18
ATOM     18  N   UNL     1      -8.037  -2.732   0.059  0.00  0.00    -0.353 N 
ATOM     19  H   UNL     1      -7.569  -2.640   0.904  0.00  0.00    +0.143 HD
ATOM     20  H   UNL     1      -8.970  -2.994   0.047  0.00  0.00    +0.143 HD
ENDBRANCH   3  18
BRANCH   4  21
ATOM     21  N   UNL     1      -9.352  -2.986  -2.426  0.00  0.00    -0.249 N 
ATOM     22  H   UNL     1      -9.839  -3.161  -1.605  0.00  0.00    +0.172 HD
BRANCH  21  23
ATOM     23  N   UNL     1      -9.997  -3.110  -3.663  0.00  0.00    -0.265 N 
ATOM     24  H   UNL     1      -9.510  -2.935  -4.484  0.00  0.00    +0.170 HD
BRANCH  23  25
ATOM     25  C   UNL     1     -11.341  -3.485  -3.716  0.00  0.00    +0.044 A 
ATOM     26  C   UNL     1     -12.042  -3.731  -2.541  0.00  0.00    +0.024 A 
ATOM     27  C   UNL     1     -13.371  -4.101  -2.596  0.00  0.00    +0.002 A 
ATOM     28  C   UNL     1     -14.005  -4.229  -3.819  0.00  0.00    +0.000 A 
ATOM     29  C   UNL     1     -13.311  -3.986  -4.990  0.00  0.00    +0.002 A 
ATOM     30  C   UNL     1     -11.983  -3.609  -4.941  0.00  0.00    +0.024 A 
ENDBRANCH  23  25
ENDBRANCH  21  23
ENDBRANCH   4  21
TORSDOF 6
