REMARK  Name = ZINC36028079
REMARK  8 active torsions:
REMARK  status: ('A' for Active; 'I' for Inactive)
REMARK    1  A    between atoms: C_1  and  C_2
REMARK    2  A    between atoms: C_2  and  C_3
REMARK    3  A    between atoms: C_3  and  C_5
REMARK    4  A    between atoms: C_3  and  C_6
REMARK    5  A    between atoms: N_10  and  C_29
REMARK    6  A    between atoms: N_15  and  S_18
REMARK    7  A    between atoms: S_18  and  C_21
REMARK    8  A    between atoms: C_29  and  C_30
REMARK                            x       y       z     vdW  Elec       q    Type
REMARK                         _______ _______ _______ _____ _____    ______ ____
ROOT
ATOM      1  C   UNL     1       0.929  -1.961  -1.261  0.00  0.00    +0.022 C 
ATOM      2  C   UNL     1       1.832  -2.320  -0.101  0.00  0.00    +0.201 C 
ATOM      3  O   UNL     1       1.881  -1.743   0.965  0.00  0.00    -0.277 OA
ATOM      4  N   UNL     1       2.574  -3.392  -0.451  0.00  0.00    -0.306 N 
ATOM      5  C   UNL     1       2.223  -3.804  -1.813  0.00  0.00    +0.006 C 
ATOM      6  N   UNL     1       1.514  -2.661  -2.430  0.00  0.00    +0.401 N 
ATOM      7  C   UNL     1       1.300  -5.021  -1.774  0.00  0.00    +0.023 C 
ATOM      8  C   UNL     1       2.026  -6.189  -1.098  0.00  0.00    +0.109 C 
ATOM      9  N   UNL     1       3.305  -6.412  -1.787  0.00  0.00    -0.177 NA
ATOM     10  C   UNL     1       4.231  -5.282  -1.942  0.00  0.00    +0.109 C 
ATOM     11  C   UNL     1       3.486  -4.122  -2.611  0.00  0.00    +0.023 C 
ATOM     12  H   UNL     1       0.788  -2.984  -3.052  0.00  0.00    -0.082 HD
ATOM     13  H   UNL     1       2.163  -2.061  -2.917  0.00  0.00    -0.082 HD
ENDROOT
BRANCH   9  14
ATOM     14  S   UNL     1       3.695  -7.909  -2.377  0.00  0.00    +0.061 S 
ATOM     15  O   UNL     1       5.113  -7.957  -2.456  0.00  0.00    -0.153 OA
ATOM     16  O   UNL     1       2.942  -8.851  -1.625  0.00  0.00    -0.153 OA
BRANCH  14  17
ATOM     17  C   UNL     1       3.095  -7.989  -4.032  0.00  0.00    +0.107 A 
ATOM     18  C   UNL     1       1.814  -8.445  -4.280  0.00  0.00    +0.030 A 
ATOM     19  C   UNL     1       1.342  -8.509  -5.578  0.00  0.00    +0.023 A 
ATOM     20  C   UNL     1       2.152  -8.117  -6.628  0.00  0.00    +0.059 A 
ATOM     21  C   UNL     1       3.435  -7.660  -6.379  0.00  0.00    +0.061 A 
ATOM     22  C   UNL     1       3.904  -7.592  -5.079  0.00  0.00    +0.050 A 
ATOM     23 CL   UNL     1       4.453  -7.168  -7.697  0.00  0.00    -0.082 Cl
ATOM     24 CL   UNL     1       1.560  -8.198  -8.258  0.00  0.00    -0.082 Cl
ENDBRANCH  14  17
ENDBRANCH   9  14
BRANCH   1  25
ATOM     25  C   UNL     1       0.932  -0.448  -1.490  0.00  0.00    -0.020 C 
ATOM     26  C   UNL     1       0.073  -0.115  -2.711  0.00  0.00    +0.006 C 
BRANCH  25  28
ATOM     27  C   UNL     1       0.479   1.770  -0.434  0.00  0.00    +0.004 C 
ATOM     28  C   UNL     1       0.361   0.255  -0.257  0.00  0.00    -0.001 C 
ENDBRANCH  25  28
ENDBRANCH   1  25
BRANCH   4  29
ATOM     29  C   UNL     1       3.575  -4.041   0.398  0.00  0.00    +0.180 C 
BRANCH  29  30
ATOM     30  C   UNL     1       4.895  -3.330   0.252  0.00  0.00    +0.122 A 
ATOM     31  C   UNL     1       5.364  -2.366   1.065  0.00  0.00    +0.046 A 
ATOM     32  C   UNL     1       6.629  -1.985   0.561  0.00  0.00    +0.041 A 
ATOM     33  C   UNL     1       6.857  -2.738  -0.530  0.00  0.00    +0.195 A 
ATOM     34  O   UNL     1       5.806  -3.555  -0.709  0.00  0.00    -0.466 OA
ENDBRANCH  29  30
ENDBRANCH   4  29
TORSDOF 6
