REMARK  Name = ZINC43126395
REMARK  8 active torsions:
REMARK  status: ('A' for Active; 'I' for Inactive)
REMARK    1  A    between atoms: C_1  and  C_2
REMARK    2  A    between atoms: C_2  and  C_3
REMARK    3  A    between atoms: C_3  and  C_5
REMARK    4  A    between atoms: C_3  and  N_21
REMARK    5  A    between atoms: C_5  and  C_7
REMARK    6  A    between atoms: C_5  and  S_12
REMARK    7  A    between atoms: S_12  and  C_13
REMARK    8  A    between atoms: C_17  and  N_19
REMARK                            x       y       z     vdW  Elec       q    Type
REMARK                         _______ _______ _______ _____ _____    ______ ____
ROOT
ATOM      1  C   UNL     1       0.881  -2.048   1.185  0.00  0.00    +0.070 C 
ENDROOT
BRANCH   1   2
ATOM      2  C   UNL     1       1.636  -2.265  -0.101  0.00  0.00    -0.029 A 
ATOM      3  C   UNL     1       1.112  -3.070  -1.095  0.00  0.00    +0.012 A 
ATOM      4  C   UNL     1       1.816  -3.244  -2.239  0.00  0.00    +0.045 A 
ATOM      5  S   UNL     1       3.269  -2.252  -1.933  0.00  0.00    -0.105 S 
ATOM      6  C   UNL     1       2.836  -1.669  -0.302  0.00  0.00    +0.049 A 
ENDBRANCH   1   2
BRANCH   1   7
ATOM      7  C   UNL     1       0.579  -0.558   1.355  0.00  0.00    -0.057 C 
BRANCH   7   8
ATOM      8  N   UNL     1      -0.079  -0.335   2.649  0.00  0.00    +0.381 N 
ATOM      9  H   UNL     1      -0.899  -0.918   2.714  0.00  0.00    -0.090 HD
ATOM     10  H   UNL     1       0.560  -0.568   3.395  0.00  0.00    -0.090 HD
ATOM     11  H   UNL     1      -0.348   0.634   2.728  0.00  0.00    -0.090 HD
ENDBRANCH   7   8
BRANCH   7  13
ATOM     12  C   UNL     1      -0.546   1.421   0.324  0.00  0.00    +0.002 C 
ATOM     13  C   UNL     1      -0.344  -0.093   0.227  0.00  0.00    -0.018 C 
ENDBRANCH   7  13
ENDBRANCH   1   7
BRANCH   1  14
ATOM     14  S   UNL     1       1.886  -2.624   2.581  0.00  0.00    -0.079 S 
BRANCH  14  15
ATOM     15  C   UNL     1       1.938  -4.373   2.376  0.00  0.00    +0.192 A 
ATOM     16  N   UNL     1       1.224  -4.931   1.409  0.00  0.00    -0.207 NA
ATOM     17  C   UNL     1       1.239  -6.249   1.224  0.00  0.00    +0.122 A 
ATOM     18  C   UNL     1       2.017  -7.042   2.063  0.00  0.00    +0.086 A 
ATOM     19  C   UNL     1       2.753  -6.420   3.068  0.00  0.00    +0.122 A 
ATOM     20  N   UNL     1       2.693  -5.096   3.190  0.00  0.00    -0.207 NA
ATOM     21  N   UNL     1       0.489  -6.824   0.210  0.00  0.00    -0.343 N 
ATOM     22  H   UNL     1      -0.051  -6.266  -0.371  0.00  0.00    +0.144 HD
ATOM     23  H   UNL     1       0.505  -7.786   0.081  0.00  0.00    +0.144 HD
BRANCH  19  24
ATOM     24  N   UNL     1       3.541  -7.170   3.927  0.00  0.00    -0.343 N 
ATOM     25  H   UNL     1       3.583  -8.134   3.830  0.00  0.00    +0.144 HD
ATOM     26  H   UNL     1       4.051  -6.730   4.625  0.00  0.00    +0.144 HD
ENDBRANCH  19  24
ENDBRANCH  14  15
ENDBRANCH   1  14
TORSDOF 7
