REMARK  Name = ZINC34789305
REMARK  3 active torsions:
REMARK  status: ('A' for Active; 'I' for Inactive)
REMARK    1  A    between atoms: C_1  and  C_2
REMARK    2  A    between atoms: C_2  and  N_3
REMARK    3  A    between atoms: C_9  and  C_11
REMARK                            x       y       z     vdW  Elec       q    Type
REMARK                         _______ _______ _______ _____ _____    ______ ____
ROOT
ATOM      1  C   UNL     1       3.423  -4.157  -3.079  0.00  0.00    +0.122 A 
ATOM      2  C   UNL     1       2.918  -4.843  -4.152  0.00  0.00    -0.012 A 
ATOM      3  C   UNL     1       2.917  -6.195  -3.774  0.00  0.00    +0.063 A 
ATOM      4  N   UNL     1       3.391  -6.271  -2.568  0.00  0.00    -0.178 NA
ATOM      5  H   UNL     1       4.079  -4.917  -1.251  0.00  0.00    +0.189 HD
ATOM      6  N   UNL     1       3.704  -5.101  -2.126  0.00  0.00    -0.272 N 
ATOM      7  C   UNL     1       2.420  -7.283  -4.695  0.00  0.00    +0.038 C 
ATOM      8  C   UNL     1       1.615  -6.606  -5.815  0.00  0.00    -0.076 C 
ATOM      9  N   UNL     1       2.396  -5.513  -6.407  0.00  0.00    +0.382 N 
ATOM     10  C   UNL     1       2.443  -4.359  -5.493  0.00  0.00    -0.043 C 
ATOM     11  H   UNL     1       3.336  -5.835  -6.588  0.00  0.00    -0.085 HD
ATOM     12  H   UNL     1       1.970  -5.233  -7.278  0.00  0.00    -0.085 HD
ENDROOT
BRANCH   1  19
ATOM     13  N   UNL     1       0.594  -0.449  -1.418  0.00  0.00    +0.382 N 
ATOM     14  C   UNL     1       1.998  -0.036  -1.288  0.00  0.00    -0.060 C 
ATOM     15  C   UNL     1       2.767  -0.445  -2.549  0.00  0.00    +0.089 C 
ATOM     16  N   UNL     1       2.575  -1.888  -2.765  0.00  0.00    -0.300 N 
ATOM     17  C   UNL     1       1.202  -2.415  -2.746  0.00  0.00    +0.089 C 
ATOM     18  C   UNL     1       0.506  -1.913  -1.477  0.00  0.00    -0.060 C 
ATOM     19  C   UNL     1       3.628  -2.703  -2.974  0.00  0.00    +0.264 C 
ATOM     20  O   UNL     1       4.747  -2.238  -3.076  0.00  0.00    -0.268 OA
ATOM     21  H   UNL     1       0.207  -0.055  -2.263  0.00  0.00    -0.082 HD
BRANCH  13  23
ATOM     22  C   UNL     1      -0.180   1.570  -0.267  0.00  0.00    -0.017 C 
ATOM     23  C   UNL     1      -0.167   0.040  -0.260  0.00  0.00    -0.082 C 
ENDBRANCH  13  23
ENDBRANCH   1  19
TORSDOF 2
