REMARK  Name = ZINC08943696
REMARK  9 active torsions:
REMARK  status: ('A' for Active; 'I' for Inactive)
REMARK    1  A    between atoms: C_1  and  C_2
REMARK    2  A    between atoms: C_2  and  C_4
REMARK    3  A    between atoms: C_7  and  S_10
REMARK    4  A    between atoms: S_10  and  N_13
REMARK    5  A    between atoms: C_18  and  C_19
REMARK    6  A    between atoms: C_18  and  N_64
REMARK    7  A    between atoms: N_21  and  C_22
REMARK    8  A    between atoms: C_27  and  C_28
REMARK    9  A    between atoms: C_28  and  C_29
REMARK                            x       y       z     vdW  Elec       q    Type
REMARK                         _______ _______ _______ _____ _____    ______ ____
ROOT
ATOM      1  N   UNL     1       3.622   3.455   0.774  0.00  0.00    -0.180 NA
ATOM      2  C   UNL     1       2.836   3.924  -0.377  0.00  0.00    +0.091 C 
ATOM      3  C   UNL     1       1.386   3.462  -0.197  0.00  0.00    -0.061 C 
ATOM      4  C   UNL     1       2.061   1.646   1.261  0.00  0.00    -0.061 C 
ATOM      5  C   UNL     1       3.539   2.033   1.141  0.00  0.00    +0.091 C 
ATOM      6  N   UNL     1       1.375   1.996  -0.002  0.00  0.00    +0.387 N 
ATOM      7  H   UNL     1       1.870   1.552  -0.784  0.00  0.00    -0.081 HD
ENDROOT
BRANCH   1   8
ATOM      8  S   UNL     1       4.574   4.501   1.636  0.00  0.00    +0.061 S 
ATOM      9  O   UNL     1       5.578   3.714   2.262  0.00  0.00    -0.153 OA
ATOM     10  O   UNL     1       4.884   5.580   0.765  0.00  0.00    -0.153 OA
BRANCH   8  14
ATOM     11  C   UNL     1       2.013   6.216   4.959  0.00  0.00    +0.017 A 
ATOM     12  C   UNL     1       2.747   5.044   5.171  0.00  0.00    +0.013 A 
ATOM     13  C   UNL     1       3.523   4.529   4.155  0.00  0.00    +0.029 A 
ATOM     14  C   UNL     1       3.578   5.168   2.928  0.00  0.00    +0.106 A 
ATOM     15  C   UNL     1       2.859   6.330   2.713  0.00  0.00    +0.029 A 
ATOM     16  C   UNL     1       2.073   6.856   3.717  0.00  0.00    +0.013 A 
BRANCH  11  18
ATOM     17  C   UNL     1       0.392   8.035   5.806  0.00  0.00    +0.091 C 
ATOM     18  C   UNL     1       1.181   6.772   6.038  0.00  0.00    +0.160 C 
ATOM     19  O   UNL     1       1.130   6.215   7.114  0.00  0.00    -0.292 OA
ENDBRANCH  11  18
ENDBRANCH   8  14
ENDBRANCH   1   8
BRANCH   6  20
ATOM     20  C   UNL     1      -0.017   1.502   0.028  0.00  0.00    +0.019 C 
BRANCH  20  21
ATOM     21  C   UNL     1       0.002  -0.004   0.008  0.00  0.00    +0.201 C 
ATOM     22  O   UNL     1       1.061  -0.597  -0.009  0.00  0.00    -0.278 OA
ATOM     23  N   UNL     1      -1.156  -0.694   0.009  0.00  0.00    -0.287 N 
ATOM     24  H   UNL     1      -2.000  -0.223   0.089  0.00  0.00    +0.155 HD
BRANCH  23  25
ATOM     25  C   UNL     1      -1.140  -2.088  -0.104  0.00  0.00    +0.037 A 
ATOM     26  C   UNL     1      -0.112  -2.822   0.474  0.00  0.00    +0.023 A 
ATOM     27  C   UNL     1      -0.100  -4.198   0.360  0.00  0.00    +0.002 A 
ATOM     28  C   UNL     1      -1.109  -4.846  -0.328  0.00  0.00    +0.000 A 
ATOM     29  C   UNL     1      -2.135  -4.119  -0.904  0.00  0.00    +0.006 A 
ATOM     30  C   UNL     1      -2.156  -2.742  -0.789  0.00  0.00    -0.022 A 
BRANCH  30  31
ATOM     31  C   UNL     1      -3.277  -1.950  -1.412  0.00  0.00    +0.072 C 
BRANCH  31  32
ATOM     32  C   UNL     1      -2.857  -1.475  -2.779  0.00  0.00    -0.043 A 
ATOM     33  C   UNL     1      -2.230  -0.252  -2.923  0.00  0.00    +0.004 A 
ATOM     34  C   UNL     1      -1.841   0.182  -4.177  0.00  0.00    +0.000 A 
ATOM     35  C   UNL     1      -2.088  -0.604  -5.287  0.00  0.00    +0.000 A 
ATOM     36  C   UNL     1      -2.720  -1.824  -5.144  0.00  0.00    +0.000 A 
ATOM     37  C   UNL     1      -3.104  -2.260  -3.889  0.00  0.00    +0.004 A 
ENDBRANCH  31  32
ENDBRANCH  30  31
ENDBRANCH  23  25
ENDBRANCH  20  21
ENDBRANCH   6  20
TORSDOF 8
