REMARK  Name = ZINC08048268
REMARK  11 active torsions:
REMARK  status: ('A' for Active; 'I' for Inactive)
REMARK    1  A    between atoms: C_3  and  C_25
REMARK    2  A    between atoms: C_4  and  O_24
REMARK    3  A    between atoms: C_6  and  O_7
REMARK    4  A    between atoms: O_7  and  C_8
REMARK    5  A    between atoms: C_10  and  O_23
REMARK    6  A    between atoms: C_12  and  O_22
REMARK    7  A    between atoms: C_14  and  O_21
REMARK    8  A    between atoms: C_16  and  C_19
REMARK    9  A    between atoms: C_19  and  O_20
REMARK   10  A    between atoms: C_25  and  C_27
REMARK   11  A    between atoms: C_27  and  C_28
REMARK                            x       y       z     vdW  Elec       q    Type
REMARK                         _______ _______ _______ _____ _____    ______ ____
ROOT
ATOM      1  C   UNL     1      -1.234   2.029   0.019  0.00  0.00    +0.046 A 
ATOM      2  C   UNL     1      -1.266   3.393   0.032  0.00  0.00    +0.018 A 
ATOM      3  C   UNL     1      -0.070   4.123   0.025  0.00  0.00    +0.059 A 
ATOM      4  C   UNL     1       1.162   3.443   0.009  0.00  0.00    +0.131 A 
ATOM      5  C   UNL     1       1.178   2.059   0.002  0.00  0.00    +0.091 A 
ATOM      6  C   UNL     1      -0.016   1.353   0.009  0.00  0.00    +0.128 A 
ENDROOT
BRANCH   4   7
ATOM      7  O   UNL     1       2.325   4.139   0.002  0.00  0.00    -0.506 OA
ATOM      8  H   UNL     1       2.654   4.346  -0.884  0.00  0.00    +0.292 HD
ENDBRANCH   4   7
BRANCH   3   9
ATOM      9  C   UNL     1      -0.101   5.588   0.033  0.00  0.00    +0.172 C 
ATOM     10  O   UNL     1       0.936   6.217   0.026  0.00  0.00    -0.292 OA
BRANCH   9  11
ATOM     11  C   UNL     1      -1.423   6.313   0.049  0.00  0.00    +0.135 C 
BRANCH  11  12
ATOM     12  C   UNL     1      -1.179   7.800   0.054  0.00  0.00    +0.056 A 
ATOM     13  C   UNL     1      -1.732   8.598  -0.894  0.00  0.00    +0.070 A 
ATOM     14  S   UNL     1      -1.111  10.194  -0.383  0.00  0.00    -0.084 S 
ATOM     15  C   UNL     1      -0.201   9.650   0.992  0.00  0.00    +0.156 A 
ATOM     16  N   UNL     1      -0.421   8.356   0.976  0.00  0.00    -0.252 NA
ENDBRANCH  11  12
ENDBRANCH   9  11
ENDBRANCH   3   9
BRANCH   6  17
ATOM     17  O   UNL     1       0.002  -0.004   0.002  0.00  0.00    -0.461 OA
BRANCH  17  18
ATOM     18  C   UNL     1      -1.262  -0.670   0.011  0.00  0.00    +0.339 C 
ATOM     19  C   UNL     1      -1.049  -2.167   0.251  0.00  0.00    +0.214 C 
ATOM     20  C   UNL     1      -2.403  -2.882   0.198  0.00  0.00    +0.180 C 
ATOM     21  C   UNL     1      -3.066  -2.599  -1.153  0.00  0.00    +0.177 C 
ATOM     22  C   UNL     1      -3.201  -1.085  -1.339  0.00  0.00    +0.179 C 
ATOM     23  O   UNL     1      -1.910  -0.478  -1.248  0.00  0.00    -0.331 OA
BRANCH  21  24
ATOM     24  O   UNL     1      -2.260  -3.138  -2.203  0.00  0.00    -0.386 OA
ATOM     25  H   UNL     1      -2.133  -4.095  -2.148  0.00  0.00    +0.210 HD
ENDBRANCH  21  24
BRANCH  20  26
ATOM     26  O   UNL     1      -2.207  -4.290   0.349  0.00  0.00    -0.386 OA
ATOM     27  H   UNL     1      -1.791  -4.542   1.184  0.00  0.00    +0.210 HD
ENDBRANCH  20  26
BRANCH  19  28
ATOM     28  O   UNL     1      -0.454  -2.365   1.534  0.00  0.00    -0.383 OA
ATOM     29  H   UNL     1       0.406  -1.934   1.640  0.00  0.00    +0.210 HD
ENDBRANCH  19  28
BRANCH  22  30
ATOM     30  C   UNL     1      -3.808  -0.791  -2.712  0.00  0.00    +0.190 C 
BRANCH  30  31
ATOM     31  O   UNL     1      -4.041   0.613  -2.840  0.00  0.00    -0.392 OA
ATOM     32  H   UNL     1      -4.426   0.872  -3.688  0.00  0.00    +0.210 HD
ENDBRANCH  30  31
ENDBRANCH  22  30
ENDBRANCH  17  18
ENDBRANCH   6  17
TORSDOF 11
