REMARK  Name = ZINC32821920
REMARK  10 active torsions:
REMARK  status: ('A' for Active; 'I' for Inactive)
REMARK    1  A    between atoms: C_3  and  O_11
REMARK    2  A    between atoms: C_4  and  O_10
REMARK    3  A    between atoms: C_6  and  C_7
REMARK    4  A    between atoms: C_7  and  C_8
REMARK    5  A    between atoms: C_8  and  N_9
REMARK    6  A    between atoms: O_11  and  C_12
REMARK    7  A    between atoms: C_14  and  O_28
REMARK    8  A    between atoms: C_16  and  O_27
REMARK    9  A    between atoms: C_18  and  O_26
REMARK   10  A    between atoms: C_20  and  C_23
REMARK                            x       y       z     vdW  Elec       q    Type
REMARK                         _______ _______ _______ _____ _____    ______ ____
ROOT
ATOM      1  O   UNL     1       3.548   2.113  -0.021  0.00  0.00    -0.457 OA
ENDROOT
BRANCH   1   4
ATOM      2  C   UNL     1      -0.017   1.378   0.010  0.00  0.00    +0.007 A 
ATOM      3  C   UNL     1       1.170   2.089   0.002  0.00  0.00    +0.050 A 
ATOM      4  C   UNL     1       2.380   1.415  -0.013  0.00  0.00    +0.165 A 
ATOM      5  C   UNL     1       2.399   0.024  -0.021  0.00  0.00    +0.159 A 
ATOM      6  C   UNL     1       1.207  -0.682  -0.013  0.00  0.00    +0.052 A 
ATOM      7  C   UNL     1       0.002  -0.004   0.002  0.00  0.00    -0.045 A 
BRANCH   5   8
ATOM      8  O   UNL     1       3.585  -0.642  -0.036  0.00  0.00    -0.503 OA
ATOM      9  H   UNL     1       3.937  -0.839   0.843  0.00  0.00    +0.292 HD
ENDBRANCH   5   8
BRANCH   7  10
ATOM     10  C   UNL     1      -1.294  -0.774   0.010  0.00  0.00    +0.016 C 
BRANCH  10  11
ATOM     11  C   UNL     1      -1.746  -1.026  -1.429  0.00  0.00    -0.082 C 
BRANCH  11  12
ATOM     12  N   UNL     1      -3.009  -1.776  -1.421  0.00  0.00    +0.378 N 
ATOM     13  H   UNL     1      -3.307  -1.943  -2.371  0.00  0.00    -0.090 HD
ATOM     14  H   UNL     1      -2.873  -2.659  -0.952  0.00  0.00    -0.090 HD
ATOM     15  H   UNL     1      -3.714  -1.242  -0.936  0.00  0.00    -0.090 HD
ENDBRANCH  11  12
ENDBRANCH  10  11
ENDBRANCH   7  10
ENDBRANCH   1   4
BRANCH   1  16
ATOM     16  C   UNL     1       3.452   3.539  -0.013  0.00  0.00    +0.340 C 
ATOM     17  C   UNL     1       4.853   4.144   0.102  0.00  0.00    +0.214 C 
ATOM     18  C   UNL     1       5.677   3.740  -1.125  0.00  0.00    +0.180 C 
ATOM     19  C   UNL     1       4.947   4.200  -2.390  0.00  0.00    +0.186 C 
ATOM     20  C   UNL     1       3.542   3.593  -2.409  0.00  0.00    +0.266 C 
ATOM     21  O   UNL     1       2.840   3.982  -1.226  0.00  0.00    -0.322 OA
BRANCH  20  22
ATOM     22  C   UNL     1       2.796   4.088  -3.621  0.00  0.00    +0.387 C 
ATOM     23  O   UNL     1       3.179   3.784  -4.738  0.00  0.00    -0.243 OA
ATOM     24  O   UNL     1       1.810   4.792  -3.485  0.00  0.00    -0.243 OA
ENDBRANCH  20  22
BRANCH  19  25
ATOM     25  O   UNL     1       4.852   5.626  -2.396  0.00  0.00    -0.386 OA
ATOM     26  H   UNL     1       4.400   5.987  -3.170  0.00  0.00    +0.210 HD
ENDBRANCH  19  25
BRANCH  18  27
ATOM     27  O   UNL     1       6.963   4.359  -1.061  0.00  0.00    -0.386 OA
ATOM     28  H   UNL     1       7.539   4.147  -1.808  0.00  0.00    +0.210 HD
ENDBRANCH  18  27
BRANCH  17  29
ATOM     29  O   UNL     1       5.488   3.658   1.286  0.00  0.00    -0.383 OA
ATOM     30  H   UNL     1       5.017   3.874   2.102  0.00  0.00    +0.210 HD
ENDBRANCH  17  29
ENDBRANCH   1  16
TORSDOF 10
