REMARK  Name = ZINC16038849
REMARK  10 active torsions:
REMARK  status: ('A' for Active; 'I' for Inactive)
REMARK    1  A    between atoms: C_1  and  C_2
REMARK    2  A    between atoms: C_2  and  C_3
REMARK    3  A    between atoms: C_3  and  C_4
REMARK    4  A    between atoms: C_7  and  C_10
REMARK    5  A    between atoms: C_10  and  C_12
REMARK    6  A    between atoms: C_14  and  C_36
REMARK    7  A    between atoms: C_36  and  C_38
REMARK    8  A    between atoms: C_38  and  C_39
REMARK    9  A    between atoms: C_38  and  C_40
REMARK   10  A    between atoms: C_38  and  C_41
REMARK                            x       y       z     vdW  Elec       q    Type
REMARK                         _______ _______ _______ _____ _____    ______ ____
ROOT
ATOM      1  C   UNL     1      -4.597   3.734   4.949  0.00  0.00    +0.108 C 
ATOM      2  C   UNL     1      -4.664   5.046   4.131  0.00  0.00    +0.136 C 
ATOM      3  C   UNL     1      -4.451   7.417   5.044  0.00  0.00    +0.054 C 
ATOM      4  C   UNL     1      -4.188   8.049   6.203  0.00  0.00    +0.022 C 
ATOM      5  C   UNL     1      -4.466   7.376   7.484  0.00  0.00    -0.019 A 
ATOM      6  C   UNL     1      -4.018   7.961   8.673  0.00  0.00    +0.008 A 
ATOM      7  C   UNL     1      -4.319   7.371   9.883  0.00  0.00    +0.001 A 
ATOM      8  C   UNL     1      -5.087   6.218   9.924  0.00  0.00    +0.000 A 
ATOM      9  C   UNL     1      -5.533   5.638   8.748  0.00  0.00    +0.006 A 
ATOM     10  C   UNL     1      -5.194   6.184   7.526  0.00  0.00    -0.020 A 
ATOM     11  C   UNL     1      -5.643   5.535   6.247  0.00  0.00    +0.107 C 
ATOM     12  C   UNL     1      -5.406   4.027   6.221  0.00  0.00    +0.107 C 
ATOM     13  C   UNL     1      -4.759   3.490   7.448  0.00  0.00    -0.008 A 
ATOM     14  C   UNL     1      -3.621   3.843   8.141  0.00  0.00    +0.006 A 
ATOM     15  C   UNL     1      -3.286   3.080   9.258  0.00  0.00    +0.000 A 
ATOM     16  C   UNL     1      -4.065   2.018   9.665  0.00  0.00    +0.002 A 
ATOM     17  C   UNL     1      -5.232   1.674   9.007  0.00  0.00    +0.023 A 
ATOM     18  C   UNL     1      -5.585   2.437   7.889  0.00  0.00    +0.038 A 
ATOM     19  N   UNL     1      -6.712   2.343   7.100  0.00  0.00    -0.284 N 
ATOM     20  C   UNL     1      -6.736   3.298   6.146  0.00  0.00    +0.231 C 
ATOM     21  O   UNL     1      -7.643   3.533   5.378  0.00  0.00    -0.274 OA
ATOM     22  H   UNL     1      -7.402   1.671   7.212  0.00  0.00    +0.155 HD
ATOM     23  N   UNL     1      -4.594   5.921   5.281  0.00  0.00    -0.384 NA
ATOM     24  H   UNL     1      -3.709   5.664   5.734  0.00  0.00    +0.127 HD
ENDROOT
BRANCH   1  25
ATOM     25  C   UNL     1      -3.165   3.357   5.247  0.00  0.00    +0.170 C 
ATOM     26  O   UNL     1      -2.313   4.217   5.316  0.00  0.00    -0.292 OA
BRANCH  25  30
ATOM     27  C   UNL     1      -2.123  -0.712   5.840  0.00  0.00    -0.047 A 
ATOM     28  C   UNL     1      -3.450  -0.360   5.665  0.00  0.00    +0.004 A 
ATOM     29  C   UNL     1      -3.797   0.961   5.478  0.00  0.00    +0.011 A 
ATOM     30  C   UNL     1      -2.804   1.945   5.453  0.00  0.00    +0.018 A 
ATOM     31  C   UNL     1      -1.464   1.580   5.625  0.00  0.00    +0.011 A 
ATOM     32  C   UNL     1      -1.134   0.255   5.817  0.00  0.00    +0.004 A 
BRANCH  27  33
ATOM     33  C   UNL     1      -1.753  -2.158   6.050  0.00  0.00    +0.035 C 
BRANCH  33  35
ATOM     34  C   UNL     1      -1.387  -3.943   7.759  0.00  0.00    +0.004 C 
ATOM     35  C   UNL     1      -1.763  -2.475   7.546  0.00  0.00    +0.001 C 
ENDBRANCH  33  35
ENDBRANCH  27  33
ENDBRANCH  25  30
ENDBRANCH   1  25
BRANCH   2  36
ATOM     36  C   UNL     1      -5.795   5.013   3.139  0.00  0.00    +0.158 C 
ATOM     37  O   UNL     1      -6.863   5.498   3.424  0.00  0.00    -0.295 OA
BRANCH  36  38
ATOM     38  C   UNL     1      -5.594   4.374   1.789  0.00  0.00    +0.022 C 
ATOM     39  C   UNL     1      -6.906   4.418   1.004  0.00  0.00    +0.018 C 
ATOM     40  C   UNL     1      -4.513   5.136   1.020  0.00  0.00    +0.018 C 
ATOM     41  C   UNL     1      -5.158   2.919   1.974  0.00  0.00    +0.018 C 
ENDBRANCH  36  38
ENDBRANCH   2  36
TORSDOF 6
