REMARK  Name = ZINC08253731
REMARK  12 active torsions:
REMARK  status: ('A' for Active; 'I' for Inactive)
REMARK    1  A    between atoms: C_1  and  C_2
REMARK    2  A    between atoms: C_2  and  O_3
REMARK    3  A    between atoms: O_3  and  C_4
REMARK    4  A    between atoms: C_6  and  C_16
REMARK    5  A    between atoms: C_9  and  O_10
REMARK    6  A    between atoms: O_10  and  C_11
REMARK    7  A    between atoms: C_11  and  C_12
REMARK    8  A    between atoms: C_16  and  N_41
REMARK    9  A    between atoms: C_17  and  C_18
REMARK   10  A    between atoms: C_17  and  N_41
REMARK   11  A    between atoms: C_18  and  C_20
REMARK   12  A    between atoms: C_18  and  O_21
REMARK                            x       y       z     vdW  Elec       q    Type
REMARK                         _______ _______ _______ _____ _____    ______ ____
ROOT
ATOM      1  C   UNL     1       0.807   1.987   2.993  0.00  0.00    +0.163 A 
ATOM      2  C   UNL     1       1.347   1.611   4.213  0.00  0.00    +0.051 A 
ATOM      3  C   UNL     1       0.936   0.439   4.819  0.00  0.00    -0.060 A 
ATOM      4  C   UNL     1      -0.013  -0.362   4.211  0.00  0.00    +0.021 A 
ATOM      5  C   UNL     1      -0.559   0.009   2.996  0.00  0.00    +0.063 A 
ATOM      6  C   UNL     1      -0.148   1.182   2.381  0.00  0.00    +0.176 A 
ATOM      7 BR   UNL     1      -1.862  -1.085   2.171  0.00  0.00    -0.046 Br
ENDROOT
BRANCH   1   8
ATOM      8  O   UNL     1       1.210   3.140   2.396  0.00  0.00    -0.489 OA
BRANCH   8  10
ATOM      9  C   UNL     1       2.518   5.168   2.263  0.00  0.00    +0.048 C 
ATOM     10  C   UNL     1       2.193   3.917   3.082  0.00  0.00    +0.226 C 
ENDBRANCH   8  10
ENDBRANCH   1   8
BRANCH   6  11
ATOM     11  O   UNL     1      -0.682   1.547   1.184  0.00  0.00    -0.478 OA
BRANCH  11  12
ATOM     12  C   UNL     1      -0.013   1.086   0.008  0.00  0.00    +0.324 C 
BRANCH  12  13
ATOM     13  C   UNL     1      -0.742   1.585  -1.213  0.00  0.00    +0.248 C 
ATOM     14  O   UNL     1      -1.736   2.268  -1.088  0.00  0.00    -0.272 OA
ATOM     15  N   UNL     1      -0.288   1.272  -2.443  0.00  0.00    -0.327 N 
ATOM     16  H   UNL     1       0.507   0.726  -2.543  0.00  0.00    +0.145 HD
ATOM     17  H   UNL     1      -0.758   1.594  -3.229  0.00  0.00    +0.145 HD
ENDBRANCH  12  13
ENDBRANCH  11  12
ENDBRANCH   6  11
BRANCH   3  18
ATOM     18  C   UNL     1       1.525   0.032   6.145  0.00  0.00    -0.047 C 
BRANCH  18  19
ATOM     19  N   UNL     1       0.703   0.598   7.232  0.00  0.00    +0.383 N 
ATOM     20  H   UNL     1      -0.256   0.241   7.152  0.00  0.00    -0.085 HD
ATOM     21  H   UNL     1       0.695   1.621   7.153  0.00  0.00    -0.085 HD
BRANCH  19  22
ATOM     22  C   UNL     1       1.257   0.215   8.545  0.00  0.00    -0.051 C 
BRANCH  22  23
ATOM     23  C   UNL     1       0.386   0.814   9.651  0.00  0.00    +0.095 C 
ATOM     24  C   UNL     1       1.022   0.528  11.012  0.00  0.00    +0.035 C 
BRANCH  23  25
ATOM     25  O   UNL     1      -0.916   0.229   9.601  0.00  0.00    -0.394 OA
ATOM     26  H   UNL     1      -0.922  -0.730   9.722  0.00  0.00    +0.210 HD
ENDBRANCH  23  25
ENDBRANCH  22  23
ENDBRANCH  19  22
ENDBRANCH  18  19
ENDBRANCH   3  18
TORSDOF 10
