REMARK  Name = ZINC08781641
REMARK  8 active torsions:
REMARK  status: ('A' for Active; 'I' for Inactive)
REMARK    1  A    between atoms: C_3  and  N_32
REMARK    2  A    between atoms: C_6  and  N_7
REMARK    3  A    between atoms: N_10  and  N_11
REMARK    4  A    between atoms: C_12  and  C_14
REMARK    5  A    between atoms: C_17  and  C_20
REMARK    6  A    between atoms: C_20  and  N_21
REMARK    7  A    between atoms: N_21  and  C_22
REMARK    8  A    between atoms: C_25  and  C_27
REMARK                            x       y       z     vdW  Elec       q    Type
REMARK                         _______ _______ _______ _____ _____    ______ ____
ROOT
ATOM      1  C   UNL     1       2.103   0.531   0.621  0.00  0.00    +0.146 C 
ATOM      2  N   UNL     1       1.220  -0.409   0.597  0.00  0.00    -0.084 NA
ATOM      3  O   UNL     1      -0.012   0.007   0.042  0.00  0.00    -0.388 OA
ATOM      4  C   UNL     1      -0.031   1.449   0.055  0.00  0.00    +0.227 C 
ATOM      5  C   UNL     1       1.480   1.784   0.034  0.00  0.00    +0.113 C 
ENDROOT
BRANCH   1   7
ATOM      6  N   UNL     1       3.916  -0.766   1.628  0.00  0.00    -0.228 N 
ATOM      7  C   UNL     1       3.483   0.409   1.130  0.00  0.00    +0.278 C 
ATOM      8  O   UNL     1       4.229   1.368   1.100  0.00  0.00    -0.267 OA
ATOM      9  H   UNL     1       3.320  -1.532   1.651  0.00  0.00    +0.173 HD
BRANCH   6  13
ATOM     10  N   UNL     1       4.831  -3.121   2.642  0.00  0.00    -0.268 N 
ATOM     11  C   UNL     1       5.658  -2.058   2.609  0.00  0.00    +0.320 C 
ATOM     12  O   UNL     1       6.795  -2.158   3.029  0.00  0.00    -0.251 OA
ATOM     13  N   UNL     1       5.225  -0.882   2.111  0.00  0.00    -0.218 N 
ATOM     14  H   UNL     1       3.905  -3.024   2.370  0.00  0.00    +0.156 HD
ATOM     15  H   UNL     1       5.821  -0.117   2.087  0.00  0.00    +0.174 HD
BRANCH  10  21
ATOM     16  C   UNL     1       4.825  -5.532   2.488  0.00  0.00    +0.025 A 
ATOM     17  C   UNL     1       5.303  -6.758   2.906  0.00  0.00    +0.034 A 
ATOM     18  C   UNL     1       6.252  -6.827   3.909  0.00  0.00    +0.126 A 
ATOM     19  C   UNL     1       6.731  -5.668   4.493  0.00  0.00    +0.034 A 
ATOM     20  C   UNL     1       6.262  -4.438   4.075  0.00  0.00    +0.025 A 
ATOM     21  C   UNL     1       5.308  -4.366   3.068  0.00  0.00    +0.035 A 
BRANCH  18  22
ATOM     22  N   UNL     1       6.757  -8.143   4.360  0.00  0.00    +0.056 N 
ATOM     23  O   UNL     1       7.593  -8.205   5.244  0.00  0.00    -0.126 OA
ATOM     24  O   UNL     1       6.337  -9.165   3.847  0.00  0.00    -0.126 OA
ENDBRANCH  18  22
ENDBRANCH  10  21
ENDBRANCH   6  13
ENDBRANCH   1   7
BRANCH   4  25
ATOM     25  C   UNL     1      -0.731   1.999  -1.189  0.00  0.00    +0.150 C 
BRANCH  25  26
ATOM     26  N   UNL     1      -2.151   1.640  -1.150  0.00  0.00    -0.326 N 
ATOM     27  H   UNL     1      -2.501   1.128  -0.404  0.00  0.00    +0.148 HD
BRANCH  26  28
ATOM     28  C   UNL     1      -2.996   2.033  -2.182  0.00  0.00    +0.115 A 
ATOM     29  C   UNL     1      -4.344   1.683  -2.141  0.00  0.00    +0.079 A 
ATOM     30  C   UNL     1      -5.174   2.086  -3.171  0.00  0.00    +0.037 A 
ATOM     31  C   UNL     1      -4.626   2.817  -4.217  0.00  0.00    +0.072 A 
ATOM     32  C   UNL     1      -3.280   3.123  -4.196  0.00  0.00    +0.096 A 
ATOM     33 CL   UNL     1      -4.974   0.761  -0.812  0.00  0.00    -0.080 Cl
ATOM     34  N   UNL     1      -2.436   2.750  -3.197  0.00  0.00    -0.348 N 
ATOM     35  H   UNL     1      -1.438   2.992  -3.208  0.00  0.00    +0.167 HD
BRANCH  31  36
ATOM     36  C   UNL     1      -5.491   3.271  -5.364  0.00  0.00    +0.419 C 
ATOM     37  F   UNL     1      -4.713   3.983  -6.283  0.00  0.00    -0.166 F 
ATOM     38  F   UNL     1      -6.053   2.156  -5.995  0.00  0.00    -0.166 F 
ATOM     39  F   UNL     1      -6.512   4.096  -4.880  0.00  0.00    -0.166 F 
ENDBRANCH  31  36
ENDBRANCH  26  28
ENDBRANCH  25  26
ENDBRANCH   4  25
TORSDOF 8
