REMARK  Name = ZINC55119333
REMARK  11 active torsions:
REMARK  status: ('A' for Active; 'I' for Inactive)
REMARK    1  A    between atoms: C_1  and  C_2
REMARK    2  A    between atoms: C_5  and  C_7
REMARK    3  A    between atoms: C_11  and  O_13
REMARK    4  A    between atoms: O_13  and  C_14
REMARK    5  A    between atoms: C_14  and  C_15
REMARK    6  A    between atoms: N_20  and  C_22
REMARK    7  A    between atoms: N_26  and  C_28
REMARK    8  A    between atoms: C_28  and  C_29
REMARK    9  A    between atoms: C_32  and  O_36
REMARK   10  A    between atoms: C_34  and  O_35
REMARK   11  A    between atoms: O_36  and  C_37
REMARK                            x       y       z     vdW  Elec       q    Type
REMARK                         _______ _______ _______ _____ _____    ______ ____
ROOT
ATOM      1  C   UNL     1       0.854  -4.405   0.180  0.00  0.00    -0.007 A 
ATOM      2  C   UNL     1       2.248  -4.495   0.152  0.00  0.00    +0.017 A 
ATOM      3  C   UNL     1       2.850  -5.729   0.033  0.00  0.00    +0.012 A 
ATOM      4  C   UNL     1       2.088  -6.878  -0.046  0.00  0.00    +0.166 A 
ATOM      5  C   UNL     1       0.697  -6.798  -0.032  0.00  0.00    +0.163 A 
ATOM      6  C   UNL     1       0.082  -5.564   0.088  0.00  0.00    +0.058 A 
ATOM      7  O   UNL     1       2.700  -8.094  -0.110  0.00  0.00    -0.487 OA
ATOM      8  C   UNL     1       3.382  -8.500   1.083  0.00  0.00    +0.244 C 
ATOM      9  C   UNL     1       4.789  -7.943   1.112  0.00  0.00    +0.126 C 
ATOM     10  N   UNL     1       4.839  -6.486   1.198  0.00  0.00    -0.291 NA
ATOM     11  C   UNL     1       4.362  -5.833  -0.026  0.00  0.00    +0.123 C 
ENDROOT
BRANCH   1  16
ATOM     12  C   UNL     1      -0.721   0.982   0.702  0.00  0.00    +0.051 C 
ATOM     13  C   UNL     1      -0.559  -0.510   0.563  0.00  0.00    -0.013 A 
ATOM     14  C   UNL     1      -1.516  -1.470   0.492  0.00  0.00    +0.011 A 
ATOM     15  C   UNL     1      -1.137  -2.788   0.364  0.00  0.00    +0.016 A 
ATOM     16  C   UNL     1       0.199  -3.087   0.312  0.00  0.00    +0.020 A 
ATOM     17  S   UNL     1       0.942  -1.469   0.440  0.00  0.00    -0.093 S 
ENDBRANCH   1  16
BRANCH   5  18
ATOM     18  O   UNL     1      -0.053  -7.928  -0.130  0.00  0.00    -0.488 OA
BRANCH  18  19
ATOM     19  C   UNL     1      -1.473  -7.768  -0.108  0.00  0.00    +0.231 C 
BRANCH  19  20
ATOM     20  C   UNL     1      -2.143  -9.138  -0.228  0.00  0.00    +0.010 C 
ATOM     21  C   UNL     1      -1.826  -9.744  -1.599  0.00  0.00    +0.003 C 
ATOM     22  C   UNL     1      -2.564 -11.078  -1.739  0.00  0.00    -0.018 C 
ATOM     23  C   UNL     1      -4.064 -10.849  -1.538  0.00  0.00    -0.079 C 
ATOM     24  N   UNL     1      -4.303 -10.295  -0.201  0.00  0.00    +0.378 N 
ATOM     25  C   UNL     1      -3.658  -8.982  -0.082  0.00  0.00    -0.072 C 
ATOM     26  C   UNL     1      -5.748 -10.149   0.016  0.00  0.00    -0.096 C 
ATOM     27  H   UNL     1      -3.921 -10.919   0.494  0.00  0.00    -0.082 HD
ENDBRANCH  19  20
ENDBRANCH  18  19
ENDBRANCH   5  18
BRANCH  10  28
ATOM     28  C   UNL     1       6.189  -6.025   1.548  0.00  0.00    +0.123 C 
BRANCH  28  29
ATOM     29  C   UNL     1       6.440  -6.271   3.014  0.00  0.00    +0.008 A 
ATOM     30  C   UNL     1       7.268  -7.305   3.408  0.00  0.00    +0.012 A 
ATOM     31  C   UNL     1       7.500  -7.533   4.751  0.00  0.00    +0.046 A 
ATOM     32  C   UNL     1       6.901  -6.725   5.707  0.00  0.00    +0.124 A 
ATOM     33  C   UNL     1       6.070  -5.687   5.314  0.00  0.00    +0.091 A 
ATOM     34  C   UNL     1       5.843  -5.457   3.966  0.00  0.00    +0.125 A 
BRANCH  34  35
ATOM     35  O   UNL     1       5.034  -4.437   3.577  0.00  0.00    -0.506 OA
ATOM     36  H   UNL     1       4.103  -4.684   3.492  0.00  0.00    +0.292 HD
ENDBRANCH  34  35
BRANCH  32  37
ATOM     37  O   UNL     1       7.129  -6.950   7.028  0.00  0.00    -0.495 OA
ATOM     38  C   UNL     1       7.996  -8.036   7.360  0.00  0.00    +0.277 C 
ENDBRANCH  32  37
ENDBRANCH  28  29
ENDBRANCH  10  28
TORSDOF 8
