REMARK  Name = ZINC67388042
REMARK  4 active torsions:
REMARK  status: ('A' for Active; 'I' for Inactive)
REMARK    1  A    between atoms: C_1  and  C_2
REMARK    2  A    between atoms: C_6  and  C_8
REMARK    3  A    between atoms: N_10  and  N_11
REMARK    4  A    between atoms: N_14  and  C_15
REMARK                            x       y       z     vdW  Elec       q    Type
REMARK                         _______ _______ _______ _____ _____    ______ ____
ROOT
ATOM      1  N   UNL     1       0.086  -4.905   3.652  0.00  0.00    -0.218 N 
ATOM      2  C   UNL     1       0.103  -6.252   3.639  0.00  0.00    +0.316 C 
ATOM      3  O   UNL     1       0.117  -6.870   4.686  0.00  0.00    -0.251 OA
ATOM      4  N   UNL     1       0.106  -6.915   2.466  0.00  0.00    -0.291 N 
ATOM      5  H   UNL     1       0.083  -4.428   4.496  0.00  0.00    +0.174 HD
ATOM      6  H   UNL     1       0.096  -6.423   1.630  0.00  0.00    +0.151 HD
ENDROOT
BRANCH   4   7
ATOM      7  C   UNL     1       0.126  -8.380   2.452  0.00  0.00    +0.108 C 
ATOM      8  C   UNL     1       0.782  -8.843   1.164  0.00  0.00    +0.050 C 
ATOM      9  C   UNL     1       0.869 -10.377   1.167  0.00  0.00    +0.174 C 
ATOM     10  S   UNL     1      -0.824 -11.003   0.947  0.00  0.00    -0.003 S 
ATOM     11  O   UNL     1      -0.932 -12.323   1.461  0.00  0.00    -0.169 OA
ATOM     12  O   UNL     1      -1.299 -10.690  -0.355  0.00  0.00    -0.169 OA
ATOM     13  C   UNL     1      -1.790 -10.008   2.040  0.00  0.00    +0.093 A 
ATOM     14  C   UNL     1      -1.278  -8.878   2.631  0.00  0.00    -0.002 A 
ATOM     15  C   UNL     1      -2.103  -8.129   3.469  0.00  0.00    +0.007 A 
ATOM     16  C   UNL     1      -3.404  -8.511   3.708  0.00  0.00    +0.000 A 
ATOM     17  C   UNL     1      -3.908  -9.654   3.114  0.00  0.00    +0.002 A 
ATOM     18  C   UNL     1      -3.099 -10.397   2.287  0.00  0.00    +0.027 A 
ENDBRANCH   4   7
BRANCH   1  21
ATOM     19  C   UNL     1       0.053  -2.845   2.458  0.00  0.00    +0.260 C 
ATOM     20  O   UNL     1       0.050  -2.248   3.516  0.00  0.00    -0.269 OA
ATOM     21  N   UNL     1       0.070  -4.193   2.445  0.00  0.00    -0.229 N 
ATOM     22  H   UNL     1       0.073  -4.670   1.601  0.00  0.00    +0.173 HD
BRANCH  19  28
ATOM     23  C   UNL     1      -0.018   1.503   0.010  0.00  0.00    +0.044 C 
ATOM     24  C   UNL     1       0.002  -0.004   0.002  0.00  0.00    -0.050 A 
ATOM     25  C   UNL     1       0.006  -0.688  -1.201  0.00  0.00    +0.003 A 
ATOM     26  C   UNL     1       0.025  -2.071  -1.218  0.00  0.00    +0.001 A 
ATOM     27  C   UNL     1       0.040  -2.778  -0.033  0.00  0.00    +0.013 A 
ATOM     28  C   UNL     1       0.036  -2.095   1.184  0.00  0.00    +0.038 A 
ATOM     29  C   UNL     1       0.023  -0.699   1.194  0.00  0.00    +0.016 A 
ENDBRANCH  19  28
ENDBRANCH   1  21
TORSDOF 3
