REMARK  Name = ZINC38657068
REMARK  14 active torsions:
REMARK  status: ('A' for Active; 'I' for Inactive)
REMARK    1  A    between atoms: C_1  and  C_2
REMARK    2  A    between atoms: C_4  and  O_10
REMARK    3  A    between atoms: C_6  and  C_9
REMARK    4  A    between atoms: O_10  and  C_11
REMARK    5  A    between atoms: C_11  and  C_12
REMARK    6  A    between atoms: C_12  and  O_14
REMARK    7  A    between atoms: O_14  and  C_15
REMARK    8  A    between atoms: C_22  and  N_38
REMARK    9  A    between atoms: C_23  and  C_36
REMARK   10  A    between atoms: C_24  and  C_26
REMARK   11  A    between atoms: C_29  and  O_34
REMARK   12  A    between atoms: C_31  and  O_32
REMARK   13  A    between atoms: O_32  and  C_33
REMARK   14  A    between atoms: O_34  and  C_35
REMARK                            x       y       z     vdW  Elec       q    Type
REMARK                         _______ _______ _______ _____ _____    ______ ____
ROOT
ATOM      1  C   UNL     1       0.034  -6.638  -5.131  0.00  0.00    +0.135 A 
ATOM      2  C   UNL     1       0.060  -5.833  -6.261  0.00  0.00    +0.047 A 
ATOM      3  C   UNL     1       0.027  -6.405  -7.517  0.00  0.00    +0.012 A 
ATOM      4  C   UNL     1      -0.032  -7.781  -7.656  0.00  0.00    +0.008 A 
ATOM      5  C   UNL     1      -0.058  -8.590  -6.531  0.00  0.00    +0.138 A 
ATOM      6  C   UNL     1      -0.019  -8.016  -5.266  0.00  0.00    +0.093 A 
ATOM      7  O   UNL     1      -0.116  -9.940  -6.646  0.00  0.00    -0.441 OA
ATOM      8  C   UNL     1      -0.530 -10.497  -7.796  0.00  0.00    +0.199 C 
ATOM      9  C   UNL     1      -0.532  -9.812  -8.964  0.00  0.00    +0.098 C 
ATOM     10  C   UNL     1      -0.067  -8.385  -9.034  0.00  0.00    +0.101 C 
ENDROOT
BRANCH  10  11
ATOM     11  C   UNL     1       1.314  -8.339  -9.635  0.00  0.00    +0.007 A 
ATOM     12  C   UNL     1       2.360  -8.994  -9.012  0.00  0.00    +0.012 A 
ATOM     13  C   UNL     1       3.627  -8.954  -9.560  0.00  0.00    +0.046 A 
ATOM     14  C   UNL     1       3.854  -8.256 -10.738  0.00  0.00    +0.124 A 
ATOM     15  C   UNL     1       2.807  -7.598 -11.364  0.00  0.00    +0.091 A 
ATOM     16  C   UNL     1       1.534  -7.644 -10.815  0.00  0.00    +0.128 A 
BRANCH  16  17
ATOM     17  O   UNL     1       0.504  -7.005 -11.430  0.00  0.00    -0.495 OA
ATOM     18  C   UNL     1       0.803  -6.310 -12.642  0.00  0.00    +0.277 C 
ENDBRANCH  16  17
BRANCH  14  19
ATOM     19  O   UNL     1       5.101  -8.216 -11.276  0.00  0.00    -0.495 OA
ATOM     20  C   UNL     1       6.132  -8.916 -10.577  0.00  0.00    +0.277 C 
ENDBRANCH  14  19
ENDBRANCH  10  11
BRANCH   8  21
ATOM     21  N   UNL     1      -0.965 -11.799  -7.786  0.00  0.00    -0.328 N 
ATOM     22  H   UNL     1      -0.969 -12.303  -6.957  0.00  0.00    +0.145 HD
ATOM     23  H   UNL     1      -1.267 -12.216  -8.608  0.00  0.00    +0.145 HD
ENDBRANCH   8  21
BRANCH   9  24
ATOM     24  C   UNL     1      -0.987 -10.462 -10.157  0.00  0.00    +0.101 C 
ATOM     25  N   UNL     1      -1.347 -10.977 -11.103  0.00  0.00    -0.191 NA
ENDBRANCH   9  24
BRANCH   1  26
ATOM     26  O   UNL     1       0.067  -6.077  -3.894  0.00  0.00    -0.423 OA
BRANCH  26  27
ATOM     27  C   UNL     1      -1.064  -5.529  -3.421  0.00  0.00    +0.350 C 
ATOM     28  O   UNL     1      -2.045  -5.465  -4.124  0.00  0.00    -0.247 OA
BRANCH  27  29
ATOM     29  C   UNL     1      -1.110  -4.993  -2.013  0.00  0.00    +0.349 C 
BRANCH  29  30
ATOM     30  O   UNL     1      -2.411  -4.465  -1.746  0.00  0.00    -0.481 OA
BRANCH  30  34
ATOM     31  C   UNL     1      -5.421  -2.299   1.427  0.00  0.00    +0.045 C 
ATOM     32  C   UNL     1      -4.074  -2.875   1.072  0.00  0.00    -0.028 A 
ATOM     33  C   UNL     1      -3.862  -3.409  -0.184  0.00  0.00    +0.050 A 
ATOM     34  C   UNL     1      -2.622  -3.939  -0.511  0.00  0.00    +0.122 A 
ATOM     35  C   UNL     1      -1.598  -3.932   0.425  0.00  0.00    +0.050 A 
ATOM     36  C   UNL     1      -1.815  -3.397   1.680  0.00  0.00    -0.028 A 
ATOM     37  C   UNL     1      -3.050  -2.864   2.002  0.00  0.00    +0.047 A 
ATOM     38 CL   UNL     1      -3.318  -2.186   3.578  0.00  0.00    -0.083 Cl
ATOM     39  C   UNL     1      -0.703  -3.388   2.697  0.00  0.00    +0.045 C 
ENDBRANCH  30  34
ENDBRANCH  29  30
ENDBRANCH  27  29
ENDBRANCH  26  27
ENDBRANCH   1  26
TORSDOF 10
