REMARK  Name = ZINC06134009
REMARK  11 active torsions:
REMARK  status: ('A' for Active; 'I' for Inactive)
REMARK    1  A    between atoms: C_1  and  C_2
REMARK    2  A    between atoms: C_2  and  C_3
REMARK    3  A    between atoms: C_2  and  C_4
REMARK    4  A    between atoms: C_4  and  C_5
REMARK    5  A    between atoms: C_5  and  N_6
REMARK    6  A    between atoms: C_7  and  C_9
REMARK    7  A    between atoms: C_9  and  N_10
REMARK    8  A    between atoms: N_10  and  C_11
REMARK    9  A    between atoms: C_21  and  C_23
REMARK   10  A    between atoms: C_24  and  N_31
REMARK   11  A    between atoms: C_25  and  C_28
REMARK                            x       y       z     vdW  Elec       q    Type
REMARK                         _______ _______ _______ _____ _____    ______ ____
ROOT
ATOM      1  N   UNL     1       3.632  -0.663   0.038  0.00  0.00    -0.258 N 
ATOM      2  C   UNL     1       4.777   0.020  -0.158  0.00  0.00    +0.261 C 
ATOM      3  O   UNL     1       5.820  -0.580  -0.343  0.00  0.00    -0.269 OA
ENDROOT
BRANCH   1   4
ATOM      4  C   UNL     1       2.416   0.023   0.137  0.00  0.00    +0.041 A 
ATOM      5  C   UNL     1       1.736   0.401  -1.014  0.00  0.00    +0.027 A 
ATOM      6  C   UNL     1       0.536   1.079  -0.917  0.00  0.00    +0.051 A 
ATOM      7  C   UNL     1       0.007   1.384   0.328  0.00  0.00    +0.162 A 
ATOM      8  C   UNL     1       0.683   1.004   1.482  0.00  0.00    +0.164 A 
ATOM      9  C   UNL     1       1.888   0.325   1.384  0.00  0.00    +0.073 A 
ATOM     10  O   UNL     1       0.175   1.287   2.712  0.00  0.00    -0.485 OA
ATOM     11  C   UNL     1      -0.842   2.293   2.773  0.00  0.00    +0.270 C 
ATOM     12  C   UNL     1      -1.861   2.015   1.659  0.00  0.00    +0.270 C 
ATOM     13  O   UNL     1      -1.173   2.060   0.404  0.00  0.00    -0.485 OA
ENDBRANCH   1   4
BRANCH   2  14
ATOM     14  C   UNL     1       4.767   1.484  -0.149  0.00  0.00    +0.116 A 
ATOM     15  C   UNL     1       5.823   2.378  -0.339  0.00  0.00    +0.076 A 
ATOM     16  C   UNL     1       5.415   3.710  -0.262  0.00  0.00    +0.155 A 
ATOM     17  N   UNL     1       4.152   3.983  -0.021  0.00  0.00    -0.203 NA
ATOM     18  S   UNL     1       3.406   2.602   0.114  0.00  0.00    +0.019 S 
BRANCH  16  19
ATOM     19  C   UNL     1       6.392   4.799  -0.441  0.00  0.00    +0.262 C 
ATOM     20  O   UNL     1       7.559   4.539  -0.663  0.00  0.00    -0.269 OA
ATOM     21  N   UNL     1       5.992   6.084  -0.359  0.00  0.00    -0.324 N 
ATOM     22  H   UNL     1       5.061   6.291  -0.182  0.00  0.00    +0.145 HD
ATOM     23  H   UNL     1       6.635   6.801  -0.477  0.00  0.00    +0.145 HD
ENDBRANCH  16  19
BRANCH  15  24
ATOM     24  N   UNL     1       7.132   1.985  -0.581  0.00  0.00    -0.355 N 
ATOM     25  H   UNL     1       7.355   1.042  -0.626  0.00  0.00    +0.142 HD
ATOM     26  H   UNL     1       7.824   2.653  -0.705  0.00  0.00    +0.142 HD
ENDBRANCH  15  24
ENDBRANCH   2  14
BRANCH   1  27
ATOM     27  C   UNL     1       3.661  -2.124   0.149  0.00  0.00    +0.209 C 
BRANCH  27  29
ATOM     28  N   UNL     1       3.490  -4.074  -1.363  0.00  0.00    -0.314 N 
ATOM     29  C   UNL     1       3.495  -2.734  -1.219  0.00  0.00    +0.231 C 
ATOM     30  O   UNL     1       3.366  -2.019  -2.191  0.00  0.00    -0.274 OA
ATOM     31  H   UNL     1       3.593  -4.646  -0.586  0.00  0.00    +0.149 HD
BRANCH  28  32
ATOM     32  C   UNL     1       3.329  -4.667  -2.693  0.00  0.00    +0.104 C 
BRANCH  32  33
ATOM     33  C   UNL     1       3.358  -6.193  -2.578  0.00  0.00    +0.022 C 
BRANCH  33  35
ATOM     34  C   UNL     1       4.394  -6.449  -4.837  0.00  0.00    +0.007 C 
ATOM     35  C   UNL     1       3.190  -6.812  -3.966  0.00  0.00    -0.016 C 
ATOM     36  C   UNL     1       3.094  -8.334  -3.838  0.00  0.00    +0.007 C 
ENDBRANCH  33  35
ENDBRANCH  32  33
ENDBRANCH  28  32
ENDBRANCH  27  29
ENDBRANCH   1  27
TORSDOF 9
