REMARK  Name = ZINC05978491
REMARK  8 active torsions:
REMARK  status: ('A' for Active; 'I' for Inactive)
REMARK    1  A    between atoms: C_1  and  C_2
REMARK    2  A    between atoms: C_2  and  C_3
REMARK    3  A    between atoms: C_3  and  C_4
REMARK    4  A    between atoms: C_4  and  C_5
REMARK    5  A    between atoms: C_5  and  C_7
REMARK    6  A    between atoms: C_5  and  N_53
REMARK    7  A    between atoms: C_9  and  C_12
REMARK    8  A    between atoms: N_14  and  C_15
REMARK                            x       y       z     vdW  Elec       q    Type
REMARK                         _______ _______ _______ _____ _____    ______ ____
ROOT
ATOM      1  C   UNL     1      -1.807   9.272  -0.341  0.00  0.00    +0.182 A 
ATOM      2  N   UNL     1      -1.587   8.037  -0.003  0.00  0.00    -0.210 NA
ATOM      3  C   UNL     1      -2.132   7.226  -0.950  0.00  0.00    +0.163 A 
ATOM      4  C   UNL     1      -2.694   8.032  -1.891  0.00  0.00    +0.230 A 
ATOM      5  O   UNL     1      -2.489   9.299  -1.495  0.00  0.00    -0.449 OA
ENDROOT
BRANCH   3   6
ATOM      6  C   UNL     1      -2.112   5.752  -0.958  0.00  0.00    +0.266 C 
ATOM      7  O   UNL     1      -2.639   5.142  -1.868  0.00  0.00    -0.268 OA
ATOM      8  N   UNL     1      -1.510   5.081   0.044  0.00  0.00    -0.304 N 
ATOM      9  H   UNL     1      -1.089   5.567   0.770  0.00  0.00    +0.150 HD
BRANCH   8  10
ATOM     10  C   UNL     1      -1.490   3.616   0.036  0.00  0.00    +0.036 C 
ATOM     11  C   UNL     1      -0.773   3.123  -1.223  0.00  0.00    +0.029 C 
ATOM     12  C   UNL     1      -0.753   1.593  -1.232  0.00  0.00    -0.008 C 
ATOM     13  C   UNL     1      -0.013   1.086   0.008  0.00  0.00    +0.007 C 
ATOM     14  C   UNL     1      -0.729   1.579   1.267  0.00  0.00    -0.008 C 
ATOM     15  C   UNL     1      -0.750   3.109   1.275  0.00  0.00    +0.029 C 
ATOM     16  C   UNL     1      -2.164   1.050   1.278  0.00  0.00    +0.007 C 
ATOM     17  C   UNL     1      -2.904   1.556   0.038  0.00  0.00    -0.008 C 
ATOM     18  C   UNL     1      -2.188   1.063  -1.221  0.00  0.00    +0.007 C 
ATOM     19  C   UNL     1      -2.925   3.086   0.047  0.00  0.00    +0.029 C 
ENDBRANCH   8  10
ENDBRANCH   3   6
BRANCH   1  20
ATOM     20  C   UNL     1      -1.367  10.482   0.441  0.00  0.00    +0.013 C 
BRANCH  20  23
ATOM     21  H   UNL     1       0.049  11.116  -0.913  0.00  0.00    -0.089 HD
ATOM     22  H   UNL     1      -1.461  11.763  -1.169  0.00  0.00    -0.089 HD
ATOM     23  N   UNL     1      -0.782  11.492  -0.460  0.00  0.00    +0.386 N 
ATOM     24  H   UNL     1      -0.520  12.320   0.087  0.00  0.00    -0.089 HD
ENDBRANCH  20  23
BRANCH  20  25
ATOM     25  C   UNL     1      -2.573  11.094   1.156  0.00  0.00    -0.007 C 
BRANCH  25  26
ATOM     26  C   UNL     1      -2.107  12.247   2.047  0.00  0.00    -0.001 C 
BRANCH  26  28
ATOM     27  C   UNL     1      -2.848  14.011   3.654  0.00  0.00    +0.004 C 
ATOM     28  C   UNL     1      -3.314  12.858   2.763  0.00  0.00    -0.003 C 
ENDBRANCH  26  28
ENDBRANCH  25  26
ENDBRANCH  20  25
ENDBRANCH   1  20
TORSDOF 7
