REMARK  Name = ZINC40757692
REMARK  5 active torsions:
REMARK  status: ('A' for Active; 'I' for Inactive)
REMARK    1  A    between atoms: C_1  and  N_2
REMARK    2  A    between atoms: N_2  and  C_3
REMARK    3  A    between atoms: C_10  and  N_23
REMARK    4  A    between atoms: C_11  and  N_15
REMARK    5  A    between atoms: N_15  and  C_16
REMARK                            x       y       z     vdW  Elec       q    Type
REMARK                         _______ _______ _______ _____ _____    ______ ____
ROOT
ATOM      1  C   UNL     1       1.200   0.346   0.700  0.00  0.00    +0.137 C 
ATOM      2  N   UNL     1      -0.038  -0.054   0.027  0.00  0.00    -0.287 N 
ATOM      3  C   UNL     1       0.013  -0.651  -1.227  0.00  0.00    +0.151 A 
ATOM      4  C   UNL     1       0.075   0.131  -2.383  0.00  0.00    +0.104 A 
ATOM      5  C   UNL     1       0.125  -0.519  -3.617  0.00  0.00    +0.126 A 
ATOM      6  N   UNL     1       0.114  -1.850  -3.645  0.00  0.00    -0.333 N 
ATOM      7  C   UNL     1       0.055  -2.551  -2.531  0.00  0.00    +0.200 A 
ATOM      8  N   UNL     1       0.011  -1.976  -1.346  0.00  0.00    -0.220 NA
ATOM      9  H   UNL     1       0.148  -2.311  -4.498  0.00  0.00    +0.168 HD
ENDROOT
BRANCH   2  10
ATOM     10  C   UNL     1      -1.272   0.165   0.647  0.00  0.00    +0.035 A 
ATOM     11  C   UNL     1      -2.439  -0.308   0.060  0.00  0.00    +0.023 A 
ATOM     12  C   UNL     1      -3.656  -0.091   0.675  0.00  0.00    +0.002 A 
ATOM     13  C   UNL     1      -3.714   0.597   1.873  0.00  0.00    +0.000 A 
ATOM     14  C   UNL     1      -2.554   1.070   2.460  0.00  0.00    +0.002 A 
ATOM     15  C   UNL     1      -1.333   0.851   1.853  0.00  0.00    +0.023 A 
ENDBRANCH   2  10
BRANCH   4  16
ATOM     16  N   UNL     1       0.084   1.533  -2.305  0.00  0.00    -0.353 N 
ATOM     17  H   UNL     1      -0.025   1.972  -1.447  0.00  0.00    +0.143 HD
ATOM     18  H   UNL     1       0.201   2.062  -3.110  0.00  0.00    +0.143 HD
ENDBRANCH   4  16
BRANCH   5  19
ATOM     19  N   UNL     1       0.187   0.211  -4.798  0.00  0.00    -0.297 N 
ATOM     20  H   UNL     1       0.271   1.177  -4.767  0.00  0.00    +0.154 HD
BRANCH  19  21
ATOM     21  C   UNL     1       0.128  -0.447  -6.031  0.00  0.00    +0.068 A 
ATOM     22  C   UNL     1       1.275  -0.590  -6.799  0.00  0.00    +0.026 A 
ATOM     23  C   UNL     1       1.214  -1.240  -8.017  0.00  0.00    +0.002 A 
ATOM     24  C   UNL     1       0.011  -1.748  -8.472  0.00  0.00    +0.003 A 
ATOM     25  C   UNL     1      -1.135  -1.607  -7.711  0.00  0.00    +0.040 A 
ATOM     26  C   UNL     1      -1.080  -0.964  -6.488  0.00  0.00    +0.144 A 
ATOM     27  F   UNL     1      -2.198  -0.831  -5.742  0.00  0.00    -0.204 F 
ENDBRANCH  19  21
ENDBRANCH   5  19
TORSDOF 4
