REMARK  Name = ZINC05771068
REMARK  3 active torsions:
REMARK  status: ('A' for Active; 'I' for Inactive)
REMARK    1  A    between atoms: C_11  and  C_15
REMARK    2  A    between atoms: N_22  and  C_25
REMARK    3  A    between atoms: C_23  and  O_24
REMARK                            x       y       z     vdW  Elec       q    Type
REMARK                         _______ _______ _______ _____ _____    ______ ____
ROOT
ATOM      1  C   UNL     1       1.198  -0.658  -0.013  0.00  0.00    +0.069 A 
ATOM      2  C   UNL     1       2.387   0.092  -0.020  0.00  0.00    +0.260 A 
ATOM      3  O   UNL     1       3.468  -0.471  -0.034  0.00  0.00    -0.267 OA
ATOM      4  N   UNL     1       2.324   1.438  -0.012  0.00  0.00    -0.274 N 
ATOM      5  H   UNL     1       3.168   1.974  -0.018  0.00  0.00    +0.173 HD
ATOM      6  C   UNL     1       1.135   2.066   0.002  0.00  0.00    +0.337 A 
ATOM      7  O   UNL     1       1.099   3.282   0.009  0.00  0.00    -0.246 OA
ATOM      8  N   UNL     1      -0.017   1.369   0.010  0.00  0.00    -0.231 N 
ATOM      9  C   UNL     1       0.002  -0.004   0.002  0.00  0.00    +0.208 A 
ENDROOT
BRANCH   1  20
ATOM     10  C   UNL     1       4.107  -4.573  -4.771  0.00  0.00    +0.001 A 
ATOM     11  C   UNL     1       3.359  -3.650  -5.483  0.00  0.00    +0.002 A 
ATOM     12  C   UNL     1       2.459  -2.781  -4.870  0.00  0.00    +0.026 A 
ATOM     13  C   UNL     1       2.355  -2.871  -3.483  0.00  0.00    +0.047 A 
ATOM     14  C   UNL     1       3.136  -3.818  -2.755  0.00  0.00    +0.003 A 
ATOM     15  C   UNL     1       4.020  -4.684  -3.405  0.00  0.00    +0.010 A 
ATOM     16  C   UNL     1       2.779  -3.639  -1.365  0.00  0.00    -0.022 A 
ATOM     17  C   UNL     1       1.858  -2.646  -1.315  0.00  0.00    +0.011 A 
ATOM     18  N   UNL     1       1.601  -2.182  -2.576  0.00  0.00    -0.359 N 
ATOM     19  H   UNL     1       0.979  -1.471  -2.793  0.00  0.00    +0.166 HD
ATOM     20  C   UNL     1       1.245  -2.164  -0.021  0.00  0.00    +0.018 C 
ATOM     21  C   UNL     1       2.316  -4.086   1.011  0.00  0.00    -0.076 C 
ATOM     22  C   UNL     1       3.281  -4.373  -0.147  0.00  0.00    +0.018 C 
ATOM     23  N   UNL     1       2.078  -2.631   1.109  0.00  0.00    +0.388 N 
ATOM     24  H   UNL     1       1.596  -2.427   1.992  0.00  0.00    -0.084 HD
ATOM     25  H   UNL     1       2.980  -2.140   1.089  0.00  0.00    -0.084 HD
ENDBRANCH   1  20
BRANCH   8  26
ATOM     26  C   UNL     1      -1.242   2.049   0.019  0.00  0.00    +0.072 A 
ATOM     27  C   UNL     1      -1.845   2.380   1.225  0.00  0.00    +0.028 A 
ATOM     28  C   UNL     1      -3.053   3.050   1.231  0.00  0.00    +0.002 A 
ATOM     29  C   UNL     1      -3.662   3.393   0.038  0.00  0.00    +0.002 A 
ATOM     30  C   UNL     1      -3.065   3.065  -1.165  0.00  0.00    +0.022 A 
ATOM     31  C   UNL     1      -1.854   2.398  -1.179  0.00  0.00    +0.065 A 
ATOM     32 CL   UNL     1      -1.101   1.993  -2.689  0.00  0.00    -0.081 Cl
ENDBRANCH   8  26
BRANCH   9  33
ATOM     33  O   UNL     1      -1.155  -0.700   0.009  0.00  0.00    -0.493 OA
ATOM     34  H   UNL     1      -1.947  -0.146   0.019  0.00  0.00    +0.294 HD
ENDBRANCH   9  33
TORSDOF 3
