REMARK  Name = ZINC61758704
REMARK  7 active torsions:
REMARK  status: ('A' for Active; 'I' for Inactive)
REMARK    1  A    between atoms: C_1  and  C_2
REMARK    2  A    between atoms: C_2  and  C_3
REMARK    3  A    between atoms: C_2  and  C_4
REMARK    4  A    between atoms: C_4  and  N_5
REMARK    5  A    between atoms: N_15  and  C_18
REMARK    6  A    between atoms: C_18  and  C_19
REMARK    7  A    between atoms: C_19  and  N_20
REMARK                            x       y       z     vdW  Elec       q    Type
REMARK                         _______ _______ _______ _____ _____    ______ ____
ROOT
ATOM      1  N   UNL     1      -1.365  -3.921  -1.598  0.00  0.00    -0.311 N 
ATOM      2  C   UNL     1      -1.448  -2.583  -1.350  0.00  0.00    +0.106 A 
ATOM      3  C   UNL     1      -1.480  -2.113  -0.085  0.00  0.00    +0.102 A 
ATOM      4  N   UNL     1      -1.433  -2.930   0.967  0.00  0.00    -0.344 N 
ATOM      5  C   UNL     1      -1.353  -4.233   0.805  0.00  0.00    +0.165 A 
ATOM      6  C   UNL     1      -1.321  -4.782  -0.556  0.00  0.00    +0.290 A 
ATOM      7  O   UNL     1      -1.252  -5.985  -0.742  0.00  0.00    -0.264 OA
ATOM      8  N   UNL     1      -1.304  -5.078   1.906  0.00  0.00    -0.310 N 
ATOM      9  C   UNL     1      -1.162  -4.537   3.266  0.00  0.00    +0.122 C 
ATOM     10  C   UNL     1      -2.257  -5.147   4.149  0.00  0.00    +0.103 C 
ATOM     11  N   UNL     1      -2.200  -6.611   4.053  0.00  0.00    -0.301 NA
ATOM     12  C   UNL     1      -2.478  -7.067   2.684  0.00  0.00    +0.103 C 
ATOM     13  C   UNL     1      -1.398  -6.536   1.743  0.00  0.00    +0.122 C 
ATOM     14  H   UNL     1      -1.458  -2.559   1.863  0.00  0.00    +0.167 HD
ENDROOT
BRANCH   1  15
ATOM     15  C   UNL     1      -1.331  -4.421  -2.974  0.00  0.00    +0.128 C 
BRANCH  15  17
ATOM     16  C   UNL     1      -2.732  -5.078  -4.936  0.00  0.00    +0.009 C 
ATOM     17  C   UNL     1      -2.759  -4.676  -3.460  0.00  0.00    +0.003 C 
ATOM     18  C   UNL     1      -3.384  -5.803  -2.636  0.00  0.00    +0.009 C 
ENDBRANCH  15  17
ENDBRANCH   1  15
BRANCH  11  19
ATOM     19  C   UNL     1      -3.118  -7.238   5.013  0.00  0.00    +0.065 C 
BRANCH  19  20
ATOM     20  C   UNL     1      -2.854  -8.744   5.063  0.00  0.00    -0.071 C 
BRANCH  20  21
ATOM     21  N   UNL     1      -3.772  -9.371   6.023  0.00  0.00    +0.379 N 
ATOM     22  H   UNL     1      -4.725  -9.205   5.735  0.00  0.00    -0.090 HD
ATOM     23  H   UNL     1      -3.598 -10.364   6.056  0.00  0.00    -0.090 HD
ATOM     24  H   UNL     1      -3.624  -8.973   6.939  0.00  0.00    -0.090 HD
ENDBRANCH  20  21
ENDBRANCH  19  20
ENDBRANCH  11  19
TORSDOF 5
