REMARK  Name = ZINC08837206
REMARK  4 active torsions:
REMARK  status: ('A' for Active; 'I' for Inactive)
REMARK    1  A    between atoms: C_4  and  C_7
REMARK    2  A    between atoms: C_7  and  N_8
REMARK    3  A    between atoms: N_8  and  C_9
REMARK    4  A    between atoms: C_9  and  C_10
REMARK                            x       y       z     vdW  Elec       q    Type
REMARK                         _______ _______ _______ _____ _____    ______ ____
ROOT
ATOM      1  N   UNL     1      -1.516   9.625   1.716  0.00  0.00    -0.304 N 
ATOM      2  C   UNL     1      -1.597   8.424   2.405  0.00  0.00    +0.162 A 
ATOM      3  C   UNL     1      -1.926   7.243   1.754  0.00  0.00    +0.084 A 
ATOM      4  C   UNL     1      -2.003   6.038   2.470  0.00  0.00    +0.115 A 
ATOM      5  C   UNL     1      -2.361   4.845   1.682  0.00  0.00    +0.037 A 
ATOM      6  C   UNL     1      -2.507   3.514   2.155  0.00  0.00    -0.029 A 
ATOM      7  C   UNL     1      -2.848   2.531   1.283  0.00  0.00    -0.005 A 
ATOM      8  C   UNL     1      -3.044   2.839  -0.071  0.00  0.00    +0.103 A 
ATOM      9  C   UNL     1      -2.580   5.056   0.312  0.00  0.00    +0.089 A 
ATOM     10  S   UNL     1      -2.317   6.798   0.086  0.00  0.00    -0.065 S 
ATOM     11  N   UNL     1      -3.388   1.831  -0.961  0.00  0.00    -0.312 N 
ATOM     12  C   UNL     1      -2.336   1.637  -1.970  0.00  0.00    +0.134 C 
ATOM     13  C   UNL     1      -2.728   0.480  -2.892  0.00  0.00    +0.178 C 
ATOM     14  O   UNL     1      -4.000   0.758  -3.484  0.00  0.00    -0.377 OA
ATOM     15  C   UNL     1      -5.048   0.952  -2.530  0.00  0.00    +0.178 C 
ATOM     16  C   UNL     1      -4.680   2.114  -1.604  0.00  0.00    +0.134 C 
ATOM     17  C   UNL     1      -3.030   1.097   1.708  0.00  0.00    +0.039 C 
ATOM     18  C   UNL     1      -2.372   0.852   3.065  0.00  0.00    +0.005 C 
ATOM     19  C   UNL     1      -2.863   1.926   4.043  0.00  0.00    +0.005 C 
ATOM     20  C   UNL     1      -2.268   3.269   3.620  0.00  0.00    +0.036 C 
ATOM     21  N   UNL     1      -1.738   6.127   3.791  0.00  0.00    -0.128 NA
ATOM     22  N   UNL     1      -1.439   7.244   4.340  0.00  0.00    -0.041 NA
ATOM     23  N   UNL     1      -1.361   8.363   3.716  0.00  0.00    -0.113 NA
ATOM     24  N   UNL     1      -2.916   4.094  -0.581  0.00  0.00    -0.337 N 
ATOM     25  H   UNL     1      -3.064   4.298  -1.577  0.00  0.00    +0.168 HD
ENDROOT
BRANCH   1  26
ATOM     26  C   UNL     1      -1.154  10.726   2.618  0.00  0.00    +0.142 C 
BRANCH  26  30
ATOM     27  C   UNL     1      -2.010  14.458   0.725  0.00  0.00    +0.000 A 
ATOM     28  C   UNL     1      -3.011  13.775   1.390  0.00  0.00    +0.000 A 
ATOM     29  C   UNL     1      -2.734  12.567   2.002  0.00  0.00    +0.005 A 
ATOM     30  C   UNL     1      -1.456  12.043   1.950  0.00  0.00    -0.030 A 
ATOM     31  C   UNL     1      -0.454  12.729   1.290  0.00  0.00    +0.005 A 
ATOM     32  C   UNL     1      -0.732  13.934   0.673  0.00  0.00    +0.000 A 
ENDBRANCH  26  30
ENDBRANCH   1  26
BRANCH   1  33
ATOM     33  C   UNL     1      -0.569   9.527   0.598  0.00  0.00    +0.142 C 
BRANCH  33  34
ATOM     34  C   UNL     1       0.762   9.037   1.107  0.00  0.00    -0.030 A 
ATOM     35  C   UNL     1       1.671   9.932   1.639  0.00  0.00    +0.005 A 
ATOM     36  C   UNL     1       2.889   9.482   2.111  0.00  0.00    +0.000 A 
ATOM     37  C   UNL     1       3.203   8.137   2.043  0.00  0.00    +0.000 A 
ATOM     38  C   UNL     1       2.296   7.243   1.506  0.00  0.00    +0.000 A 
ATOM     39  C   UNL     1       1.075   7.692   1.039  0.00  0.00    +0.005 A 
ENDBRANCH  33  34
ENDBRANCH   1  33
TORSDOF 4
