REMARK  Name = ZINC31173390
REMARK  8 active torsions:
REMARK  status: ('A' for Active; 'I' for Inactive)
REMARK    1  A    between atoms: C_1  and  C_2
REMARK    2  A    between atoms: C_2  and  N_3
REMARK    3  A    between atoms: N_3  and  C_4
REMARK    4  A    between atoms: N_3  and  C_16
REMARK    5  A    between atoms: C_4  and  C_5
REMARK    6  A    between atoms: C_16  and  C_17
REMARK    7  A    between atoms: N_19  and  C_20
REMARK    8  A    between atoms: C_23  and  C_27
REMARK                            x       y       z     vdW  Elec       q    Type
REMARK                         _______ _______ _______ _____ _____    ______ ____
ROOT
ATOM      1  N   UNL     1       2.361   1.846   0.268  0.00  0.00    +0.388 N 
ATOM      2  H   UNL     1       1.495   2.270  -0.263  0.00  0.00    -0.081 HD
ENDROOT
BRANCH   1   4
ATOM      3  C   UNL     1       1.832  -0.213  -0.948  0.00  0.00    -0.017 C 
ATOM      4  C   UNL     1       2.135   0.403   0.420  0.00  0.00    -0.081 C 
ENDBRANCH   1   4
BRANCH   1   5
ATOM      5  C   UNL     1       2.453   2.505   1.578  0.00  0.00    -0.030 C 
BRANCH   5   6
ATOM      6  C   UNL     1       1.101   2.421   2.288  0.00  0.00    +0.195 C 
ATOM      7  C   UNL     1       1.187   3.121   3.651  0.00  0.00    +0.271 C 
ATOM      8  O   UNL     1      -0.095   3.034   4.282  0.00  0.00    -0.485 OA
ATOM      9  C   UNL     1      -1.177   3.333   3.512  0.00  0.00    +0.162 A 
ATOM     10  C   UNL     1      -2.390   3.616   4.123  0.00  0.00    +0.049 A 
ATOM     11  C   UNL     1      -3.498   3.918   3.354  0.00  0.00    +0.004 A 
ATOM     12  C   UNL     1      -3.402   3.938   1.975  0.00  0.00    +0.004 A 
ATOM     13  C   UNL     1      -2.196   3.658   1.361  0.00  0.00    +0.049 A 
ATOM     14  C   UNL     1      -1.080   3.356   2.126  0.00  0.00    +0.162 A 
ATOM     15  O   UNL     1       0.102   3.085   1.505  0.00  0.00    -0.484 OA
ENDBRANCH   5   6
ENDBRANCH   1   5
BRANCH   1  16
ATOM     16  C   UNL     1       3.559   2.110  -0.539  0.00  0.00    +0.019 C 
BRANCH  16  17
ATOM     17  C   UNL     1       3.486   3.504  -1.106  0.00  0.00    +0.201 C 
ATOM     18  O   UNL     1       2.568   4.235  -0.801  0.00  0.00    -0.278 OA
ATOM     19  N   UNL     1       4.442   3.939  -1.951  0.00  0.00    -0.285 N 
ATOM     20  H   UNL     1       5.305   3.297  -2.182  0.00  0.00    +0.155 HD
BRANCH  19  21
ATOM     21  C   UNL     1       4.337   5.207  -2.534  0.00  0.00    +0.062 A 
ATOM     22  C   UNL     1       3.125   5.631  -3.065  0.00  0.00    +0.040 A 
ATOM     23  C   UNL     1       3.023   6.885  -3.637  0.00  0.00    +0.020 A 
ATOM     24  C   UNL     1       4.128   7.714  -3.689  0.00  0.00    -0.048 A 
ATOM     25  C   UNL     1       5.338   7.294  -3.165  0.00  0.00    +0.020 A 
ATOM     26  C   UNL     1       5.445   6.043  -2.588  0.00  0.00    +0.040 A 
ATOM     27 BR   UNL     1       7.099   5.470  -1.873  0.00  0.00    -0.048 Br
ATOM     28  C   UNL     1       4.015   9.079  -4.317  0.00  0.00    +0.044 C 
ATOM     29 BR   UNL     1       1.615   4.494  -3.002  0.00  0.00    -0.048 Br
ENDBRANCH  19  21
ENDBRANCH  16  17
ENDBRANCH   1  16
TORSDOF 6
