REMARK  Name = ZINC12652419
REMARK  6 active torsions:
REMARK  status: ('A' for Active; 'I' for Inactive)
REMARK    1  A    between atoms: C_1  and  O_2
REMARK    2  A    between atoms: O_2  and  C_3
REMARK    3  A    between atoms: C_8  and  C_9
REMARK    4  A    between atoms: C_14  and  C_19
REMARK    5  A    between atoms: C_32  and  C_34
REMARK    6  A    between atoms: C_34  and  C_35
REMARK                            x       y       z     vdW  Elec       q    Type
REMARK                         _______ _______ _______ _____ _____    ______ ____
ROOT
ATOM      1  C   UNL     1      -0.013   1.086   0.008  0.00  0.00    +0.150 C 
ATOM      2  C   UNL     1      -0.911   1.395   1.182  0.00  0.00    +0.037 C 
ATOM      3  C   UNL     1      -0.687   2.326   2.123  0.00  0.00    +0.017 C 
ATOM      4  C   UNL     1      -1.700   2.557   3.232  0.00  0.00    +0.063 C 
ATOM      5  C   UNL     1      -2.385   1.240   3.592  0.00  0.00    +0.068 C 
ATOM      6  C   UNL     1      -3.088   0.720   2.333  0.00  0.00    +0.091 C 
ATOM      7  C   UNL     1      -2.074   0.590   1.238  0.00  0.00    +0.163 C 
ATOM      8  O   UNL     1      -2.256  -0.236   0.365  0.00  0.00    -0.292 OA
ATOM      9  N   UNL     1       0.404   3.133   2.174  0.00  0.00    -0.316 N 
ATOM     10  C   UNL     1       0.924   3.832   1.092  0.00  0.00    +0.053 A 
ATOM     11  C   UNL     1       0.991   5.214   1.069  0.00  0.00    +0.025 A 
ATOM     12  C   UNL     1       1.619   5.845   0.009  0.00  0.00    +0.002 A 
ATOM     13  C   UNL     1       2.174   5.101  -1.016  0.00  0.00    +0.002 A 
ATOM     14  C   UNL     1       2.090   3.720  -1.004  0.00  0.00    +0.025 A 
ATOM     15  C   UNL     1       1.446   3.086   0.046  0.00  0.00    +0.058 A 
ATOM     16  N   UNL     1       1.297   1.699   0.079  0.00  0.00    -0.258 N 
ATOM     17  C   UNL     1       2.390   0.917   0.180  0.00  0.00    +0.225 C 
ATOM     18  O   UNL     1       2.272  -0.290   0.210  0.00  0.00    -0.275 OA
ATOM     19  H   UNL     1       0.853   3.228   3.029  0.00  0.00    +0.152 HD
ENDROOT
BRANCH   1  25
ATOM     20  C   UNL     1      -0.341   1.019  -2.477  0.00  0.00    +0.125 A 
ATOM     21  C   UNL     1      -0.971   1.458  -3.633  0.00  0.00    +0.046 A 
ATOM     22  C   UNL     1      -1.949   2.431  -3.559  0.00  0.00    +0.004 A 
ATOM     23  C   UNL     1      -2.299   2.968  -2.334  0.00  0.00    +0.001 A 
ATOM     24  C   UNL     1      -1.677   2.529  -1.180  0.00  0.00    +0.009 A 
ATOM     25  C   UNL     1      -0.695   1.560  -1.249  0.00  0.00    +0.020 A 
BRANCH  20  27
ATOM     26  C   UNL     1       0.933  -0.450  -3.845  0.00  0.00    +0.277 C 
ATOM     27  O   UNL     1       0.621   0.062  -2.547  0.00  0.00    -0.495 OA
ENDBRANCH  20  27
ENDBRANCH   1  25
BRANCH   5  28
ATOM     28  C   UNL     1      -3.397   1.473   4.684  0.00  0.00    +0.109 A 
ATOM     29  C   UNL     1      -3.390   0.897   5.900  0.00  0.00    +0.045 A 
ATOM     30  C   UNL     1      -4.513   1.397   6.598  0.00  0.00    +0.041 A 
ATOM     31  C   UNL     1      -5.140   2.249   5.766  0.00  0.00    +0.195 A 
ATOM     32  O   UNL     1      -4.457   2.296   4.611  0.00  0.00    -0.468 OA
ENDBRANCH   5  28
BRANCH  17  33
ATOM     33  C   UNL     1       3.759   1.542   0.255  0.00  0.00    +0.138 C 
BRANCH  33  34
ATOM     34  C   UNL     1       4.801   0.458   0.361  0.00  0.00    -0.001 A 
ATOM     35  C   UNL     1       5.460  -0.193  -0.629  0.00  0.00    +0.011 A 
ATOM     36  C   UNL     1       6.388  -1.161  -0.292  0.00  0.00    +0.008 A 
ATOM     37  C   UNL     1       6.604  -1.438   1.017  0.00  0.00    +0.045 A 
ATOM     38  S   UNL     1       5.482  -0.307   1.823  0.00  0.00    -0.101 S 
ENDBRANCH  33  34
ENDBRANCH  17  33
TORSDOF 5
