REMARK  Name = ZINC31158282
REMARK  13 active torsions:
REMARK  status: ('A' for Active; 'I' for Inactive)
REMARK    1  A    between atoms: C_1  and  C_2
REMARK    2  A    between atoms: C_4  and  O_39
REMARK    3  A    between atoms: C_6  and  O_38
REMARK    4  A    between atoms: C_8  and  O_37
REMARK    5  A    between atoms: C_10  and  O_13
REMARK    6  A    between atoms: O_13  and  C_14
REMARK    7  A    between atoms: C_18  and  O_36
REMARK    8  A    between atoms: C_20  and  O_35
REMARK    9  A    between atoms: C_24  and  C_25
REMARK   10  A    between atoms: C_27  and  O_34
REMARK   11  A    between atoms: C_28  and  O_32
REMARK   12  A    between atoms: C_29  and  O_31
REMARK   13  A    between atoms: O_32  and  C_33
REMARK                            x       y       z     vdW  Elec       q    Type
REMARK                         _______ _______ _______ _____ _____    ______ ____
ROOT
ATOM      1  C   UNL     1      -0.840  -1.945   2.742  0.00  0.00    +0.214 A 
ATOM      2  C   UNL     1      -2.070  -2.415   3.272  0.00  0.00    +0.238 A 
ATOM      3  O   UNL     1      -2.650  -3.369   2.779  0.00  0.00    -0.283 OA
ATOM      4  C   UNL     1      -2.618  -1.706   4.439  0.00  0.00    +0.109 A 
ATOM      5  C   UNL     1      -3.827  -2.102   5.027  0.00  0.00    +0.135 A 
ATOM      6  C   UNL     1      -4.309  -1.412   6.123  0.00  0.00    +0.091 A 
ATOM      7  C   UNL     1      -3.599  -0.332   6.636  0.00  0.00    +0.124 A 
ATOM      8  C   UNL     1      -2.403   0.066   6.060  0.00  0.00    +0.092 A 
ATOM      9  C   UNL     1      -1.902  -0.615   4.960  0.00  0.00    +0.147 A 
ATOM     10  O   UNL     1      -0.739  -0.240   4.388  0.00  0.00    -0.451 OA
ATOM     11  C   UNL     1      -0.222  -0.880   3.325  0.00  0.00    +0.181 A 
ENDROOT
BRANCH  11  12
ATOM     12  C   UNL     1       1.059  -0.409   2.766  0.00  0.00    +0.028 A 
ATOM     13  C   UNL     1       1.188  -0.201   1.390  0.00  0.00    +0.061 A 
ATOM     14  C   UNL     1       2.389   0.242   0.869  0.00  0.00    +0.163 A 
ATOM     15  C   UNL     1       3.470   0.479   1.713  0.00  0.00    +0.203 A 
ATOM     16  C   UNL     1       3.345   0.272   3.084  0.00  0.00    +0.163 A 
ATOM     17  C   UNL     1       2.144  -0.164   3.612  0.00  0.00    +0.061 A 
BRANCH  16  18
ATOM     18  O   UNL     1       4.404   0.505   3.906  0.00  0.00    -0.503 OA
ATOM     19  H   UNL     1       4.446   1.409   4.246  0.00  0.00    +0.292 HD
ENDBRANCH  16  18
BRANCH  15  20
ATOM     20  O   UNL     1       4.651   0.914   1.198  0.00  0.00    -0.489 OA
ATOM     21  C   UNL     1       4.835   2.328   1.099  0.00  0.00    +0.277 C 
ENDBRANCH  15  20
BRANCH  14  22
ATOM     22  O   UNL     1       2.516   0.444  -0.470  0.00  0.00    -0.503 OA
ATOM     23  H   UNL     1       2.305   1.344  -0.753  0.00  0.00    +0.292 HD
ENDBRANCH  14  22
ENDBRANCH  11  12
BRANCH   7  24
ATOM     24  O   UNL     1      -4.082   0.340   7.713  0.00  0.00    -0.507 OA
ATOM     25  H   UNL     1      -3.782  -0.010   8.562  0.00  0.00    +0.292 HD
ENDBRANCH   7  24
BRANCH   5  26
ATOM     26  O   UNL     1      -4.519  -3.156   4.524  0.00  0.00    -0.506 OA
ATOM     27  H   UNL     1      -4.280  -4.007   4.916  0.00  0.00    +0.292 HD
ENDBRANCH   5  26
BRANCH   1  28
ATOM     28  O   UNL     1      -0.279  -2.558   1.663  0.00  0.00    -0.453 OA
BRANCH  28  34
ATOM     29  C   UNL     1       3.582  -3.451   3.041  0.00  0.00    +0.041 C 
ATOM     30  C   UNL     1       2.394  -3.311   2.088  0.00  0.00    +0.150 C 
ATOM     31  C   UNL     1       2.762  -3.897   0.723  0.00  0.00    +0.174 C 
ATOM     32  C   UNL     1       1.548  -3.808  -0.207  0.00  0.00    +0.180 C 
ATOM     33  C   UNL     1       0.369  -4.540   0.440  0.00  0.00    +0.214 C 
ATOM     34  C   UNL     1       0.092  -3.929   1.816  0.00  0.00    +0.339 C 
ATOM     35  O   UNL     1       1.270  -4.017   2.620  0.00  0.00    -0.334 OA
BRANCH  33  36
ATOM     36  O   UNL     1       0.688  -5.925   0.586  0.00  0.00    -0.383 OA
ATOM     37  H   UNL     1      -0.044  -6.464   0.915  0.00  0.00    +0.210 HD
ENDBRANCH  33  36
BRANCH  32  38
ATOM     38  O   UNL     1       1.861  -4.417  -1.462  0.00  0.00    -0.386 OA
ATOM     39  H   UNL     1       1.136  -4.396  -2.100  0.00  0.00    +0.210 HD
ENDBRANCH  32  38
BRANCH  31  40
ATOM     40  O   UNL     1       3.849  -3.157   0.163  0.00  0.00    -0.387 OA
ATOM     41  H   UNL     1       4.651  -3.167   0.704  0.00  0.00    +0.210 HD
ENDBRANCH  31  40
ENDBRANCH  28  34
ENDBRANCH   1  28
TORSDOF 11
