REMARK  Name = ZINC38970785
REMARK  4 active torsions:
REMARK  status: ('A' for Active; 'I' for Inactive)
REMARK    1  A    between atoms: C_1  and  C_2
REMARK    2  A    between atoms: C_7  and  C_9
REMARK    3  A    between atoms: C_11  and  N_25
REMARK    4  A    between atoms: C_16  and  C_20
REMARK                            x       y       z     vdW  Elec       q    Type
REMARK                         _______ _______ _______ _____ _____    ______ ____
ROOT
ATOM      1  C   UNL     1       0.056  -5.164   3.181  0.00  0.00    +0.129 C 
ATOM      2  C   UNL     1      -0.632  -6.496   2.806  0.00  0.00    -0.019 C 
ATOM      3  C   UNL     1       0.347  -7.488   2.230  0.00  0.00    -0.028 A 
ATOM      4  C   UNL     1       0.043  -8.600   1.435  0.00  0.00    +0.007 A 
ATOM      5  C   UNL     1       1.059  -9.425   0.999  0.00  0.00    +0.029 A 
ATOM      6  C   UNL     1       2.379  -9.145   1.353  0.00  0.00    +0.079 A 
ATOM      7  N   UNL     1       2.648  -8.080   2.103  0.00  0.00    -0.240 NA
ATOM      8  C   UNL     1       1.694  -7.273   2.524  0.00  0.00    +0.100 A 
ATOM      9  S   UNL     1       1.764  -5.776   3.489  0.00  0.00    -0.094 S 
ENDROOT
BRANCH   1  16
ATOM     10  C   UNL     1       2.476  -2.268  -3.155  0.00  0.00    +0.066 C 
ATOM     11  C   UNL     1       1.555  -2.362  -1.966  0.00  0.00    +0.047 A 
ATOM     12  C   UNL     1       0.520  -1.502  -1.802  0.00  0.00    +0.071 A 
ATOM     13  S   UNL     1      -0.171  -2.101  -0.269  0.00  0.00    -0.060 S 
ATOM     14  C   UNL     1       0.911  -3.362  -0.003  0.00  0.00    +0.165 A 
ATOM     15  N   UNL     1       0.943  -4.264   1.054  0.00  0.00    -0.264 N 
ATOM     16  C   UNL     1       0.022  -4.186   2.035  0.00  0.00    +0.231 C 
ATOM     17  O   UNL     1      -0.835  -3.329   1.995  0.00  0.00    -0.274 OA
ATOM     18  N   UNL     1       1.717  -3.289  -1.040  0.00  0.00    -0.230 NA
ATOM     19  H   UNL     1       1.628  -4.950   1.086  0.00  0.00    +0.157 HD
ENDBRANCH   1  16
BRANCH   6  20
ATOM     20  C   UNL     1       3.472 -10.028   0.899  0.00  0.00    +0.038 A 
ATOM     21  C   UNL     1       4.817  -9.931   1.141  0.00  0.00    +0.017 A 
ATOM     22  C   UNL     1       5.656 -10.883   0.607  0.00  0.00    +0.008 A 
ATOM     23  C   UNL     1       5.127 -11.886  -0.141  0.00  0.00    +0.046 A 
ATOM     24  S   UNL     1       3.384 -11.503  -0.103  0.00  0.00    -0.095 S 
ENDBRANCH   6  20
BRANCH   2  25
ATOM     25  N   UNL     1      -1.680  -6.230   1.812  0.00  0.00    +0.384 N 
ATOM     26  H   UNL     1      -1.256  -5.925   0.949  0.00  0.00    -0.089 HD
ATOM     27  H   UNL     1      -2.209  -7.073   1.647  0.00  0.00    -0.089 HD
ATOM     28  H   UNL     1      -2.296  -5.509   2.157  0.00  0.00    -0.089 HD
ENDBRANCH   2  25
TORSDOF 3
