REMARK  Name = ZINC43257345
REMARK  8 active torsions:
REMARK  status: ('A' for Active; 'I' for Inactive)
REMARK    1  A    between atoms: C_1  and  C_2
REMARK    2  A    between atoms: C_2  and  C_3
REMARK    3  A    between atoms: C_3  and  C_5
REMARK    4  A    between atoms: C_3  and  N_23
REMARK    5  A    between atoms: C_5  and  C_7
REMARK    6  A    between atoms: C_5  and  S_13
REMARK    7  A    between atoms: S_13  and  C_14
REMARK    8  A    between atoms: C_17  and  C_22
REMARK                            x       y       z     vdW  Elec       q    Type
REMARK                         _______ _______ _______ _____ _____    ______ ____
ROOT
ATOM      1  C   UNL     1       0.627  -2.071   1.302  0.00  0.00    +0.076 C 
ENDROOT
BRANCH   1   2
ATOM      2  C   UNL     1      -0.810  -2.501   1.448  0.00  0.00    +0.003 A 
ATOM      3  C   UNL     1      -1.563  -3.258   0.613  0.00  0.00    +0.014 A 
ATOM      4  C   UNL     1      -2.875  -3.530   0.954  0.00  0.00    +0.028 A 
ATOM      5  C   UNL     1      -3.369  -3.032   2.114  0.00  0.00    +0.078 A 
ATOM      6  S   UNL     1      -1.959  -2.154   2.769  0.00  0.00    -0.081 S 
ATOM      7 CL   UNL     1      -4.958  -3.207   2.791  0.00  0.00    -0.076 Cl
ENDBRANCH   1   2
BRANCH   1   8
ATOM      8  C   UNL     1       0.702  -0.543   1.288  0.00  0.00    -0.057 C 
BRANCH   8   9
ATOM      9  N   UNL     1       2.109  -0.122   1.254  0.00  0.00    +0.381 N 
ATOM     10  H   UNL     1       2.162   0.883   1.323  0.00  0.00    -0.090 HD
ATOM     11  H   UNL     1       2.603  -0.538   2.029  0.00  0.00    -0.090 HD
ATOM     12  H   UNL     1       2.529  -0.422   0.387  0.00  0.00    -0.090 HD
ENDBRANCH   8   9
BRANCH   8  14
ATOM     13  C   UNL     1      -0.053   1.521   0.100  0.00  0.00    +0.002 C 
ATOM     14  C   UNL     1      -0.020  -0.007   0.050  0.00  0.00    -0.018 C 
ENDBRANCH   8  14
ENDBRANCH   1   8
BRANCH   1  15
ATOM     15  S   UNL     1       1.595  -2.711   2.696  0.00  0.00    -0.081 S 
BRANCH  15  16
ATOM     16  C   UNL     1       1.615  -4.454   2.435  0.00  0.00    +0.170 A 
ATOM     17  N   UNL     1       0.921  -4.969   1.439  0.00  0.00    -0.228 NA
ATOM     18  H   UNL     1       2.861  -4.851   3.988  0.00  0.00    +0.171 HD
ATOM     19  C   UNL     1       0.910  -6.279   1.207  0.00  0.00    +0.046 A 
ATOM     20  C   UNL     1       1.626  -7.122   2.007  0.00  0.00    +0.093 A 
ATOM     21  C   UNL     1       2.370  -6.582   3.071  0.00  0.00    +0.252 A 
ATOM     22  O   UNL     1       3.021  -7.307   3.805  0.00  0.00    -0.268 OA
ATOM     23  N   UNL     1       2.353  -5.246   3.262  0.00  0.00    -0.302 N 
ATOM     24  C   UNL     1       0.105  -6.833   0.060  0.00  0.00    +0.066 C 
ENDBRANCH  15  16
ENDBRANCH   1  15
TORSDOF 6
