REMARK  Name = ZINC48786678
REMARK  6 active torsions:
REMARK  status: ('A' for Active; 'I' for Inactive)
REMARK    1  A    between atoms: C_1  and  C_2
REMARK    2  A    between atoms: C_4  and  C_20
REMARK    3  A    between atoms: C_6  and  C_8
REMARK    4  A    between atoms: C_8  and  O_9
REMARK    5  A    between atoms: O_9  and  C_10
REMARK    6  A    between atoms: C_13  and  C_17
REMARK                            x       y       z     vdW  Elec       q    Type
REMARK                         _______ _______ _______ _____ _____    ______ ____
ROOT
ATOM      1  C   UNL     1       1.599  -3.744   4.054  0.00  0.00    +0.139 A 
ATOM      2  C   UNL     1       0.505  -4.190   4.786  0.00  0.00    +0.048 A 
ATOM      3  C   UNL     1       0.696  -4.877   5.964  0.00  0.00    +0.015 A 
ATOM      4  C   UNL     1       1.991  -5.127   6.423  0.00  0.00    +0.014 A 
ATOM      5  C   UNL     1       3.089  -4.678   5.686  0.00  0.00    +0.035 A 
ATOM      6  C   UNL     1       2.890  -3.995   4.505  0.00  0.00    +0.083 A 
ATOM      7 CL   UNL     1       4.253  -3.442   3.583  0.00  0.00    -0.080 Cl
ENDROOT
BRANCH   4   8
ATOM      8  C   UNL     1       2.200  -5.863   7.687  0.00  0.00    +0.094 C 
ATOM      9  N   UNL     1       3.436  -6.100   8.124  0.00  0.00    -0.387 N 
ATOM     10  N   UNL     1       1.151  -6.290   8.390  0.00  0.00    -0.345 N 
ATOM     11  H   UNL     1       4.199  -5.789   7.612  0.00  0.00    +0.157 HD
ATOM     12  H   UNL     1       0.252  -6.117   8.072  0.00  0.00    +0.144 HD
ATOM     13  H   UNL     1       1.288  -6.773   9.220  0.00  0.00    +0.144 HD
ATOM     14  H   UNL     1       3.573  -6.583   8.954  0.00  0.00    +0.157 HD
ENDBRANCH   4   8
BRANCH   1  15
ATOM     15  O   UNL     1       1.406  -3.067   2.893  0.00  0.00    -0.486 OA
BRANCH  15  16
ATOM     16  C   UNL     1       0.054  -2.844   2.489  0.00  0.00    +0.264 C 
BRANCH  16  22
ATOM     17  C   UNL     1      -0.018   1.503   0.010  0.00  0.00    +0.044 C 
ATOM     18  C   UNL     1       0.002  -0.004   0.002  0.00  0.00    -0.050 A 
ATOM     19  C   UNL     1       0.006  -0.689  -1.199  0.00  0.00    +0.006 A 
ATOM     20  C   UNL     1       0.025  -2.071  -1.206  0.00  0.00    -0.050 A 
ATOM     21  C   UNL     1       0.040  -2.768  -0.013  0.00  0.00    +0.010 A 
ATOM     22  C   UNL     1       0.037  -2.084   1.188  0.00  0.00    -0.010 A 
ATOM     23  C   UNL     1       0.023  -0.702   1.195  0.00  0.00    +0.010 A 
ATOM     24  C   UNL     1       0.027  -2.817  -2.516  0.00  0.00    +0.044 C 
ENDBRANCH  16  22
ENDBRANCH  15  16
ENDBRANCH   1  15
TORSDOF 4
