REMARK  Name = ZINC08964814
REMARK  9 active torsions:
REMARK  status: ('A' for Active; 'I' for Inactive)
REMARK    1  A    between atoms: C_1  and  C_2
REMARK    2  A    between atoms: C_6  and  C_36
REMARK    3  A    between atoms: C_6  and  O_37
REMARK    4  A    between atoms: C_7  and  O_35
REMARK    5  A    between atoms: C_17  and  C_19
REMARK    6  A    between atoms: C_19  and  N_73
REMARK    7  A    between atoms: N_22  and  C_25
REMARK    8  A    between atoms: C_29  and  C_31
REMARK    9  A    between atoms: O_37  and  C_38
REMARK                            x       y       z     vdW  Elec       q    Type
REMARK                         _______ _______ _______ _____ _____    ______ ____
ROOT
ATOM      1  C   UNL     1       3.266   0.974  -1.952  0.00  0.00    +0.014 C 
ATOM      2  C   UNL     1       1.763   0.652  -1.886  0.00  0.00    +0.003 C 
ATOM      3  C   UNL     1       1.523  -0.735  -2.477  0.00  0.00    +0.010 C 
ATOM      4  C   UNL     1       1.876  -0.732  -3.963  0.00  0.00    +0.003 C 
ATOM      5  C   UNL     1       0.999   0.271  -4.702  0.00  0.00    +0.037 C 
ATOM      6  C   UNL     1       1.117   1.677  -4.129  0.00  0.00    +0.095 C 
ATOM      7  C   UNL     1       0.936   1.703  -2.608  0.00  0.00    +0.100 C 
ATOM      8  C   UNL     1      -0.557   1.468  -2.358  0.00  0.00    +0.046 C 
ATOM      9  C   UNL     1      -0.962   1.243  -0.936  0.00  0.00    +0.044 C 
ATOM     10  C   UNL     1      -0.051   0.274  -0.159  0.00  0.00    +0.181 C 
ATOM     11  C   UNL     1       1.412   0.639  -0.395  0.00  0.00    +0.054 C 
ATOM     12  O   UNL     1      -0.342   0.614   1.244  0.00  0.00    -0.461 OA
ATOM     13  C   UNL     1      -0.763   1.886   1.347  0.00  0.00    +0.309 C 
ATOM     14  O   UNL     1      -1.003   2.466   2.382  0.00  0.00    -0.251 OA
ATOM     15  C   UNL     1      -0.894   2.494  -0.043  0.00  0.00    +0.088 C 
ATOM     16  C   UNL     1       2.414   2.345  -4.574  0.00  0.00    +0.044 C 
ENDROOT
BRANCH   7  17
ATOM     17  O   UNL     1       1.293   3.012  -2.131  0.00  0.00    -0.385 OA
ATOM     18  H   UNL     1       0.881   3.736  -2.623  0.00  0.00    +0.210 HD
ENDBRANCH   7  17
BRANCH   6  19
ATOM     19  O   UNL     1       0.035   2.457  -4.698  0.00  0.00    -0.374 OA
ATOM     20  C   UNL     1       0.068   2.543  -6.124  0.00  0.00    +0.194 C 
ENDBRANCH   6  19
BRANCH  15  21
ATOM     21  C   UNL     1      -2.185   3.308  -0.150  0.00  0.00    -0.064 C 
BRANCH  21  27
ATOM     22  C   UNL     1      -1.363   4.952  -1.726  0.00  0.00    -0.060 C 
ATOM     23  C   UNL     1      -1.470   5.436  -3.174  0.00  0.00    +0.086 C 
ATOM     24  N   UNL     1      -2.848   5.869  -3.443  0.00  0.00    -0.333 N 
ATOM     25  C   UNL     1      -3.796   4.767  -3.226  0.00  0.00    +0.086 C 
ATOM     26  C   UNL     1      -3.689   4.284  -1.778  0.00  0.00    -0.060 C 
ATOM     27  N   UNL     1      -2.304   3.830  -1.528  0.00  0.00    +0.382 N 
ATOM     28  H   UNL     1      -2.074   3.080  -2.190  0.00  0.00    -0.082 HD
BRANCH  24  29
ATOM     29  C   UNL     1      -2.967   6.385  -4.735  0.00  0.00    +0.030 A 
ATOM     30  C   UNL     1      -3.897   5.847  -5.617  0.00  0.00    +0.023 A 
ATOM     31  C   UNL     1      -4.013   6.359  -6.894  0.00  0.00    +0.002 A 
ATOM     32  C   UNL     1      -3.204   7.407  -7.296  0.00  0.00    +0.012 A 
ATOM     33  C   UNL     1      -2.278   7.945  -6.421  0.00  0.00    +0.057 A 
ATOM     34  C   UNL     1      -2.161   7.441  -5.141  0.00  0.00    +0.035 A 
BRANCH  33  35
ATOM     35  C   UNL     1      -1.400   9.086  -6.864  0.00  0.00    +0.417 C 
ATOM     36  F   UNL     1      -1.704   9.423  -8.188  0.00  0.00    -0.166 F 
ATOM     37  F   UNL     1      -1.622  10.194  -6.038  0.00  0.00    -0.166 F 
ATOM     38  F   UNL     1      -0.057   8.702  -6.778  0.00  0.00    -0.166 F 
ENDBRANCH  33  35
ENDBRANCH  24  29
ENDBRANCH  21  27
ENDBRANCH  15  21
TORSDOF 6
