REMARK  Name = ZINC04951172
REMARK  5 active torsions:
REMARK  status: ('A' for Active; 'I' for Inactive)
REMARK    1  A    between atoms: C_1  and  C_2
REMARK    2  A    between atoms: C_2  and  S_3
REMARK    3  A    between atoms: S_3  and  C_4
REMARK    4  A    between atoms: C_16  and  N_36
REMARK    5  A    between atoms: N_17  and  N_18
REMARK                            x       y       z     vdW  Elec       q    Type
REMARK                         _______ _______ _______ _____ _____    ______ ____
ROOT
ATOM      1  C   UNL     1      -0.548  -2.183   0.327  0.00  0.00    +0.191 A 
ATOM      2  N   UNL     1       0.729  -2.546   0.300  0.00  0.00    -0.205 NA
ATOM      3  C   UNL     1       1.693  -1.702  -0.025  0.00  0.00    +0.145 A 
ATOM      4  C   UNL     1       1.359  -0.359  -0.358  0.00  0.00    +0.052 A 
ATOM      5  C   UNL     1       2.247   0.738  -0.743  0.00  0.00    -0.028 A 
ATOM      6  C   UNL     1       1.671   1.929  -1.011  0.00  0.00    -0.021 A 
ATOM      7  S   UNL     1      -0.064   1.668  -0.771  0.00  0.00    -0.075 S 
ATOM      8  C   UNL     1      -0.015  -0.045  -0.309  0.00  0.00    +0.115 A 
ATOM      9  N   UNL     1      -0.918  -0.946   0.026  0.00  0.00    -0.215 NA
ATOM     10  C   UNL     1       2.372   3.188  -1.419  0.00  0.00    -0.036 C 
ATOM     11  C   UNL     1       4.303   1.751  -1.682  0.00  0.00    -0.074 C 
ATOM     12  C   UNL     1       3.762   0.584  -0.851  0.00  0.00    +0.018 C 
ATOM     13  C   UNL     1       4.582   4.157  -1.676  0.00  0.00    -0.096 C 
ATOM     14  N   UNL     1       3.011  -2.119  -0.041  0.00  0.00    -0.267 N 
ATOM     15  H   UNL     1       3.725  -1.466  -0.118  0.00  0.00    +0.167 HD
ATOM     16  N   UNL     1       3.814   3.024  -1.115  0.00  0.00    +0.381 N 
ATOM     17  H   UNL     1       3.941   3.006  -0.096  0.00  0.00    -0.082 HD
ENDROOT
BRANCH  14  18
ATOM     18  N   UNL     1       3.308  -3.449   0.052  0.00  0.00    -0.255 NA
ATOM     19  H   UNL     1       2.845  -3.974  -0.674  0.00  0.00    +0.140 HD
ATOM     20  H   UNL     1       4.306  -3.599   0.028  0.00  0.00    +0.140 HD
ENDBRANCH  14  18
BRANCH   1  21
ATOM     21  S   UNL     1      -1.775  -3.368   0.771  0.00  0.00    -0.086 S 
BRANCH  21  23
ATOM     22  C   UNL     1      -4.492  -3.186   0.989  0.00  0.00    +0.016 C 
ATOM     23  C   UNL     1      -3.262  -2.345   0.638  0.00  0.00    +0.074 C 
ENDBRANCH  21  23
ENDBRANCH   1  21
TORSDOF 3
