REMARK  Name = ZINC14066549
REMARK  11 active torsions:
REMARK  status: ('A' for Active; 'I' for Inactive)
REMARK    1  A    between atoms: C_1  and  N_63
REMARK    2  A    between atoms: C_2  and  C_3
REMARK    3  A    between atoms: C_2  and  N_63
REMARK    4  A    between atoms: N_5  and  C_6
REMARK    5  A    between atoms: C_11  and  S_12
REMARK    6  A    between atoms: S_12  and  C_13
REMARK    7  A    between atoms: C_19  and  C_20
REMARK    8  A    between atoms: C_19  and  N_63
REMARK    9  A    between atoms: N_22  and  C_23
REMARK   10  A    between atoms: C_28  and  S_29
REMARK   11  A    between atoms: S_29  and  C_30
REMARK                            x       y       z     vdW  Elec       q    Type
REMARK                         _______ _______ _______ _____ _____    ______ ____
ROOT
ATOM      1  C   UNL     1      -2.141  12.730  -2.279  0.00  0.00    -0.095 C 
ATOM      2  N   UNL     1      -1.709  12.227  -0.958  0.00  0.00    +0.389 N 
ATOM      3  H   UNL     1      -2.538  12.060  -0.377  0.00  0.00    -0.081 HD
ENDROOT
BRANCH   2   4
ATOM      4  C   UNL     1      -0.971  10.957  -1.118  0.00  0.00    +0.019 C 
BRANCH   4   5
ATOM      5  C   UNL     1      -1.929   9.895  -1.593  0.00  0.00    +0.201 C 
ATOM      6  O   UNL     1      -3.092  10.173  -1.792  0.00  0.00    -0.278 OA
ATOM      7  N   UNL     1      -1.492   8.636  -1.796  0.00  0.00    -0.286 N 
ATOM      8  H   UNL     1      -0.557   8.419  -1.659  0.00  0.00    +0.155 HD
BRANCH   7   9
ATOM      9  C   UNL     1      -2.389   7.641  -2.205  0.00  0.00    +0.047 A 
ATOM     10  C   UNL     1      -3.587   7.990  -2.809  0.00  0.00    +0.024 A 
ATOM     11  C   UNL     1      -4.472   7.007  -3.212  0.00  0.00    +0.002 A 
ATOM     12  C   UNL     1      -4.166   5.673  -3.015  0.00  0.00    +0.001 A 
ATOM     13  C   UNL     1      -2.972   5.314  -2.418  0.00  0.00    +0.017 A 
ATOM     14  C   UNL     1      -2.081   6.295  -2.006  0.00  0.00    +0.034 A 
BRANCH  14  15
ATOM     15  S   UNL     1      -0.561   5.841  -1.238  0.00  0.00    -0.088 S 
BRANCH  15  16
ATOM     16  C   UNL     1      -0.827   6.182   0.470  0.00  0.00    +0.013 A 
ATOM     17  C   UNL     1       0.154   5.869   1.403  0.00  0.00    +0.015 A 
ATOM     18  C   UNL     1      -0.059   6.137   2.741  0.00  0.00    +0.001 A 
ATOM     19  C   UNL     1      -1.246   6.715   3.152  0.00  0.00    +0.000 A 
ATOM     20  C   UNL     1      -2.226   7.022   2.227  0.00  0.00    +0.001 A 
ATOM     21  C   UNL     1      -2.019   6.763   0.887  0.00  0.00    +0.015 A 
ENDBRANCH  15  16
ENDBRANCH  14  15
ENDBRANCH   7   9
ENDBRANCH   4   5
ENDBRANCH   2   4
BRANCH   2  22
ATOM     22  C   UNL     1      -0.850  13.230  -0.292  0.00  0.00    +0.019 C 
BRANCH  22  23
ATOM     23  C   UNL     1      -1.688  14.433   0.056  0.00  0.00    +0.201 C 
ATOM     24  O   UNL     1      -2.866  14.457  -0.236  0.00  0.00    -0.278 OA
ATOM     25  N   UNL     1      -1.130  15.482   0.691  0.00  0.00    -0.286 N 
ATOM     26  H   UNL     1      -0.173  15.502   0.847  0.00  0.00    +0.155 HD
BRANCH  25  27
ATOM     27  C   UNL     1      -1.932  16.545   1.127  0.00  0.00    +0.047 A 
ATOM     28  C   UNL     1      -3.294  16.359   1.310  0.00  0.00    +0.024 A 
ATOM     29  C   UNL     1      -4.084  17.409   1.740  0.00  0.00    +0.002 A 
ATOM     30  C   UNL     1      -3.520  18.647   1.989  0.00  0.00    +0.001 A 
ATOM     31  C   UNL     1      -2.164  18.843   1.809  0.00  0.00    +0.017 A 
ATOM     32  C   UNL     1      -1.362  17.793   1.383  0.00  0.00    +0.034 A 
BRANCH  32  33
ATOM     33  S   UNL     1       0.368  18.036   1.160  0.00  0.00    -0.088 S 
BRANCH  33  34
ATOM     34  C   UNL     1       1.097  17.180   2.517  0.00  0.00    +0.013 A 
ATOM     35  C   UNL     1       0.296  16.475   3.407  0.00  0.00    +0.015 A 
ATOM     36  C   UNL     1       0.872  15.800   4.465  0.00  0.00    +0.001 A 
ATOM     37  C   UNL     1       2.243  15.835   4.647  0.00  0.00    +0.000 A 
ATOM     38  C   UNL     1       3.042  16.541   3.767  0.00  0.00    +0.001 A 
ATOM     39  C   UNL     1       2.474  17.213   2.703  0.00  0.00    +0.015 A 
ENDBRANCH  33  34
ENDBRANCH  32  33
ENDBRANCH  25  27
ENDBRANCH  22  23
ENDBRANCH   2  22
TORSDOF 10
