REMARK  Name = ZINC08199723
REMARK  7 active torsions:
REMARK  status: ('A' for Active; 'I' for Inactive)
REMARK    1  A    between atoms: C_1  and  C_2
REMARK    2  A    between atoms: C_2  and  C_4
REMARK    3  A    between atoms: C_2  and  N_40
REMARK    4  A    between atoms: C_11  and  C_12
REMARK    5  A    between atoms: C_11  and  N_40
REMARK    6  A    between atoms: N_17  and  C_18
REMARK    7  A    between atoms: C_18  and  C_19
REMARK                            x       y       z     vdW  Elec       q    Type
REMARK                         _______ _______ _______ _____ _____    ______ ____
ROOT
ATOM      1  C   UNL     1       2.125   0.993   1.166  0.00  0.00    +0.203 C 
ATOM      2  O   UNL     1       1.591   0.219   1.931  0.00  0.00    -0.277 OA
ATOM      3  N   UNL     1       3.408   1.356   1.360  0.00  0.00    -0.242 N 
ATOM      4  C   UNL     1       4.099   0.858   2.405  0.00  0.00    +0.306 C 
ATOM      5  O   UNL     1       3.564   0.082   3.172  0.00  0.00    -0.252 OA
ATOM      6  N   UNL     1       5.382   1.221   2.599  0.00  0.00    -0.292 N 
ATOM      7  H   UNL     1       3.835   1.975   0.747  0.00  0.00    +0.159 HD
ATOM      8  H   UNL     1       5.809   1.840   1.986  0.00  0.00    +0.151 HD
ENDROOT
BRANCH   1   9
ATOM      9  C   UNL     1       1.353   1.550  -0.003  0.00  0.00    +0.016 C 
BRANCH   9  10
ATOM     10  N   UNL     1      -0.015   0.998   0.015  0.00  0.00    +0.389 N 
ATOM     11  H   UNL     1       0.032  -0.025  -0.054  0.00  0.00    -0.084 HD
ATOM     12  H   UNL     1      -0.475   1.261   0.894  0.00  0.00    -0.084 HD
BRANCH  10  14
ATOM     13  C   UNL     1      -0.534   0.673  -2.362  0.00  0.00    -0.009 C 
ATOM     14  C   UNL     1      -0.795   1.527  -1.120  0.00  0.00    -0.043 C 
BRANCH  14  15
ATOM     15  C   UNL     1      -2.262   1.479  -0.777  0.00  0.00    -0.062 A 
ATOM     16  C   UNL     1      -2.778   0.389  -0.101  0.00  0.00    +0.003 A 
ATOM     17  C   UNL     1      -4.122   0.347   0.219  0.00  0.00    +0.020 A 
ATOM     18  C   UNL     1      -4.953   1.390  -0.148  0.00  0.00    +0.041 A 
ATOM     19  C   UNL     1      -4.437   2.478  -0.830  0.00  0.00    +0.020 A 
ATOM     20  C   UNL     1      -3.092   2.522  -1.144  0.00  0.00    +0.003 A 
ATOM     21 CL   UNL     1      -6.643   1.334   0.247  0.00  0.00    -0.084 Cl
ENDBRANCH  14  15
ENDBRANCH  10  14
ENDBRANCH   9  10
ENDBRANCH   1   9
BRANCH   6  22
ATOM     22  C   UNL     1       6.133   0.679   3.734  0.00  0.00    +0.180 C 
BRANCH  22  23
ATOM     23  C   UNL     1       7.532   1.238   3.724  0.00  0.00    +0.122 A 
ATOM     24  C   UNL     1       7.933   2.368   4.336  0.00  0.00    +0.046 A 
ATOM     25  C   UNL     1       9.313   2.511   4.067  0.00  0.00    +0.041 A 
ATOM     26  C   UNL     1       9.674   1.462   3.307  0.00  0.00    +0.195 A 
ATOM     27  O   UNL     1       8.592   0.691   3.107  0.00  0.00    -0.466 OA
ENDBRANCH  22  23
ENDBRANCH   6  22
TORSDOF 6
