REMARK  Name = ZINC18046179
REMARK  8 active torsions:
REMARK  status: ('A' for Active; 'I' for Inactive)
REMARK    1  A    between atoms: C_1  and  C_2
REMARK    2  A    between atoms: C_2  and  O_3
REMARK    3  A    between atoms: O_3  and  C_4
REMARK    4  A    between atoms: C_6  and  C_14
REMARK    5  A    between atoms: C_8  and  N_11
REMARK    6  A    between atoms: C_9  and  O_10
REMARK    7  A    between atoms: N_23  and  C_26
REMARK    8  A    between atoms: C_27  and  O_29
REMARK                            x       y       z     vdW  Elec       q    Type
REMARK                         _______ _______ _______ _____ _____    ______ ____
ROOT
ATOM      1  C   UNL     1      -0.229  -4.969   0.478  0.00  0.00    +0.224 C 
ATOM      2  N   UNL     1       0.552  -6.219   0.491  0.00  0.00    -0.313 N 
ATOM      3  C   UNL     1       1.706  -6.209   1.242  0.00  0.00    +0.080 A 
ATOM      4  C   UNL     1       1.879  -5.335   2.323  0.00  0.00    +0.067 A 
ATOM      5  C   UNL     1       3.151  -5.433   3.008  0.00  0.00    -0.027 A 
ATOM      6  C   UNL     1       3.994  -6.367   2.505  0.00  0.00    -0.021 A 
ATOM      7  S   UNL     1       3.107  -7.093   1.155  0.00  0.00    -0.080 S 
ATOM      8  C   UNL     1       5.366  -6.682   3.008  0.00  0.00    -0.036 C 
ATOM      9  N   UNL     1       5.806  -5.577   3.880  0.00  0.00    +0.381 N 
ATOM     10  C   UNL     1       4.764  -5.289   4.874  0.00  0.00    -0.074 C 
ATOM     11  C   UNL     1       3.574  -4.592   4.205  0.00  0.00    +0.018 C 
ATOM     12  C   UNL     1       7.046  -5.961   4.568  0.00  0.00    -0.096 C 
ATOM     13  C   UNL     1       0.754  -4.421   2.650  0.00  0.00    +0.220 C 
ATOM     14  N   UNL     1      -0.209  -4.310   1.778  0.00  0.00    -0.223 NA
ATOM     15  H   UNL     1       0.269  -7.005  -0.002  0.00  0.00    +0.149 HD
ATOM     16  H   UNL     1       5.974  -4.754   3.320  0.00  0.00    -0.082 HD
ENDROOT
BRANCH   1  19
ATOM     17  C   UNL     1       0.777  -1.811  -1.336  0.00  0.00    +0.164 A 
ATOM     18  C   UNL     1       0.243  -2.669  -0.388  0.00  0.00    +0.057 A 
ATOM     19  C   UNL     1       0.352  -4.037  -0.555  0.00  0.00    +0.000 A 
ATOM     20  C   UNL     1       0.992  -4.552  -1.667  0.00  0.00    +0.044 A 
ATOM     21  C   UNL     1       1.526  -3.702  -2.617  0.00  0.00    +0.171 A 
ATOM     22  C   UNL     1       1.416  -2.330  -2.458  0.00  0.00    +0.189 A 
BRANCH  21  23
ATOM     23  N   UNL     1       2.210  -4.257  -3.806  0.00  0.00    +0.060 N 
ATOM     24  O   UNL     1       2.302  -5.454  -3.946  0.00  0.00    -0.126 OA
ATOM     25  O   UNL     1       2.678  -3.513  -4.636  0.00  0.00    -0.126 OA
ENDBRANCH  21  23
BRANCH  22  26
ATOM     26  O   UNL     1       1.936  -1.492  -3.394  0.00  0.00    -0.502 OA
ATOM     27  H   UNL     1       2.856  -1.241  -3.231  0.00  0.00    +0.292 HD
ENDBRANCH  22  26
BRANCH  17  28
ATOM     28  O   UNL     1       0.671  -0.465  -1.174  0.00  0.00    -0.488 OA
BRANCH  28  30
ATOM     29  C   UNL     1      -0.019   1.526   0.010  0.00  0.00    +0.048 C 
ATOM     30  C   UNL     1       0.002  -0.004   0.002  0.00  0.00    +0.226 C 
ENDBRANCH  28  30
ENDBRANCH  17  28
ENDBRANCH   1  19
BRANCH  13  31
ATOM     31  O   UNL     1       0.730  -3.729   3.812  0.00  0.00    -0.492 OA
ATOM     32  H   UNL     1      -0.049  -3.167   3.919  0.00  0.00    +0.294 HD
ENDBRANCH  13  31
TORSDOF 6
