REMARK  Name = ZINC25508952
REMARK  10 active torsions:
REMARK  status: ('A' for Active; 'I' for Inactive)
REMARK    1  A    between atoms: C_1  and  C_2
REMARK    2  A    between atoms: C_5  and  C_29
REMARK    3  A    between atoms: N_8  and  C_10
REMARK    4  A    between atoms: C_10  and  C_12
REMARK    5  A    between atoms: C_10  and  C_13
REMARK    6  A    between atoms: N_15  and  C_16
REMARK    7  A    between atoms: C_16  and  C_18
REMARK    8  A    between atoms: C_16  and  C_19
REMARK    9  A    between atoms: C_22  and  S_25
REMARK   10  A    between atoms: S_25  and  N_28
REMARK                            x       y       z     vdW  Elec       q    Type
REMARK                         _______ _______ _______ _____ _____    ______ ____
ROOT
ATOM      1  C   UNL     1       2.348   0.883   0.598  0.00  0.00    +0.200 C 
ATOM      2  O   UNL     1       2.166  -0.301   0.786  0.00  0.00    -0.278 OA
ATOM      3  N   UNL     1       1.302   1.694   0.347  0.00  0.00    -0.310 N 
ATOM      4  H   UNL     1       1.467   2.768   0.177  0.00  0.00    +0.149 HD
ENDROOT
BRANCH   1   5
ATOM      5  C   UNL     1       3.745   1.447   0.644  0.00  0.00    +0.016 C 
ATOM      6  C   UNL     1       4.338   1.456  -0.767  0.00  0.00    -0.004 C 
BRANCH   5  12
ATOM      7  C   UNL     1       4.373  -0.303   5.197  0.00  0.00    +0.005 C 
ATOM      8  C   UNL     1       4.881  -0.344   3.754  0.00  0.00    -0.031 C 
ATOM      9  C   UNL     1       6.362   0.046   3.721  0.00  0.00    +0.003 C 
ATOM     10  C   UNL     1       6.846   0.060   2.269  0.00  0.00    -0.031 C 
ATOM     11  C   UNL     1       5.987   1.034   1.459  0.00  0.00    -0.075 C 
ATOM     12  N   UNL     1       4.580   0.617   1.522  0.00  0.00    +0.387 N 
ATOM     13  C   UNL     1       4.079   0.641   2.902  0.00  0.00    -0.075 C 
ATOM     14  C   UNL     1       8.308   0.508   2.222  0.00  0.00    +0.005 C 
ATOM     15  H   UNL     1       4.522  -0.422   1.163  0.00  0.00    -0.081 HD
ENDBRANCH   5  12
ENDBRANCH   1   5
BRANCH   3  16
ATOM     16  C   UNL     1      -0.056   1.145   0.302  0.00  0.00    +0.100 C 
ATOM     17  C   UNL     1      -0.629   1.086   1.720  0.00  0.00    +0.033 C 
BRANCH  16  18
ATOM     18  C   UNL     1      -0.926   2.028  -0.555  0.00  0.00    -0.027 A 
ATOM     19  C   UNL     1      -0.804   3.403  -0.479  0.00  0.00    +0.007 A 
ATOM     20  C   UNL     1      -1.599   4.212  -1.269  0.00  0.00    +0.029 A 
ATOM     21  C   UNL     1      -2.524   3.647  -2.127  0.00  0.00    +0.105 A 
ATOM     22  C   UNL     1      -2.650   2.272  -2.199  0.00  0.00    +0.029 A 
ATOM     23  C   UNL     1      -1.851   1.463  -1.413  0.00  0.00    +0.007 A 
BRANCH  21  24
ATOM     24  S   UNL     1      -3.542   4.679  -3.128  0.00  0.00    +0.056 S 
ATOM     25  O   UNL     1      -2.851   5.912  -3.275  0.00  0.00    -0.153 OA
ATOM     26  O   UNL     1      -3.945   3.894  -4.242  0.00  0.00    -0.153 OA
BRANCH  24  27
ATOM     27  N   UNL     1      -4.913   5.005  -2.259  0.00  0.00    -0.204 NA
ATOM     28  H   UNL     1      -5.578   5.650  -2.852  0.00  0.00    +0.144 HD
ATOM     29  H   UNL     1      -4.641   5.519  -1.325  0.00  0.00    +0.144 HD
ENDBRANCH  24  27
ENDBRANCH  21  24
ENDBRANCH  16  18
ENDBRANCH   3  16
TORSDOF 6
