REMARK  Name = ZINC59170554
REMARK  9 active torsions:
REMARK  status: ('A' for Active; 'I' for Inactive)
REMARK    1  A    between atoms: C_1  and  C_2
REMARK    2  A    between atoms: C_2  and  O_3
REMARK    3  A    between atoms: O_3  and  C_4
REMARK    4  A    between atoms: N_12  and  N_13
REMARK    5  A    between atoms: N_13  and  S_14
REMARK    6  A    between atoms: S_14  and  C_17
REMARK    7  A    between atoms: C_20  and  C_23
REMARK    8  A    between atoms: C_24  and  C_26
REMARK    9  A    between atoms: N_28  and  C_29
REMARK                            x       y       z     vdW  Elec       q    Type
REMARK                         _______ _______ _______ _____ _____    ______ ____
ROOT
ATOM      1  C   UNL     1       1.274  -1.917   1.367  0.00  0.00    +0.163 A 
ATOM      2  C   UNL     1       0.305  -2.752   0.833  0.00  0.00    +0.049 A 
ATOM      3  C   UNL     1       0.119  -4.028   1.338  0.00  0.00    +0.004 A 
ATOM      4  C   UNL     1       0.895  -4.486   2.381  0.00  0.00    +0.012 A 
ATOM      5  C   UNL     1       1.877  -3.655   2.932  0.00  0.00    +0.022 A 
ATOM      6  C   UNL     1       2.071  -2.364   2.414  0.00  0.00    +0.179 A 
ATOM      7  O   UNL     1       3.032  -1.562   2.942  0.00  0.00    -0.434 OA
ATOM      8  C   UNL     1       3.370  -1.784   4.246  0.00  0.00    +0.225 A 
ATOM      9  N   UNL     1       3.595  -0.791   5.060  0.00  0.00    -0.260 N 
ATOM     10  C   UNL     1       3.471  -3.188   4.707  0.00  0.00    +0.099 A 
ATOM     11  C   UNL     1       2.712  -4.121   4.046  0.00  0.00    +0.030 A 
ATOM     12  H   UNL     1       3.752  -0.962   6.002  0.00  0.00    +0.189 HD
ENDROOT
BRANCH  10  13
ATOM     13  C   UNL     1       4.342  -3.565   5.833  0.00  0.00    +0.253 C 
ATOM     14  O   UNL     1       4.943  -2.706   6.451  0.00  0.00    -0.270 OA
ATOM     15  N   UNL     1       4.473  -4.861   6.179  0.00  0.00    -0.281 N 
ATOM     16  H   UNL     1       4.070  -5.552   5.631  0.00  0.00    +0.155 HD
BRANCH  15  17
ATOM     17  C   UNL     1       5.192  -5.208   7.327  0.00  0.00    +0.035 A 
ATOM     18  C   UNL     1       5.190  -4.365   8.431  0.00  0.00    +0.023 A 
ATOM     19  C   UNL     1       5.900  -4.711   9.564  0.00  0.00    +0.003 A 
ATOM     20  C   UNL     1       6.612  -5.895   9.601  0.00  0.00    +0.020 A 
ATOM     21  C   UNL     1       6.616  -6.738   8.503  0.00  0.00    +0.043 A 
ATOM     22  C   UNL     1       5.903  -6.400   7.368  0.00  0.00    +0.043 A 
ATOM     23 CL   UNL     1       7.512  -8.224   8.554  0.00  0.00    -0.083 Cl
ENDBRANCH  15  17
ENDBRANCH  10  13
BRANCH   9  24
ATOM     24  N   UNL     1       3.611   0.523   4.575  0.00  0.00    -0.157 N 
ATOM     25  H   UNL     1       3.382   0.701   3.649  0.00  0.00    +0.194 HD
BRANCH  24  26
ATOM     26  S   UNL     1       4.020   1.772   5.582  0.00  0.00    +0.085 S 
ATOM     27  O   UNL     1       4.207   2.914   4.757  0.00  0.00    -0.149 OA
ATOM     28  O   UNL     1       3.088   1.752   6.654  0.00  0.00    -0.149 OA
BRANCH  26  29
ATOM     29  C   UNL     1       5.594   1.389   6.275  0.00  0.00    +0.110 A 
ATOM     30  C   UNL     1       5.673   0.770   7.508  0.00  0.00    +0.029 A 
ATOM     31  C   UNL     1       6.908   0.469   8.052  0.00  0.00    +0.005 A 
ATOM     32  C   UNL     1       8.063   0.787   7.363  0.00  0.00    -0.050 A 
ATOM     33  C   UNL     1       7.983   1.406   6.129  0.00  0.00    +0.005 A 
ATOM     34  C   UNL     1       6.749   1.703   5.583  0.00  0.00    +0.029 A 
ATOM     35  C   UNL     1       9.409   0.460   7.956  0.00  0.00    +0.044 C 
ENDBRANCH  26  29
ENDBRANCH  24  26
ENDBRANCH   9  24
BRANCH   1  36
ATOM     36  O   UNL     1       1.450  -0.666   0.864  0.00  0.00    -0.489 OA
BRANCH  36  38
ATOM     37  C   UNL     1       0.938   1.153  -0.642  0.00  0.00    +0.048 C 
ATOM     38  C   UNL     1       0.595  -0.274  -0.212  0.00  0.00    +0.226 C 
ENDBRANCH  36  38
ENDBRANCH   1  36
TORSDOF 7
