REMARK  Name = ZINC56541014
REMARK  10 active torsions:
REMARK  status: ('A' for Active; 'I' for Inactive)
REMARK    1  A    between atoms: C_1  and  C_2
REMARK    2  A    between atoms: C_2  and  C_26
REMARK    3  A    between atoms: C_4  and  N_10
REMARK    4  A    between atoms: C_6  and  C_8
REMARK    5  A    between atoms: C_6  and  C_9
REMARK    6  A    between atoms: N_13  and  C_14
REMARK    7  A    between atoms: C_19  and  C_20
REMARK    8  A    between atoms: C_20  and  C_21
REMARK    9  A    between atoms: N_23  and  C_24
REMARK   10  A    between atoms: N_23  and  C_25
REMARK                            x       y       z     vdW  Elec       q    Type
REMARK                         _______ _______ _______ _____ _____    ______ ____
ROOT
ATOM      1  N   UNL     1       2.607  -0.808  -2.635  0.00  0.00    -0.296 N 
ATOM      2  C   UNL     1       3.768  -0.332  -3.126  0.00  0.00    +0.304 C 
ATOM      3  O   UNL     1       4.377   0.529  -2.520  0.00  0.00    -0.253 OA
ATOM      4  N   UNL     1       4.255  -0.809  -4.288  0.00  0.00    -0.269 N 
ATOM      5  H   UNL     1       2.121  -1.494  -3.118  0.00  0.00    +0.151 HD
ATOM      6  H   UNL     1       3.813  -1.552  -4.730  0.00  0.00    +0.156 HD
ENDROOT
BRANCH   1  10
ATOM      7  C   UNL     1      -0.022   1.557  -0.009  0.00  0.00    -0.010 C 
ATOM      8  C   UNL     1      -0.014   0.025  -0.019  0.00  0.00    -0.072 C 
ATOM      9  C   UNL     1       0.560  -0.479  -1.339  0.00  0.00    +0.009 C 
ATOM     10  C   UNL     1       2.077  -0.287  -1.368  0.00  0.00    +0.072 C 
ATOM     11  C   UNL     1       2.679  -1.078  -0.207  0.00  0.00    +0.009 C 
ATOM     12  C   UNL     1       2.121  -0.579   1.122  0.00  0.00    -0.072 C 
ATOM     13  N   UNL     1       0.670  -0.507   1.146  0.00  0.00    +0.386 N 
ATOM     14  C   UNL     1       2.752   0.771   1.475  0.00  0.00    -0.010 C 
ATOM     15  C   UNL     1       2.559  -1.583   2.213  0.00  0.00    -0.010 C 
ATOM     16  C   UNL     1      -1.488  -0.437   0.049  0.00  0.00    -0.010 C 
ATOM     17  H   UNL     1       0.390   0.045   1.962  0.00  0.00    -0.084 HD
ATOM     18  H   UNL     1       0.306  -1.447   1.329  0.00  0.00    -0.084 HD
ENDBRANCH   1  10
BRANCH   4  19
ATOM     19  C   UNL     1       5.396  -0.235  -4.858  0.00  0.00    +0.038 A 
ATOM     20  C   UNL     1       5.733   1.081  -4.565  0.00  0.00    +0.023 A 
ATOM     21  C   UNL     1       6.861   1.644  -5.129  0.00  0.00    +0.002 A 
ATOM     22  C   UNL     1       7.654   0.901  -5.984  0.00  0.00    +0.000 A 
ATOM     23  C   UNL     1       7.321  -0.408  -6.277  0.00  0.00    +0.006 A 
ATOM     24  C   UNL     1       6.198  -0.980  -5.712  0.00  0.00    -0.017 A 
BRANCH  24  25
ATOM     25  C   UNL     1       5.839  -2.410  -6.027  0.00  0.00    +0.133 C 
BRANCH  25  26
ATOM     26  C   UNL     1       4.850  -2.440  -7.163  0.00  0.00    +0.219 C 
ATOM     27  O   UNL     1       4.473  -1.404  -7.668  0.00  0.00    -0.275 OA
ATOM     28  N   UNL     1       4.384  -3.620  -7.620  0.00  0.00    -0.307 N 
ATOM     29  C   UNL     1       3.422  -3.650  -8.724  0.00  0.00    +0.131 C 
ATOM     30  C   UNL     1       4.839  -4.872  -7.011  0.00  0.00    +0.131 C 
ENDBRANCH  25  26
ENDBRANCH  24  25
ENDBRANCH   4  19
TORSDOF 4
