REMARK  Name = ZINC40334983
REMARK  7 active torsions:
REMARK  status: ('A' for Active; 'I' for Inactive)
REMARK    1  A    between atoms: C_1  and  N_2
REMARK    2  A    between atoms: C_6  and  C_7
REMARK    3  A    between atoms: C_7  and  N_8
REMARK    4  A    between atoms: N_8  and  C_9
REMARK    5  A    between atoms: N_8  and  S_10
REMARK    6  A    between atoms: S_10  and  C_13
REMARK    7  A    between atoms: C_16  and  N_20
REMARK                            x       y       z     vdW  Elec       q    Type
REMARK                         _______ _______ _______ _____ _____    ______ ____
ROOT
ATOM      1  S   UNL     1       2.218  -1.459   3.664  0.00  0.00    +0.064 S 
ATOM      2  O   UNL     1       1.533  -2.553   3.070  0.00  0.00    -0.153 OA
ATOM      3  O   UNL     1       3.630  -1.314   3.591  0.00  0.00    -0.153 OA
ENDROOT
BRANCH   1   4
ATOM      4  C   UNL     1       1.801  -1.472   5.376  0.00  0.00    +0.142 A 
ATOM      5  C   UNL     1       2.624  -0.842   6.292  0.00  0.00    +0.070 A 
ATOM      6  C   UNL     1       2.299  -0.851   7.636  0.00  0.00    +0.044 A 
ATOM      7  C   UNL     1       1.145  -1.492   8.065  0.00  0.00    +0.027 A 
ATOM      8  C   UNL     1       0.320  -2.124   7.143  0.00  0.00    +0.044 A 
ATOM      9  C   UNL     1       0.647  -2.107   5.800  0.00  0.00    +0.070 A 
ATOM     10 CL   UNL     1      -0.387  -2.890   4.646  0.00  0.00    -0.081 Cl
ATOM     11 CL   UNL     1       4.067  -0.040   5.754  0.00  0.00    -0.081 Cl
BRANCH   7  12
ATOM     12  N   UNL     1       0.814  -1.503   9.422  0.00  0.00    -0.358 N 
ATOM     13  H   UNL     1       1.391  -1.063  10.066  0.00  0.00    +0.142 HD
ATOM     14  H   UNL     1       0.007  -1.952   9.721  0.00  0.00    +0.142 HD
ENDBRANCH   7  12
ENDBRANCH   1   4
BRANCH   1  15
ATOM     15  N   UNL     1       1.567  -0.083   3.012  0.00  0.00    -0.172 NA
ATOM     16  C   UNL     1       2.293   1.186   3.105  0.00  0.00    +0.132 C 
BRANCH  15  17
ATOM     17  C   UNL     1       0.265  -0.135   2.342  0.00  0.00    +0.181 C 
BRANCH  17  23
ATOM     18  C   UNL     1       0.757   2.104   0.257  0.00  0.00    +0.150 C 
ATOM     19  N   UNL     1       0.683   0.670  -0.034  0.00  0.00    -0.338 N 
ATOM     20  C   UNL     1       0.823   0.083  -1.262  0.00  0.00    +0.104 A 
ATOM     21  C   UNL     1       0.685  -1.244  -1.077  0.00  0.00    +0.101 A 
ATOM     22  N   UNL     1       0.468  -1.461   0.228  0.00  0.00    -0.349 N 
ATOM     23  C   UNL     1       0.470  -0.319   0.860  0.00  0.00    +0.103 A 
ATOM     24  H   UNL     1       0.334  -2.329   0.639  0.00  0.00    +0.166 HD
ENDBRANCH  17  23
ENDBRANCH  15  17
ENDBRANCH   1  15
TORSDOF 5
