REMARK  Name = ZINC33024426
REMARK  12 active torsions:
REMARK  status: ('A' for Active; 'I' for Inactive)
REMARK    1  A    between atoms: C_1  and  C_2
REMARK    2  A    between atoms: C_3  and  C_37
REMARK    3  A    between atoms: C_4  and  C_9
REMARK    4  A    between atoms: C_7  and  C_8
REMARK    5  A    between atoms: C_14  and  C_17
REMARK    6  A    between atoms: C_17  and  C_18
REMARK    7  A    between atoms: N_20  and  C_21
REMARK    8  A    between atoms: C_21  and  C_22
REMARK    9  A    between atoms: C_22  and  C_23
REMARK   10  A    between atoms: C_23  and  N_24
REMARK   11  A    between atoms: C_27  and  C_30
REMARK   12  A    between atoms: C_30  and  C_31
REMARK                            x       y       z     vdW  Elec       q    Type
REMARK                         _______ _______ _______ _____ _____    ______ ____
ROOT
ATOM      1  C   UNL     1      -1.100   1.596  -1.186  0.00  0.00    +0.213 C 
ATOM      2  O   UNL     1      -2.083   2.282  -1.003  0.00  0.00    -0.276 OA
ATOM      3  N   UNL     1      -0.720   1.284  -2.441  0.00  0.00    -0.315 N 
ATOM      4  H   UNL     1       0.172   0.661  -2.607  0.00  0.00    +0.149 HD
ENDROOT
BRANCH   1   5
ATOM      5  C   UNL     1      -0.303   1.092  -0.011  0.00  0.00    +0.099 C 
BRANCH   5  11
ATOM      6  C   UNL     1      -0.409   3.609   4.824  0.00  0.00    +0.263 C 
ATOM      7  O   UNL     1       0.007   3.023   5.806  0.00  0.00    -0.268 OA
ATOM      8  N   UNL     1      -0.915   2.911   3.787  0.00  0.00    -0.296 N 
ATOM      9  C   UNL     1      -0.873   1.443   3.781  0.00  0.00    +0.108 C 
ATOM     10  C   UNL     1      -0.208   0.974   2.483  0.00  0.00    +0.023 C 
ATOM     11  C   UNL     1      -0.943   1.586   1.289  0.00  0.00    +0.001 C 
ATOM     12  C   UNL     1      -0.847   3.112   1.356  0.00  0.00    +0.023 C 
ATOM     13  C   UNL     1      -1.519   3.605   2.642  0.00  0.00    +0.108 C 
BRANCH   6  17
ATOM     14  C   UNL     1      -1.732   8.504   4.928  0.00  0.00    +0.046 C 
ATOM     15  C   UNL     1      -0.930   7.233   4.811  0.00  0.00    -0.027 A 
ATOM     16  C   UNL     1      -1.425   5.932   4.943  0.00  0.00    -0.018 A 
ATOM     17  C   UNL     1      -0.361   5.074   4.768  0.00  0.00    +0.105 A 
ATOM     18  N   UNL     1       0.755   5.842   4.525  0.00  0.00    -0.354 N 
ATOM     19  H   UNL     1       1.728   5.359   4.349  0.00  0.00    +0.166 HD
ATOM     20  C   UNL     1       0.397   7.149   4.553  0.00  0.00    +0.017 A 
ATOM     21  C   UNL     1       1.323   8.317   4.335  0.00  0.00    +0.063 C 
ATOM     22  C   UNL     1      -2.853   5.541   5.227  0.00  0.00    +0.046 C 
ENDBRANCH   6  17
ENDBRANCH   5  11
ENDBRANCH   1   5
BRANCH   3  23
ATOM     23  C   UNL     1      -1.495   1.773  -3.584  0.00  0.00    +0.102 C 
BRANCH  23  24
ATOM     24  C   UNL     1      -0.855   1.280  -4.883  0.00  0.00    +0.000 C 
BRANCH  24  25
ATOM     25  C   UNL     1      -1.665   1.791  -6.077  0.00  0.00    -0.077 C 
BRANCH  25  26
ATOM     26  N   UNL     1      -1.050   1.317  -7.324  0.00  0.00    +0.380 N 
ATOM     27  C   UNL     1       0.278   1.912  -7.515  0.00  0.00    -0.079 C 
ATOM     28  C   UNL     1       0.946   1.288  -8.743  0.00  0.00    -0.015 C 
ATOM     29  C   UNL     1       0.072   1.537  -9.975  0.00  0.00    -0.010 C 
ATOM     30  C   UNL     1      -1.321   0.950  -9.731  0.00  0.00    -0.015 C 
ATOM     31  C   UNL     1      -1.923   1.584  -8.475  0.00  0.00    -0.079 C 
ATOM     32  H   UNL     1      -0.922   0.227  -7.247  0.00  0.00    -0.082 HD
BRANCH  29  33
ATOM     33  C   UNL     1       0.704   0.864 -11.196  0.00  0.00    +0.038 C 
BRANCH  33  34
ATOM     34  C   UNL     1       2.021   1.526 -11.509  0.00  0.00    -0.047 A 
ATOM     35  C   UNL     1       2.064   2.603 -12.376  0.00  0.00    +0.003 A 
ATOM     36  C   UNL     1       3.271   3.213 -12.660  0.00  0.00    +0.000 A 
ATOM     37  C   UNL     1       4.436   2.741 -12.085  0.00  0.00    +0.000 A 
ATOM     38  C   UNL     1       4.394   1.662 -11.223  0.00  0.00    +0.000 A 
ATOM     39  C   UNL     1       3.186   1.054 -10.935  0.00  0.00    +0.003 A 
ENDBRANCH  33  34
ENDBRANCH  29  33
ENDBRANCH  25  26
ENDBRANCH  24  25
ENDBRANCH  23  24
ENDBRANCH   3  23
TORSDOF 9
