REMARK  Name = ZINC53299767
REMARK  5 active torsions:
REMARK  status: ('A' for Active; 'I' for Inactive)
REMARK    1  A    between atoms: C_3  and  S_9
REMARK    2  A    between atoms: C_4  and  N_8
REMARK    3  A    between atoms: S_9  and  C_10
REMARK    4  A    between atoms: C_10  and  C_11
REMARK    5  A    between atoms: C_11  and  C_12
REMARK                            x       y       z     vdW  Elec       q    Type
REMARK                         _______ _______ _______ _____ _____    ______ ____
ROOT
ATOM      1  C   UNL     1       3.367   4.058  -0.009  0.00  0.00    +0.083 C 
ENDROOT
BRANCH   1   2
ATOM      2  S   UNL     1       3.894   2.322  -0.023  0.00  0.00    -0.123 S 
BRANCH   2   5
ATOM      3  C   UNL     1      -0.017   1.379   0.010  0.00  0.00    +0.016 A 
ATOM      4  C   UNL     1       1.169   2.090   0.002  0.00  0.00    +0.017 A 
ATOM      5  C   UNL     1       2.382   1.417  -0.013  0.00  0.00    +0.029 A 
ATOM      6  C   UNL     1       2.401   0.022  -0.021  0.00  0.00    +0.039 A 
ATOM      7  C   UNL     1       1.208  -0.684  -0.013  0.00  0.00    +0.039 A 
ATOM      8  C   UNL     1       0.002  -0.004   0.002  0.00  0.00    +0.020 A 
ATOM      9 BR   UNL     1      -1.624  -0.969   0.013  0.00  0.00    -0.050 Br
BRANCH   6  10
ATOM     10  N   UNL     1       3.621  -0.663  -0.036  0.00  0.00    -0.357 N 
ATOM     11  H   UNL     1       4.455  -0.168  -0.042  0.00  0.00    +0.142 HD
ATOM     12  H   UNL     1       3.633  -1.633  -0.042  0.00  0.00    +0.142 HD
ENDBRANCH   6  10
ENDBRANCH   2   5
ENDBRANCH   1   2
BRANCH   1  13
ATOM     13  C   UNL     1       4.599   4.964  -0.017  0.00  0.00    +0.107 C 
BRANCH  13  14
ATOM     14  C   UNL     1       4.162   6.407  -0.005  0.00  0.00    +0.216 C 
ATOM     15  O   UNL     1       2.981   6.682   0.007  0.00  0.00    -0.276 OA
ATOM     16  N   UNL     1       5.083   7.390  -0.009  0.00  0.00    -0.305 N 
ATOM     17  C   UNL     1       6.521   7.080  -0.031  0.00  0.00    +0.088 C 
ATOM     18  C   UNL     1       7.176   7.891  -1.153  0.00  0.00    -0.063 C 
ATOM     19  N   UNL     1       6.866   9.315  -0.972  0.00  0.00    +0.381 N 
ATOM     20  C   UNL     1       5.422   9.535  -1.117  0.00  0.00    -0.063 C 
ATOM     21  C   UNL     1       4.679   8.805   0.002  0.00  0.00    +0.088 C 
ATOM     22  H   UNL     1       7.159   9.607  -0.051  0.00  0.00    -0.086 HD
ATOM     23  H   UNL     1       7.359   9.857  -1.666  0.00  0.00    -0.086 HD
ENDBRANCH  13  14
ENDBRANCH   1  13
TORSDOF 5
