REMARK  Name = ZINC06952124
REMARK  11 active torsions:
REMARK  status: ('A' for Active; 'I' for Inactive)
REMARK    1  A    between atoms: C_1  and  C_2
REMARK    2  A    between atoms: C_2  and  C_3
REMARK    3  A    between atoms: C_2  and  C_4
REMARK    4  A    between atoms: C_4  and  C_5
REMARK    5  A    between atoms: C_5  and  C_7
REMARK    6  A    between atoms: C_5  and  N_23
REMARK    7  A    between atoms: N_9  and  N_10
REMARK    8  A    between atoms: C_11  and  C_12
REMARK    9  A    between atoms: C_15  and  O_19
REMARK   10  A    between atoms: O_19  and  C_20
REMARK   11  A    between atoms: C_20  and  C_21
REMARK                            x       y       z     vdW  Elec       q    Type
REMARK                         _______ _______ _______ _____ _____    ______ ____
ROOT
ATOM      1  C   UNL     1      -2.819  -2.590   0.013  0.00  0.00    +0.218 C 
ATOM      2  O   UNL     1      -3.453  -2.886  -0.979  0.00  0.00    -0.276 OA
ATOM      3  N   UNL     1      -3.370  -2.737   1.234  0.00  0.00    -0.208 N 
ATOM      4  H   UNL     1      -2.864  -2.501   2.026  0.00  0.00    +0.177 HD
ENDROOT
BRANCH   3   5
ATOM      5  N   UNL     1      -4.675  -3.232   1.358  0.00  0.00    -0.188 NA
ATOM      6  C   UNL     1      -5.206  -3.374   2.534  0.00  0.00    +0.138 C 
BRANCH   6   7
ATOM      7  C   UNL     1      -6.579  -3.895   2.664  0.00  0.00    -0.004 A 
ATOM      8  C   UNL     1      -7.309  -4.242   1.524  0.00  0.00    +0.013 A 
ATOM      9  C   UNL     1      -8.592  -4.728   1.651  0.00  0.00    +0.047 A 
ATOM     10  C   UNL     1      -9.161  -4.874   2.909  0.00  0.00    +0.136 A 
ATOM     11  C   UNL     1      -8.439  -4.530   4.046  0.00  0.00    +0.060 A 
ATOM     12  C   UNL     1      -7.153  -4.049   3.929  0.00  0.00    +0.028 A 
ATOM     13 BR   UNL     1      -9.221  -4.731   5.757  0.00  0.00    -0.046 Br
BRANCH  10  14
ATOM     14  O   UNL     1     -10.426  -5.353   3.029  0.00  0.00    -0.478 OA
BRANCH  14  15
ATOM     15  C   UNL     1     -11.111  -5.686   1.820  0.00  0.00    +0.317 C 
BRANCH  15  16
ATOM     16  C   UNL     1     -12.459  -6.185   2.141  0.00  0.00    -0.065 C 
ATOM     17  C   UNL     1     -13.533  -6.582   2.396  0.00  0.00    +0.007 C 
ENDBRANCH  15  16
ENDBRANCH  14  15
ENDBRANCH  10  14
ENDBRANCH   6   7
ENDBRANCH   3   5
BRANCH   1  18
ATOM     18  C   UNL     1      -1.416  -2.058  -0.121  0.00  0.00    +0.015 C 
BRANCH  18  19
ATOM     19  N   UNL     1      -0.875  -2.427  -1.436  0.00  0.00    +0.386 N 
ATOM     20  H   UNL     1      -1.455  -2.033  -2.161  0.00  0.00    -0.089 HD
ATOM     21  H   UNL     1       0.065  -2.071  -1.526  0.00  0.00    -0.089 HD
ATOM     22  H   UNL     1      -0.863  -3.432  -1.524  0.00  0.00    -0.089 HD
ENDBRANCH  18  19
BRANCH  18  23
ATOM     23  C   UNL     1      -1.433  -0.534   0.013  0.00  0.00    -0.004 C 
BRANCH  23  25
ATOM     24  C   UNL     1      -0.019   1.526   0.010  0.00  0.00    +0.007 C 
ATOM     25  C   UNL     1       0.002  -0.004   0.002  0.00  0.00    -0.018 C 
ATOM     26  C   UNL     1       0.742  -0.511   1.242  0.00  0.00    +0.007 C 
ENDBRANCH  23  25
ENDBRANCH  18  23
ENDBRANCH   1  18
TORSDOF 9
