REMARK  Name = ZINC39674276
REMARK  8 active torsions:
REMARK  status: ('A' for Active; 'I' for Inactive)
REMARK    1  A    between atoms: C_1  and  C_2
REMARK    2  A    between atoms: C_4  and  C_9
REMARK    3  A    between atoms: C_5  and  C_8
REMARK    4  A    between atoms: C_9  and  C_11
REMARK    5  A    between atoms: C_9  and  N_12
REMARK    6  A    between atoms: C_13  and  C_15
REMARK    7  A    between atoms: C_26  and  C_28
REMARK    8  A    between atoms: C_30  and  C_35
REMARK                            x       y       z     vdW  Elec       q    Type
REMARK                         _______ _______ _______ _____ _____    ______ ____
ROOT
ATOM      1  C   UNL     1      -4.084   2.765  -1.227  0.00  0.00    +0.100 C 
ATOM      2  C   UNL     1      -3.666   3.837  -0.196  0.00  0.00    +0.121 C 
ATOM      3  N   UNL     1      -4.756   4.840  -0.236  0.00  0.00    -0.296 N 
ATOM      4  C   UNL     1      -5.994   4.035  -0.369  0.00  0.00    +0.115 C 
ATOM      5  C   UNL     1      -5.612   2.897  -1.337  0.00  0.00    -0.004 C 
ATOM      6  C   UNL     1      -6.287   1.596  -0.913  0.00  0.00    -0.010 C 
ATOM      7  C   UNL     1      -7.802   1.732  -1.087  0.00  0.00    -0.082 C 
ATOM      8  N   UNL     1      -8.111   2.033  -2.490  0.00  0.00    +0.379 N 
ATOM      9  C   UNL     1      -7.537   3.331  -2.862  0.00  0.00    -0.082 C 
ATOM     10  C   UNL     1      -6.010   3.263  -2.764  0.00  0.00    -0.010 C 
ATOM     11  C   UNL     1      -4.647   6.182  -0.168  0.00  0.00    +0.247 C 
ATOM     12  O   UNL     1      -3.549   6.703  -0.160  0.00  0.00    -0.270 OA
ATOM     13  H   UNL     1      -7.723   1.313  -3.080  0.00  0.00    -0.086 HD
ATOM     14  H   UNL     1      -9.112   2.062  -2.614  0.00  0.00    -0.086 HD
ENDROOT
BRANCH  11  15
ATOM     15  C   UNL     1      -5.864   7.020  -0.103  0.00  0.00    +0.040 A 
ATOM     16  C   UNL     1      -5.813   8.360  -0.490  0.00  0.00    +0.025 A 
ATOM     17  C   UNL     1      -6.950   9.138  -0.428  0.00  0.00    +0.058 A 
ATOM     18  C   UNL     1      -8.142   8.593   0.017  0.00  0.00    +0.050 A 
ATOM     19  C   UNL     1      -8.200   7.264   0.403  0.00  0.00    +0.125 A 
ATOM     20  C   UNL     1      -7.068   6.473   0.340  0.00  0.00    +0.051 A 
ATOM     21  F   UNL     1      -9.367   6.738   0.838  0.00  0.00    -0.205 F 
BRANCH  17  22
ATOM     22  C   UNL     1      -6.896  10.585  -0.846  0.00  0.00    +0.418 C 
ATOM     23  F   UNL     1      -7.182  10.687  -2.212  0.00  0.00    -0.166 F 
ATOM     24  F   UNL     1      -7.838  11.317  -0.116  0.00  0.00    -0.166 F 
ATOM     25  F   UNL     1      -5.616  11.093  -0.599  0.00  0.00    -0.166 F 
ENDBRANCH  17  22
ENDBRANCH  11  15
BRANCH   1  27
ATOM     26  N   UNL     1      -3.443   0.408  -1.619  0.00  0.00    -0.309 N 
ATOM     27  C   UNL     1      -3.710   1.390  -0.736  0.00  0.00    +0.219 C 
ATOM     28  O   UNL     1      -3.650   1.168   0.455  0.00  0.00    -0.275 OA
ATOM     29  H   UNL     1      -3.491   0.586  -2.571  0.00  0.00    +0.149 HD
BRANCH  26  30
ATOM     30  C   UNL     1      -3.079  -0.928  -1.141  0.00  0.00    +0.100 C 
ATOM     31  C   UNL     1      -4.350  -1.717  -0.818  0.00  0.00    +0.033 C 
BRANCH  30  34
ATOM     32  C   UNL     1      -3.042  -0.715  -4.416  0.00  0.00    +0.039 C 
ATOM     33  C   UNL     1      -2.740  -1.988  -3.623  0.00  0.00    +0.154 C 
ATOM     34  C   UNL     1      -2.299  -1.649  -2.210  0.00  0.00    -0.001 C 
ATOM     35  C   UNL     1      -1.058  -2.136  -2.135  0.00  0.00    +0.063 C 
ATOM     36  N   UNL     1      -0.699  -2.717  -3.301  0.00  0.00    -0.159 NA
ATOM     37  N   UNL     1      -1.568  -2.684  -4.181  0.00  0.00    -0.180 NA
ATOM     38  C   UNL     1      -0.178  -2.050  -0.915  0.00  0.00    +0.067 C 
ENDBRANCH  30  34
ENDBRANCH  26  30
ENDBRANCH   1  27
TORSDOF 5
