REMARK  Name = ZINC01606457
REMARK  11 active torsions:
REMARK  status: ('A' for Active; 'I' for Inactive)
REMARK    1  A    between atoms: C_1  and  C_2
REMARK    2  A    between atoms: C_5  and  S_8
REMARK    3  A    between atoms: S_8  and  N_11
REMARK    4  A    between atoms: C_15  and  C_17
REMARK    5  A    between atoms: N_19  and  N_20
REMARK    6  A    between atoms: C_21  and  C_23
REMARK    7  A    between atoms: C_23  and  C_25
REMARK    8  A    between atoms: C_23  and  N_55
REMARK    9  A    between atoms: C_25  and  C_26
REMARK   10  A    between atoms: C_26  and  C_27
REMARK   11  A    between atoms: C_26  and  C_28
REMARK                            x       y       z     vdW  Elec       q    Type
REMARK                         _______ _______ _______ _____ _____    ______ ____
ROOT
ATOM      1  C   UNL     1      -2.233   5.746  -1.235  0.00  0.00    +0.248 C 
ATOM      2  O   UNL     1      -3.135   5.370  -1.952  0.00  0.00    -0.273 OA
ATOM      3  N   UNL     1      -1.299   4.870  -0.812  0.00  0.00    -0.233 N 
ATOM      4  H   UNL     1      -0.577   5.170  -0.238  0.00  0.00    +0.173 HD
ENDROOT
BRANCH   1   9
ATOM      5  N   UNL     1      -3.272   7.943  -1.404  0.00  0.00    -0.165 NA
ATOM      6  C   UNL     1      -2.719   8.989  -2.290  0.00  0.00    +0.110 C 
ATOM      7  C   UNL     1      -1.290   9.249  -1.751  0.00  0.00    +0.019 C 
ATOM      8  C   UNL     1      -0.847   7.820  -1.339  0.00  0.00    +0.031 C 
ATOM      9  C   UNL     1      -2.155   7.191  -0.815  0.00  0.00    +0.167 C 
BRANCH   5  10
ATOM     10  S   UNL     1      -4.880   7.663  -1.123  0.00  0.00    +0.062 S 
ATOM     11  O   UNL     1      -5.585   8.178  -2.244  0.00  0.00    -0.153 OA
ATOM     12  O   UNL     1      -4.990   6.307  -0.712  0.00  0.00    -0.153 OA
BRANCH  10  17
ATOM     13  C   UNL     1      -6.476  11.037   3.618  0.00  0.00    +0.044 C 
ATOM     14  C   UNL     1      -6.078  10.194   2.434  0.00  0.00    -0.050 A 
ATOM     15  C   UNL     1      -6.181  10.707   1.154  0.00  0.00    +0.005 A 
ATOM     16  C   UNL     1      -5.815   9.934   0.068  0.00  0.00    +0.029 A 
ATOM     17  C   UNL     1      -5.346   8.648   0.261  0.00  0.00    +0.106 A 
ATOM     18  C   UNL     1      -5.249   8.133   1.540  0.00  0.00    +0.029 A 
ATOM     19  C   UNL     1      -5.610   8.908   2.627  0.00  0.00    +0.005 A 
ENDBRANCH  10  17
ENDBRANCH   5  10
ENDBRANCH   1   9
BRANCH   3  20
ATOM     20  N   UNL     1      -1.371   3.527  -1.203  0.00  0.00    -0.236 N 
ATOM     21  C   UNL     1      -0.438   2.651  -0.780  0.00  0.00    +0.215 C 
ATOM     22  O   UNL     1       0.465   3.026  -0.062  0.00  0.00    -0.276 OA
ATOM     23  H   UNL     1      -2.093   3.226  -1.777  0.00  0.00    +0.173 HD
BRANCH  21  24
ATOM     24  C   UNL     1      -0.515   1.206  -1.200  0.00  0.00    +0.014 C 
BRANCH  24  27
ATOM     25  H   UNL     1       0.164  -0.598  -0.477  0.00  0.00    -0.089 HD
ATOM     26  H   UNL     1       1.249   0.649  -0.297  0.00  0.00    -0.089 HD
ATOM     27  N   UNL     1       0.265   0.390  -0.253  0.00  0.00    +0.386 N 
ATOM     28  H   UNL     1      -0.082   0.555   0.700  0.00  0.00    -0.089 HD
ENDBRANCH  24  27
BRANCH  24  29
ATOM     29  C   UNL     1       0.040   1.056  -2.618  0.00  0.00    -0.004 C 
BRANCH  29  30
ATOM     30  C   UNL     1      -0.873   1.787  -3.603  0.00  0.00    -0.018 C 
ATOM     31  C   UNL     1      -0.253   1.744  -5.002  0.00  0.00    +0.007 C 
ATOM     32  C   UNL     1      -2.242   1.105  -3.632  0.00  0.00    +0.007 C 
ENDBRANCH  29  30
ENDBRANCH  24  29
ENDBRANCH  21  24
ENDBRANCH   3  20
TORSDOF 8
