REMARK  Name = ZINC20114710
REMARK  11 active torsions:
REMARK  status: ('A' for Active; 'I' for Inactive)
REMARK    1  A    between atoms: C_1  and  C_2
REMARK    2  A    between atoms: C_2  and  S_3
REMARK    3  A    between atoms: S_3  and  C_4
REMARK    4  A    between atoms: C_12  and  C_13
REMARK    5  A    between atoms: C_16  and  O_21
REMARK    6  A    between atoms: C_17  and  O_19
REMARK    7  A    between atoms: O_19  and  C_20
REMARK    8  A    between atoms: O_21  and  C_22
REMARK    9  A    between atoms: C_22  and  C_23
REMARK   10  A    between atoms: C_23  and  O_24
REMARK   11  A    between atoms: O_24  and  C_25
REMARK                            x       y       z     vdW  Elec       q    Type
REMARK                         _______ _______ _______ _____ _____    ______ ____
ROOT
ATOM      1  C   UNL     1      -7.052  -4.530  -1.424  0.00  0.00    -0.021 A 
ATOM      2  C   UNL     1      -6.787  -5.891  -1.211  0.00  0.00    +0.012 A 
ATOM      3  C   UNL     1      -7.703  -6.839  -1.605  0.00  0.00    +0.050 A 
ATOM      4  C   UNL     1      -8.891  -6.454  -2.213  0.00  0.00    +0.162 A 
ATOM      5  C   UNL     1      -9.163  -5.102  -2.429  0.00  0.00    +0.162 A 
ATOM      6  C   UNL     1      -8.254  -4.143  -2.033  0.00  0.00    +0.057 A 
ENDROOT
BRANCH   1  15
ATOM      7  C   UNL     1      -5.269   1.228  -1.190  0.00  0.00    +0.175 C 
ATOM      8  N   UNL     1      -5.713   2.290  -1.804  0.00  0.00    -0.185 NA
ATOM      9  S   UNL     1      -6.516   1.687  -3.146  0.00  0.00    +0.048 S 
ATOM     10  C   UNL     1      -6.316   0.054  -2.874  0.00  0.00    +0.183 C 
ATOM     11  N   UNL     1      -6.766  -0.979  -3.551  0.00  0.00    -0.152 NA
ATOM     12  C   UNL     1      -6.527  -2.223  -3.099  0.00  0.00    +0.273 C 
ATOM     13  O   UNL     1      -6.816  -3.199  -3.772  0.00  0.00    -0.268 OA
ATOM     14  C   UNL     1      -5.903  -2.381  -1.762  0.00  0.00    +0.079 C 
ATOM     15  C   UNL     1      -6.080  -3.518  -1.006  0.00  0.00    +0.024 C 
ATOM     16  C   UNL     1      -5.072  -1.238  -1.283  0.00  0.00    +0.137 C 
ATOM     17  N   UNL     1      -4.022  -1.383  -0.521  0.00  0.00    -0.284 NA
ATOM     18  N   UNL     1      -5.530   0.014  -1.739  0.00  0.00    -0.211 N 
ATOM     19  H   UNL     1      -3.747  -2.269  -0.238  0.00  0.00    +0.188 HD
BRANCH   7  20
ATOM     20  S   UNL     1      -4.351   1.365   0.308  0.00  0.00    -0.089 S 
BRANCH  20  22
ATOM     21  C   UNL     1      -3.497   3.415   1.904  0.00  0.00    +0.016 C 
ATOM     22  C   UNL     1      -4.278   3.151   0.615  0.00  0.00    +0.074 C 
ENDBRANCH  20  22
ENDBRANCH   7  20
ENDBRANCH   1  15
BRANCH   5  23
ATOM     23  O   UNL     1     -10.327  -4.730  -3.026  0.00  0.00    -0.491 OA
ATOM     24  C   UNL     1     -10.541  -3.330  -3.215  0.00  0.00    +0.277 C 
ENDBRANCH   5  23
BRANCH   4  25
ATOM     25  O   UNL     1      -9.790  -7.395  -2.600  0.00  0.00    -0.485 OA
BRANCH  25  26
ATOM     26  C   UNL     1      -9.448  -8.760  -2.350  0.00  0.00    +0.270 C 
BRANCH  26  27
ATOM     27  C   UNL     1     -10.574  -9.667  -2.850  0.00  0.00    +0.270 C 
BRANCH  27  28
ATOM     28  O   UNL     1     -10.677  -9.558  -4.271  0.00  0.00    -0.487 OA
BRANCH  28  29
ATOM     29  C   UNL     1     -11.636 -10.305  -4.879  0.00  0.00    +0.139 A 
ATOM     30  C   UNL     1     -12.463 -11.123  -4.123  0.00  0.00    +0.047 A 
ATOM     31  C   UNL     1     -13.438 -11.881  -4.744  0.00  0.00    +0.004 A 
ATOM     32  C   UNL     1     -13.588 -11.827  -6.117  0.00  0.00    +0.002 A 
ATOM     33  C   UNL     1     -12.765 -11.014  -6.874  0.00  0.00    +0.023 A 
ATOM     34  C   UNL     1     -11.793 -10.248  -6.258  0.00  0.00    +0.083 A 
ATOM     35 CL   UNL     1     -10.764  -9.221  -7.207  0.00  0.00    -0.080 Cl
ENDBRANCH  28  29
ENDBRANCH  27  28
ENDBRANCH  26  27
ENDBRANCH  25  26
ENDBRANCH   4  25
TORSDOF 9
