REMARK  Name = ZINC36528339
REMARK  13 active torsions:
REMARK  status: ('A' for Active; 'I' for Inactive)
REMARK    1  A    between atoms: C_1  and  C_2
REMARK    2  A    between atoms: C_2  and  C_3
REMARK    3  A    between atoms: C_3  and  C_4
REMARK    4  A    between atoms: C_4  and  N_5
REMARK    5  A    between atoms: C_6  and  C_8
REMARK    6  A    between atoms: C_8  and  C_10
REMARK    7  A    between atoms: C_8  and  N_19
REMARK    8  A    between atoms: C_11  and  O_18
REMARK    9  A    between atoms: C_13  and  O_17
REMARK   10  A    between atoms: C_15  and  O_16
REMARK   11  A    between atoms: N_19  and  C_20
REMARK   12  A    between atoms: C_21  and  C_23
REMARK   13  A    between atoms: C_23  and  C_24
REMARK                            x       y       z     vdW  Elec       q    Type
REMARK                         _______ _______ _______ _____ _____    ______ ____
ROOT
ATOM      1  C   UNL     1       2.339  -4.376  -3.821  0.00  0.00    +0.199 C 
ENDROOT
BRANCH   1   2
ATOM      2  C   UNL     1       1.813  -3.688  -5.054  0.00  0.00    +0.065 A 
ATOM      3  C   UNL     1       0.744  -4.233  -5.749  0.00  0.00    +0.129 A 
ATOM      4  C   UNL     1       0.260  -3.600  -6.884  0.00  0.00    +0.091 A 
ATOM      5  C   UNL     1       0.843  -2.421  -7.322  0.00  0.00    +0.124 A 
ATOM      6  C   UNL     1       1.911  -1.875  -6.626  0.00  0.00    +0.091 A 
ATOM      7  C   UNL     1       2.393  -2.506  -5.489  0.00  0.00    +0.129 A 
BRANCH   7   8
ATOM      8  O   UNL     1       3.436  -1.968  -4.804  0.00  0.00    -0.506 OA
ATOM      9  H   UNL     1       4.303  -2.274  -5.104  0.00  0.00    +0.292 HD
ENDBRANCH   7   8
BRANCH   5  10
ATOM     10  O   UNL     1       0.369  -1.800  -8.435  0.00  0.00    -0.507 OA
ATOM     11  H   UNL     1      -0.331  -1.157  -8.258  0.00  0.00    +0.292 HD
ENDBRANCH   5  10
BRANCH   3  12
ATOM     12  O   UNL     1       0.172  -5.388  -5.320  0.00  0.00    -0.506 OA
ATOM     13  H   UNL     1      -0.607  -5.258  -4.762  0.00  0.00    +0.292 HD
ENDBRANCH   3  12
ENDBRANCH   1   2
BRANCH   1  15
ATOM     14  N   UNL     1       0.452  -3.652  -2.395  0.00  0.00    -0.313 N 
ATOM     15  C   UNL     1       1.197  -4.665  -2.880  0.00  0.00    +0.238 C 
ATOM     16  O   UNL     1       0.949  -5.808  -2.560  0.00  0.00    -0.273 OA
ATOM     17  H   UNL     1       0.650  -2.738  -2.651  0.00  0.00    +0.149 HD
BRANCH  14  18
ATOM     18  C   UNL     1      -0.658  -3.933  -1.480  0.00  0.00    +0.104 C 
BRANCH  18  19
ATOM     19  C   UNL     1      -1.335  -2.620  -1.082  0.00  0.00    +0.018 C 
BRANCH  19  21
ATOM     20  C   UNL     1      -3.170  -1.600   0.272  0.00  0.00    +0.004 C 
ATOM     21  C   UNL     1      -2.494  -2.913  -0.127  0.00  0.00    -0.002 C 
ENDBRANCH  19  21
ENDBRANCH  18  19
ENDBRANCH  14  18
ENDBRANCH   1  15
BRANCH   1  22
ATOM     22  N   UNL     1       2.987  -5.633  -4.202  0.00  0.00    -0.289 N 
ATOM     23  C   UNL     1       2.189  -6.730  -4.757  0.00  0.00    +0.133 C 
ATOM     24  C   UNL     1       4.317  -5.781  -4.044  0.00  0.00    +0.221 C 
ATOM     25  O   UNL     1       4.978  -4.874  -3.585  0.00  0.00    -0.275 OA
BRANCH  24  26
ATOM     26  C   UNL     1       4.984  -7.074  -4.436  0.00  0.00    +0.131 C 
BRANCH  26  27
ATOM     27  C   UNL     1       6.462  -6.982  -4.160  0.00  0.00    -0.039 A 
ATOM     28  C   UNL     1       7.319  -6.506  -5.136  0.00  0.00    +0.005 A 
ATOM     29  C   UNL     1       8.675  -6.420  -4.883  0.00  0.00    +0.015 A 
ATOM     30  C   UNL     1       9.175  -6.811  -3.653  0.00  0.00    +0.018 A 
ATOM     31  C   UNL     1       8.318  -7.286  -2.678  0.00  0.00    +0.015 A 
ATOM     32  C   UNL     1       6.961  -7.367  -2.930  0.00  0.00    +0.005 A 
ATOM     33 BR   UNL     1      11.030  -6.694  -3.307  0.00  0.00    -0.050 Br
ENDBRANCH  26  27
ENDBRANCH  24  26
ENDBRANCH   1  22
TORSDOF 11
