REMARK  Name = ZINC52066387
REMARK  9 active torsions:
REMARK  status: ('A' for Active; 'I' for Inactive)
REMARK    1  A    between atoms: C_1  and  C_2
REMARK    2  A    between atoms: C_2  and  N_3
REMARK    3  A    between atoms: C_7  and  C_9
REMARK    4  A    between atoms: C_9  and  C_11
REMARK    5  A    between atoms: C_9  and  O_12
REMARK    6  A    between atoms: O_12  and  C_13
REMARK    7  A    between atoms: C_18  and  C_19
REMARK    8  A    between atoms: C_19  and  C_21
REMARK    9  A    between atoms: C_19  and  N_22
REMARK                            x       y       z     vdW  Elec       q    Type
REMARK                         _______ _______ _______ _____ _____    ______ ____
ROOT
ATOM      1  O   UNL     1       2.425  -5.464  -3.947  0.00  0.00    -0.480 OA
ENDROOT
BRANCH   1   2
ATOM      2  C   UNL     1       3.440  -6.021  -4.659  0.00  0.00    +0.123 A 
ATOM      3  C   UNL     1       4.362  -5.210  -5.305  0.00  0.00    +0.047 A 
ATOM      4  C   UNL     1       5.393  -5.777  -6.028  0.00  0.00    +0.019 A 
ATOM      5  C   UNL     1       5.506  -7.154  -6.109  0.00  0.00    +0.018 A 
ATOM      6  C   UNL     1       4.588  -7.965  -5.466  0.00  0.00    +0.020 A 
ATOM      7  C   UNL     1       3.558  -7.401  -4.737  0.00  0.00    -0.019 A 
ATOM      8 BR   UNL     1       6.918  -7.928  -7.099  0.00  0.00    -0.050 Br
BRANCH   7   9
ATOM      9  C   UNL     1       2.562  -8.284  -4.031  0.00  0.00    -0.044 C 
ATOM     10  C   UNL     1       1.337  -8.487  -4.925  0.00  0.00    -0.009 C 
BRANCH   9  11
ATOM     11  N   UNL     1       3.179  -9.586  -3.744  0.00  0.00    +0.383 N 
ATOM     12  H   UNL     1       3.462 -10.022  -4.609  0.00  0.00    -0.089 HD
ATOM     13  H   UNL     1       3.987  -9.453  -3.155  0.00  0.00    -0.089 HD
ATOM     14  H   UNL     1       2.513 -10.178  -3.271  0.00  0.00    -0.089 HD
ENDBRANCH   9  11
ENDBRANCH   7   9
ENDBRANCH   1   2
BRANCH   1  15
ATOM     15  C   UNL     1       2.436  -4.043  -3.804  0.00  0.00    +0.256 C 
ATOM     16  C   UNL     1       1.771  -3.402  -5.025  0.00  0.00    +0.062 C 
BRANCH  15  21
ATOM     17  N   UNL     1       0.928  -0.735  -0.658  0.00  0.00    -0.299 N 
ATOM     18  C   UNL     1       0.964  -2.023  -1.053  0.00  0.00    +0.306 C 
ATOM     19  O   UNL     1       0.387  -2.874  -0.405  0.00  0.00    -0.252 OA
ATOM     20  N   UNL     1       1.642  -2.368  -2.166  0.00  0.00    -0.237 N 
ATOM     21  C   UNL     1       1.678  -3.657  -2.560  0.00  0.00    +0.261 C 
ATOM     22  O   UNL     1       1.102  -4.505  -1.913  0.00  0.00    -0.271 OA
ATOM     23  H   UNL     1       1.389  -0.056  -1.176  0.00  0.00    +0.150 HD
ATOM     24  H   UNL     1       2.103  -1.690  -2.683  0.00  0.00    +0.159 HD
BRANCH  17  26
ATOM     25  C   UNL     1       0.308   1.150   0.772  0.00  0.00    +0.024 C 
ATOM     26  C   UNL     1       0.192  -0.360   0.551  0.00  0.00    +0.102 C 
ENDBRANCH  17  26
ENDBRANCH  15  21
ENDBRANCH   1  15
TORSDOF 6
