REMARK  Name = ZINC36945533
REMARK  8 active torsions:
REMARK  status: ('A' for Active; 'I' for Inactive)
REMARK    1  A    between atoms: C_1  and  C_2
REMARK    2  A    between atoms: C_2  and  C_4
REMARK    3  A    between atoms: C_2  and  N_11
REMARK    4  A    between atoms: N_11  and  C_12
REMARK    5  A    between atoms: C_12  and  C_14
REMARK    6  A    between atoms: C_12  and  C_15
REMARK    7  A    between atoms: C_17  and  O_22
REMARK    8  A    between atoms: C_20  and  O_21
REMARK                            x       y       z     vdW  Elec       q    Type
REMARK                         _______ _______ _______ _____ _____    ______ ____
ROOT
ATOM      1  N   UNL     1       0.582  -0.480  -1.261  0.00  0.00    +0.388 N 
ATOM      2  H   UNL     1       0.445  -1.469  -1.406  0.00  0.00    -0.084 HD
ATOM      3  H   UNL     1       0.117   0.035  -1.994  0.00  0.00    -0.084 HD
ENDROOT
BRANCH   1   5
ATOM      4  C   UNL     1       0.095   1.427   0.197  0.00  0.00    -0.009 C 
ATOM      5  C   UNL     1       0.021  -0.094   0.041  0.00  0.00    -0.042 C 
BRANCH   5   6
ATOM      6  C   UNL     1      -1.417  -0.537   0.120  0.00  0.00    -0.048 A 
ATOM      7  C   UNL     1      -2.118  -0.819  -1.038  0.00  0.00    +0.003 A 
ATOM      8  C   UNL     1      -3.437  -1.227  -0.965  0.00  0.00    +0.000 A 
ATOM      9  C   UNL     1      -4.055  -1.353   0.265  0.00  0.00    +0.001 A 
ATOM     10  C   UNL     1      -3.355  -1.072   1.423  0.00  0.00    +0.015 A 
ATOM     11  C   UNL     1      -2.033  -0.669   1.351  0.00  0.00    +0.019 A 
ATOM     12 BR   UNL     1      -1.072  -0.290   2.935  0.00  0.00    -0.050 Br
ENDBRANCH   5   6
ENDBRANCH   1   5
BRANCH   1  13
ATOM     13  C   UNL     1       2.019  -0.176  -1.285  0.00  0.00    -0.040 C 
ATOM     14  C   UNL     1       2.573  -0.440  -2.687  0.00  0.00    -0.009 C 
BRANCH  13  15
ATOM     15  C   UNL     1       2.735  -1.052  -0.289  0.00  0.00    -0.017 A 
ATOM     16  C   UNL     1       2.191  -2.268   0.077  0.00  0.00    +0.051 A 
ATOM     17  C   UNL     1       2.849  -3.074   0.993  0.00  0.00    +0.117 A 
ATOM     18  C   UNL     1       4.054  -2.660   1.542  0.00  0.00    +0.049 A 
ATOM     19  C   UNL     1       4.598  -1.444   1.175  0.00  0.00    +0.049 A 
ATOM     20  C   UNL     1       3.942  -0.640   0.255  0.00  0.00    +0.119 A 
BRANCH  20  21
ATOM     21  O   UNL     1       4.480   0.554  -0.110  0.00  0.00    -0.507 OA
ATOM     22  H   UNL     1       4.203   1.296   0.445  0.00  0.00    +0.292 HD
ENDBRANCH  20  21
BRANCH  17  23
ATOM     23  O   UNL     1       2.314  -4.271   1.355  0.00  0.00    -0.507 OA
ATOM     24  H   UNL     1       2.594  -5.011   0.799  0.00  0.00    +0.292 HD
ENDBRANCH  17  23
ENDBRANCH  13  15
ENDBRANCH   1  13
TORSDOF 6
