REMARK  Name = ZINC41022249
REMARK  11 active torsions:
REMARK  status: ('A' for Active; 'I' for Inactive)
REMARK    1  A    between atoms: C_1  and  C_2
REMARK    2  A    between atoms: C_6  and  N_9
REMARK    3  A    between atoms: C_7  and  C_8
REMARK    4  A    between atoms: C_10  and  C_12
REMARK    5  A    between atoms: C_13  and  C_38
REMARK    6  A    between atoms: C_20  and  C_22
REMARK    7  A    between atoms: C_25  and  O_30
REMARK    8  A    between atoms: C_26  and  O_28
REMARK    9  A    between atoms: O_28  and  C_29
REMARK   10  A    between atoms: O_30  and  C_31
REMARK   11  A    between atoms: C_31  and  C_32
REMARK                            x       y       z     vdW  Elec       q    Type
REMARK                         _______ _______ _______ _____ _____    ______ ____
ROOT
ATOM      1  C   UNL     1       0.169  -6.030   4.916  0.00  0.00    +0.060 C 
ATOM      2  C   UNL     1       0.194  -7.370   4.849  0.00  0.00    +0.018 C 
ATOM      3  N   UNL     1       0.632  -8.146   5.894  0.00  0.00    -0.287 N 
ATOM      4  C   UNL     1       0.806  -7.526   7.123  0.00  0.00    +0.218 A 
ATOM      5  N   UNL     1       0.992  -8.040   8.307  0.00  0.00    -0.201 NA
ATOM      6  C   UNL     1       1.104  -7.059   9.209  0.00  0.00    +0.247 A 
ATOM      7  N   UNL     1       0.991  -5.903   8.603  0.00  0.00    -0.156 NA
ATOM      8  N   UNL     1       0.800  -6.175   7.249  0.00  0.00    -0.221 N 
ATOM      9  C   UNL     1       0.631  -5.259   6.123  0.00  0.00    +0.177 C 
ATOM     10  C   UNL     1      -0.274  -8.044   3.586  0.00  0.00    +0.061 C 
ATOM     11  H   UNL     1       0.813  -9.092   5.777  0.00  0.00    +0.155 HD
ENDROOT
BRANCH   9  12
ATOM     12  C   UNL     1       1.943  -4.585   5.817  0.00  0.00    -0.015 A 
ATOM     13  C   UNL     1       3.077  -5.346   5.605  0.00  0.00    +0.010 A 
ATOM     14  C   UNL     1       4.283  -4.733   5.323  0.00  0.00    +0.050 A 
ATOM     15  C   UNL     1       4.358  -3.351   5.253  0.00  0.00    +0.162 A 
ATOM     16  C   UNL     1       3.216  -2.584   5.466  0.00  0.00    +0.162 A 
ATOM     17  C   UNL     1       2.009  -3.206   5.743  0.00  0.00    +0.055 A 
BRANCH  16  18
ATOM     18  O   UNL     1       3.284  -1.227   5.398  0.00  0.00    -0.491 OA
ATOM     19  C   UNL     1       2.066  -0.506   5.591  0.00  0.00    +0.277 C 
ENDBRANCH  16  18
BRANCH  15  20
ATOM     20  O   UNL     1       5.544  -2.745   4.976  0.00  0.00    -0.484 OA
BRANCH  20  21
ATOM     21  C   UNL     1       6.673  -3.596   4.769  0.00  0.00    +0.264 C 
BRANCH  21  22
ATOM     22  C   UNL     1       7.889  -2.754   4.477  0.00  0.00    -0.010 A 
ATOM     23  C   UNL     1       8.194  -2.409   3.174  0.00  0.00    +0.007 A 
ATOM     24  C   UNL     1       9.309  -1.637   2.906  0.00  0.00    +0.000 A 
ATOM     25  C   UNL     1      10.118  -1.209   3.942  0.00  0.00    +0.000 A 
ATOM     26  C   UNL     1       9.813  -1.553   5.245  0.00  0.00    +0.000 A 
ATOM     27  C   UNL     1       8.695  -2.322   5.513  0.00  0.00    +0.007 A 
ENDBRANCH  21  22
ENDBRANCH  20  21
ENDBRANCH  15  20
ENDBRANCH   9  12
BRANCH   1  29
ATOM     28  N   UNL     1       0.466  -5.170   2.703  0.00  0.00    -0.281 N 
ATOM     29  C   UNL     1      -0.309  -5.309   3.797  0.00  0.00    +0.248 C 
ATOM     30  O   UNL     1      -1.421  -4.812   3.823  0.00  0.00    -0.270 OA
ATOM     31  H   UNL     1       1.309  -5.645   2.643  0.00  0.00    +0.155 HD
BRANCH  28  37
ATOM     32  C   UNL     1       1.611  -2.211  -1.051  0.00  0.00    +0.044 C 
ATOM     33  C   UNL     1       0.588  -2.893  -0.181  0.00  0.00    -0.046 A 
ATOM     34  C   UNL     1      -0.761  -2.700  -0.418  0.00  0.00    +0.004 A 
ATOM     35  C   UNL     1      -1.703  -3.324   0.378  0.00  0.00    +0.002 A 
ATOM     36  C   UNL     1      -1.300  -4.144   1.414  0.00  0.00    +0.023 A 
ATOM     37  C   UNL     1       0.054  -4.341   1.655  0.00  0.00    +0.037 A 
ATOM     38  C   UNL     1       0.998  -3.716   0.850  0.00  0.00    -0.026 A 
ATOM     39  C   UNL     1       2.467  -3.932   1.104  0.00  0.00    +0.046 C 
ENDBRANCH  28  37
ENDBRANCH   1  29
TORSDOF 7
