REMARK  Name = ZINC14922467
REMARK  7 active torsions:
REMARK  status: ('A' for Active; 'I' for Inactive)
REMARK    1  A    between atoms: C_1  and  C_2
REMARK    2  A    between atoms: C_7  and  C_8
REMARK    3  A    between atoms: C_8  and  N_9
REMARK    4  A    between atoms: N_9  and  C_10
REMARK    5  A    between atoms: N_9  and  C_11
REMARK    6  A    between atoms: C_11  and  C_12
REMARK    7  A    between atoms: N_18  and  C_19
REMARK                            x       y       z     vdW  Elec       q    Type
REMARK                         _______ _______ _______ _____ _____    ______ ____
ROOT
ATOM      1  C   UNL     1      -3.157   1.223   4.371  0.00  0.00    +0.120 A 
ATOM      2  N   UNL     1      -3.859   2.251   3.928  0.00  0.00    -0.202 NA
ATOM      3  C   UNL     1      -5.138   2.384   4.272  0.00  0.00    +0.217 A 
ATOM      4  N   UNL     1      -5.708   1.482   5.064  0.00  0.00    -0.181 NA
ATOM      5  C   UNL     1      -4.998   0.450   5.508  0.00  0.00    +0.224 A 
ATOM      6  N   UNL     1      -3.721   0.321   5.154  0.00  0.00    -0.201 NA
ATOM      7  N   UNL     1      -5.586  -0.491   6.331  0.00  0.00    -0.284 N 
ATOM      8  N   UNL     1      -5.870   3.458   3.809  0.00  0.00    -0.327 N 
ATOM      9  H   UNL     1      -5.049  -1.199   6.719  0.00  0.00    +0.155 HD
ATOM     10  H   UNL     1      -5.453   4.116   3.232  0.00  0.00    +0.145 HD
ATOM     11  H   UNL     1      -6.802   3.554   4.061  0.00  0.00    +0.145 HD
ENDROOT
BRANCH   7  12
ATOM     12  C   UNL     1      -6.957  -0.421   6.605  0.00  0.00    +0.034 A 
ATOM     13  C   UNL     1      -7.839   0.031   5.633  0.00  0.00    +0.026 A 
ATOM     14  C   UNL     1      -9.191   0.098   5.905  0.00  0.00    +0.040 A 
ATOM     15  C   UNL     1      -9.668  -0.285   7.147  0.00  0.00    +0.124 A 
ATOM     16  C   UNL     1      -8.790  -0.737   8.119  0.00  0.00    +0.040 A 
ATOM     17  C   UNL     1      -7.438  -0.811   7.848  0.00  0.00    +0.026 A 
ATOM     18  F   UNL     1     -10.991  -0.219   7.412  0.00  0.00    -0.205 F 
ENDBRANCH   7  12
BRANCH   1  19
ATOM     19  C   UNL     1      -1.709   1.077   3.978  0.00  0.00    -0.001 C 
BRANCH  19  20
ATOM     20  N   UNL     1      -1.615   0.298   2.736  0.00  0.00    +0.385 N 
ATOM     21  C   UNL     1      -2.242   1.048   1.639  0.00  0.00    -0.095 C 
ATOM     22  H   UNL     1      -2.091  -0.584   2.855  0.00  0.00    -0.081 HD
BRANCH  20  23
ATOM     23  C   UNL     1      -0.203   0.053   2.417  0.00  0.00    -0.043 C 
BRANCH  23  30
ATOM     24  C   UNL     1      -0.774  -2.763   2.724  0.00  0.00    +0.044 C 
ATOM     25  C   UNL     1      -0.382  -2.216   1.375  0.00  0.00    -0.049 A 
ATOM     26  C   UNL     1      -0.301  -3.061   0.284  0.00  0.00    +0.003 A 
ATOM     27  C   UNL     1       0.059  -2.559  -0.953  0.00  0.00    +0.000 A 
ATOM     28  C   UNL     1       0.338  -1.213  -1.098  0.00  0.00    +0.000 A 
ATOM     29  C   UNL     1       0.256  -0.368  -0.007  0.00  0.00    +0.002 A 
ATOM     30  C   UNL     1      -0.108  -0.869   1.229  0.00  0.00    -0.061 A 
ENDBRANCH  23  30
ENDBRANCH  20  23
ENDBRANCH  19  20
ENDBRANCH   1  19
TORSDOF 5
