REMARK  Name = ZINC12329685
REMARK  10 active torsions:
REMARK  status: ('A' for Active; 'I' for Inactive)
REMARK    1  A    between atoms: C_1  and  O_2
REMARK    2  A    between atoms: O_2  and  C_3
REMARK    3  A    between atoms: C_6  and  C_11
REMARK    4  A    between atoms: C_8  and  O_9
REMARK    5  A    between atoms: O_9  and  C_10
REMARK    6  A    between atoms: C_11  and  C_13
REMARK    7  A    between atoms: C_11  and  O_31
REMARK    8  A    between atoms: C_13  and  N_59
REMARK    9  A    between atoms: C_20  and  O_30
REMARK   10  A    between atoms: C_24  and  O_29
REMARK                            x       y       z     vdW  Elec       q    Type
REMARK                         _______ _______ _______ _____ _____    ______ ____
ROOT
ATOM      1  C   UNL     1      -4.141  -0.503  -0.415  0.00  0.00    -0.075 C 
ATOM      2  C   UNL     1      -2.636  -0.239  -0.314  0.00  0.00    +0.029 C 
ATOM      3  C   UNL     1      -2.364   1.244  -0.572  0.00  0.00    +0.110 C 
ATOM      4  C   UNL     1      -2.917   1.632  -1.945  0.00  0.00    +0.029 C 
ATOM      5  C   UNL     1      -4.414   1.314  -1.995  0.00  0.00    -0.075 C 
ATOM      6  C   UNL     1      -0.855   1.501  -0.539  0.00  0.00    +0.084 C 
ATOM      7  C   UNL     1      -0.310   1.010   0.805  0.00  0.00    +0.152 C 
ATOM      8  C   UNL     1      -1.171   1.540   1.924  0.00  0.00    +0.026 A 
ATOM      9  C   UNL     1      -0.658   1.548   3.211  0.00  0.00    +0.055 A 
ATOM     10  C   UNL     1      -1.421   2.026   4.263  0.00  0.00    +0.117 A 
ATOM     11  C   UNL     1      -2.705   2.496   4.028  0.00  0.00    +0.049 A 
ATOM     12  C   UNL     1      -3.216   2.489   2.747  0.00  0.00    +0.049 A 
ATOM     13  C   UNL     1      -2.449   2.012   1.688  0.00  0.00    +0.127 A 
ATOM     14  O   UNL     1      -2.986   2.035   0.439  0.00  0.00    -0.485 OA
ATOM     15  N   UNL     1      -4.604  -0.135  -1.770  0.00  0.00    +0.382 N 
ATOM     16  H   UNL     1      -4.052  -0.655  -2.463  0.00  0.00    -0.082 HD
ENDROOT
BRANCH  10  17
ATOM     17  O   UNL     1      -0.914   2.032   5.525  0.00  0.00    -0.507 OA
ATOM     18  H   UNL     1      -0.445   2.846   5.756  0.00  0.00    +0.292 HD
ENDBRANCH  10  17
BRANCH   7  19
ATOM     19  O   UNL     1       1.030   1.476   0.974  0.00  0.00    -0.387 OA
ATOM     20  H   UNL     1       1.440   1.202   1.805  0.00  0.00    +0.210 HD
ENDBRANCH   7  19
BRANCH  15  21
ATOM     21  C   UNL     1      -6.029  -0.488  -1.929  0.00  0.00    -0.042 C 
BRANCH  21  22
ATOM     22  C   UNL     1      -6.136  -1.997  -2.161  0.00  0.00    +0.128 C 
BRANCH  22  26
ATOM     23  C   UNL     1     -10.256  -3.100  -2.480  0.00  0.00    +0.162 A 
ATOM     24  C   UNL     1      -9.570  -2.642  -3.594  0.00  0.00    +0.050 A 
ATOM     25  C   UNL     1      -8.240  -2.281  -3.486  0.00  0.00    +0.010 A 
ATOM     26  C   UNL     1      -7.588  -2.386  -2.272  0.00  0.00    -0.017 A 
ATOM     27  C   UNL     1      -8.266  -2.843  -1.157  0.00  0.00    +0.055 A 
ATOM     28  C   UNL     1      -9.601  -3.201  -1.257  0.00  0.00    +0.162 A 
BRANCH  23  30
ATOM     29  C   UNL     1     -12.173  -3.321  -3.871  0.00  0.00    +0.277 C 
ATOM     30  O   UNL     1     -11.566  -3.450  -2.583  0.00  0.00    -0.491 OA
ENDBRANCH  23  30
BRANCH  28  31
ATOM     31  O   UNL     1     -10.270  -3.651  -0.161  0.00  0.00    -0.491 OA
ATOM     32  C   UNL     1      -9.534  -3.729   1.061  0.00  0.00    +0.277 C 
ENDBRANCH  28  31
ENDBRANCH  22  26
BRANCH  22  33
ATOM     33  O   UNL     1      -5.457  -2.342  -3.370  0.00  0.00    -0.389 OA
ATOM     34  H   UNL     1      -5.811  -1.906  -4.158  0.00  0.00    +0.210 HD
ENDBRANCH  22  33
ENDBRANCH  21  22
ENDBRANCH  15  21
TORSDOF 8
