REMARK  Name = ZINC00191859
REMARK  3 active torsions:
REMARK  status: ('A' for Active; 'I' for Inactive)
REMARK    1  A    between atoms: C_1  and  O_2
REMARK    2  A    between atoms: O_2  and  C_3
REMARK    3  A    between atoms: C_12  and  C_14
REMARK                            x       y       z     vdW  Elec       q    Type
REMARK                         _______ _______ _______ _____ _____    ______ ____
ROOT
ATOM      1  C   UNL     1       2.408   0.000  -0.021  0.00  0.00    +0.163 A 
ATOM      2  C   UNL     1       1.208  -0.688  -0.014  0.00  0.00    +0.049 A 
ATOM      3  C   UNL     1       0.002  -0.004   0.002  0.00  0.00    +0.004 A 
ATOM      4  C   UNL     1      -0.017   1.372   0.010  0.00  0.00    +0.012 A 
ATOM      5  C   UNL     1       1.190   2.085   0.002  0.00  0.00    +0.022 A 
ATOM      6  C   UNL     1       2.413   1.394  -0.013  0.00  0.00    +0.179 A 
ATOM      7  O   UNL     1       3.586   2.065  -0.021  0.00  0.00    -0.435 OA
ATOM      8  C   UNL     1       3.636   3.411  -0.014  0.00  0.00    +0.205 A 
ATOM      9  N   UNL     1       4.794   4.015  -0.022  0.00  0.00    -0.369 N 
ATOM     10  C   UNL     1       2.398   4.208   0.002  0.00  0.00    +0.096 A 
ATOM     11  C   UNL     1       1.184   3.549   0.009  0.00  0.00    +0.030 A 
ATOM     12  H   UNL     1       4.841   5.114  -0.016  0.00  0.00    +0.159 HD
ATOM     13  H   UNL     1       5.722   3.425  -0.034  0.00  0.00    +0.159 HD
ENDROOT
BRANCH  10  14
ATOM     14  C   UNL     1       2.453   5.679   0.009  0.00  0.00    +0.247 C 
ATOM     15  O   UNL     1       3.528   6.247   0.002  0.00  0.00    -0.270 OA
ATOM     16  N   UNL     1       1.312   6.396   0.023  0.00  0.00    -0.325 N 
ATOM     17  H   UNL     1       1.353   7.495   0.028  0.00  0.00    +0.145 HD
ATOM     18  H   UNL     1       0.339   5.882   0.029  0.00  0.00    +0.145 HD
ENDBRANCH  10  14
BRANCH   1  20
ATOM     19  C   UNL     1       3.505  -2.110  -0.043  0.00  0.00    +0.277 C 
ATOM     20  O   UNL     1       3.584  -0.683  -0.036  0.00  0.00    -0.491 OA
ENDBRANCH   1  20
TORSDOF 2
