REMARK  Name = ZINC21800197
REMARK  7 active torsions:
REMARK  status: ('A' for Active; 'I' for Inactive)
REMARK    1  A    between atoms: C_1  and  C_2
REMARK    2  A    between atoms: C_5  and  N_8
REMARK    3  A    between atoms: N_8  and  S_9
REMARK    4  A    between atoms: S_9  and  C_12
REMARK    5  A    between atoms: C_16  and  C_18
REMARK    6  A    between atoms: C_18  and  C_20
REMARK    7  A    between atoms: C_18  and  N_21
REMARK                            x       y       z     vdW  Elec       q    Type
REMARK                         _______ _______ _______ _____ _____    ______ ____
ROOT
ATOM      1  S   UNL     1      -2.733   0.849   0.020  0.00  0.00    +0.059 S 
ATOM      2  O   UNL     1      -3.722   1.714  -0.522  0.00  0.00    -0.153 OA
ATOM      3  O   UNL     1      -2.447  -0.426  -0.540  0.00  0.00    -0.153 OA
ENDROOT
BRANCH   1   4
ATOM      4  C   UNL     1      -1.219   1.751   0.017  0.00  0.00    +0.105 A 
ATOM      5  C   UNL     1      -0.013   1.076   0.008  0.00  0.00    +0.028 A 
ATOM      6  C   UNL     1       1.175   1.783   0.000  0.00  0.00    +0.002 A 
ATOM      7  C   UNL     1       1.156   3.166   0.008  0.00  0.00    +0.002 A 
ATOM      8  C   UNL     1      -0.050   3.840   0.023  0.00  0.00    -0.060 A 
ATOM      9  C   UNL     1      -1.238   3.133   0.030  0.00  0.00    +0.030 A 
BRANCH   8  10
ATOM     10  C   UNL     1      -0.070   5.347   0.032  0.00  0.00    -0.047 C 
ATOM     11  C   UNL     1       0.186   5.852   1.453  0.00  0.00    -0.009 C 
BRANCH  10  12
ATOM     12  N   UNL     1       0.975   5.856  -0.866  0.00  0.00    +0.382 N 
ATOM     13  H   UNL     1       0.960   6.956  -0.859  0.00  0.00    -0.089 HD
ATOM     14  H   UNL     1       0.791   5.493  -1.887  0.00  0.00    -0.089 HD
ATOM     15  H   UNL     1       1.958   5.501  -0.522  0.00  0.00    -0.089 HD
ENDBRANCH  10  12
ENDBRANCH   8  10
ENDBRANCH   1   4
BRANCH   1  16
ATOM     16  N   UNL     1      -3.146   0.590   1.602  0.00  0.00    -0.187 NA
ATOM     17  H   UNL     1      -3.011  -0.412   2.036  0.00  0.00    +0.148 HD
BRANCH  16  22
ATOM     18  C   UNL     1      -2.338  -0.594   5.940  0.00  0.00    +0.007 C 
ATOM     19  C   UNL     1      -2.832   0.573   5.084  0.00  0.00    -0.014 C 
ATOM     20  C   UNL     1      -4.079   0.145   4.308  0.00  0.00    +0.005 C 
ATOM     21  C   UNL     1      -4.574   1.312   3.452  0.00  0.00    +0.020 C 
ATOM     22  C   UNL     1      -3.477   1.724   2.468  0.00  0.00    +0.077 C 
ATOM     23  C   UNL     1      -2.230   2.153   3.245  0.00  0.00    +0.020 C 
ATOM     24  C   UNL     1      -1.735   0.985   4.100  0.00  0.00    +0.005 C 
ENDBRANCH  16  22
ENDBRANCH   1  16
TORSDOF 5
