REMARK  Name = ZINC38965316
REMARK  8 active torsions:
REMARK  status: ('A' for Active; 'I' for Inactive)
REMARK    1  A    between atoms: C_1  and  C_2
REMARK    2  A    between atoms: C_2  and  O_3
REMARK    3  A    between atoms: O_3  and  C_4
REMARK    4  A    between atoms: C_4  and  C_6
REMARK    5  A    between atoms: C_10  and  N_12
REMARK    6  A    between atoms: N_12  and  C_13
REMARK    7  A    between atoms: N_16  and  S_17
REMARK    8  A    between atoms: S_17  and  C_20
REMARK                            x       y       z     vdW  Elec       q    Type
REMARK                         _______ _______ _______ _____ _____    ______ ____
ROOT
ATOM      1  C   UNL     1       3.192  -6.206   4.990  0.00  0.00    +0.237 C 
ATOM      2  C   UNL     1       4.212  -7.155   4.402  0.00  0.00    +0.192 C 
ATOM      3  N   UNL     1       5.066  -6.738   3.514  0.00  0.00    -0.110 NA
ATOM      4  N   UNL     1       4.224  -8.433   4.812  0.00  0.00    -0.226 NA
ATOM      5  C   UNL     1       3.371  -8.879   5.710  0.00  0.00    +0.089 A 
ATOM      6  C   UNL     1       3.413 -10.236   6.119  0.00  0.00    +0.030 A 
ATOM      7  C   UNL     1       2.539 -10.699   7.040  0.00  0.00    +0.002 A 
ATOM      8  C   UNL     1       1.560  -9.886   7.635  0.00  0.00    +0.002 A 
ATOM      9  C   UNL     1       1.433  -8.579   7.316  0.00  0.00    +0.027 A 
ATOM     10  C   UNL     1       2.347  -7.997   6.322  0.00  0.00    +0.063 A 
ATOM     11  N   UNL     1       2.254  -6.740   5.990  0.00  0.00    -0.359 N 
ATOM     12  H   UNL     1       1.582  -6.169   6.395  0.00  0.00    +0.162 HD
ENDROOT
BRANCH   3  13
ATOM     13  S   UNL     1       6.178  -7.788   2.879  0.00  0.00    +0.103 S 
ATOM     14  O   UNL     1       7.046  -8.152   3.943  0.00  0.00    -0.146 OA
ATOM     15  O   UNL     1       5.448  -8.748   2.128  0.00  0.00    -0.146 OA
BRANCH  13  16
ATOM     16  C   UNL     1       7.151  -6.879   1.724  0.00  0.00    +0.141 A 
ATOM     17  C   UNL     1       8.471  -6.690   1.955  0.00  0.00    +0.031 A 
ATOM     18  C   UNL     1       9.272  -5.976   1.063  0.00  0.00    +0.004 A 
ATOM     19  C   UNL     1       8.764  -5.442  -0.072  0.00  0.00    +0.031 A 
ATOM     20  C   UNL     1       7.385  -5.601  -0.380  0.00  0.00    +0.102 A 
ATOM     21  C   UNL     1       6.549  -6.352   0.549  0.00  0.00    +0.127 A 
ATOM     22  N   UNL     1       5.278  -6.442   0.157  0.00  0.00    -0.189 NA
ATOM     23  S   UNL     1       5.200  -5.654  -1.244  0.00  0.00    +0.117 S 
ATOM     24  N   UNL     1       6.715  -5.150  -1.441  0.00  0.00    -0.191 NA
ENDBRANCH  13  16
ENDBRANCH   3  13
BRANCH   1  25
ATOM     25  N   UNL     1       2.402  -5.659   3.884  0.00  0.00    -0.318 N 
ATOM     26  H   UNL     1       1.992  -6.256   3.238  0.00  0.00    +0.148 HD
BRANCH  25  31
ATOM     27  C   UNL     1       2.509  -2.054   4.640  0.00  0.00    +0.061 A 
ATOM     28  C   UNL     1       1.902  -1.533   3.495  0.00  0.00    +0.015 A 
ATOM     29  C   UNL     1       1.470  -2.381   2.497  0.00  0.00    +0.003 A 
ATOM     30  C   UNL     1       1.634  -3.748   2.625  0.00  0.00    +0.023 A 
ATOM     31  C   UNL     1       2.237  -4.277   3.760  0.00  0.00    +0.030 A 
ATOM     32  C   UNL     1       2.681  -3.433   4.766  0.00  0.00    +0.038 A 
BRANCH  27  33
ATOM     33  C   UNL     1       2.974  -1.148   5.711  0.00  0.00    +0.339 C 
ATOM     34  O   UNL     1       3.506  -1.603   6.703  0.00  0.00    -0.245 OA
BRANCH  33  35
ATOM     35  O   UNL     1       2.807   0.183   5.586  0.00  0.00    -0.461 OA
BRANCH  35  37
ATOM     36  C   UNL     1       3.005   2.470   6.341  0.00  0.00    +0.048 C 
ATOM     37  C   UNL     1       3.280   0.999   6.659  0.00  0.00    +0.229 C 
ENDBRANCH  35  37
ENDBRANCH  33  35
ENDBRANCH  27  33
ENDBRANCH  25  31
ENDBRANCH   1  25
TORSDOF 7
