REMARK  Name = ZINC65380950
REMARK  9 active torsions:
REMARK  status: ('A' for Active; 'I' for Inactive)
REMARK    1  A    between atoms: C_1  and  C_2
REMARK    2  A    between atoms: C_7  and  N_8
REMARK    3  A    between atoms: N_8  and  C_9
REMARK    4  A    between atoms: N_8  and  C_10
REMARK    5  A    between atoms: N_11  and  C_12
REMARK    6  A    between atoms: C_12  and  C_13
REMARK    7  A    between atoms: C_13  and  N_14
REMARK    8  A    between atoms: C_19  and  C_21
REMARK    9  A    between atoms: C_21  and  O_22
REMARK                            x       y       z     vdW  Elec       q    Type
REMARK                         _______ _______ _______ _____ _____    ______ ____
ROOT
ATOM      1  C   UNL     1      -1.364   1.535  -0.784  0.00  0.00    +0.049 C 
ATOM      2  C   UNL     1      -1.104   0.055  -0.677  0.00  0.00    +0.005 A 
ATOM      3  C   UNL     1      -1.111  -0.747  -1.802  0.00  0.00    +0.092 A 
ATOM      4  N   UNL     1      -0.878  -2.045  -1.675  0.00  0.00    -0.334 N 
ATOM      5  C   UNL     1      -0.640  -2.581  -0.487  0.00  0.00    +0.195 A 
ATOM      6  N   UNL     1      -0.624  -1.847   0.616  0.00  0.00    -0.201 NA
ATOM      7  C   UNL     1      -0.844  -0.537   0.560  0.00  0.00    +0.129 A 
ATOM      8  N   UNL     1      -0.401  -3.941  -0.396  0.00  0.00    -0.317 N 
ATOM      9  H   UNL     1      -0.225  -4.346   0.468  0.00  0.00    +0.149 HD
ATOM     10  H   UNL     1      -0.882  -2.611  -2.463  0.00  0.00    +0.168 HD
ENDROOT
BRANCH   7  11
ATOM     11  N   UNL     1      -0.822   0.228   1.715  0.00  0.00    -0.321 N 
ATOM     12  C   UNL     1      -2.030   0.355   2.533  0.00  0.00    +0.130 C 
ATOM     13  C   UNL     1       0.410   0.911   2.117  0.00  0.00    +0.130 C 
ENDBRANCH   7  11
BRANCH   8  14
ATOM     14  C   UNL     1      -0.414  -4.769  -1.604  0.00  0.00    +0.086 C 
BRANCH  14  15
ATOM     15  C   UNL     1      -0.124  -6.224  -1.228  0.00  0.00    -0.059 C 
BRANCH  15  16
ATOM     16  N   UNL     1      -0.137  -7.055  -2.440  0.00  0.00    +0.384 N 
ATOM     17  C   UNL     1       0.958  -6.642  -3.326  0.00  0.00    -0.078 C 
ATOM     18  C   UNL     1       0.899  -7.449  -4.624  0.00  0.00    -0.019 C 
ATOM     19  C   UNL     1       1.037  -8.940  -4.300  0.00  0.00    -0.003 C 
ATOM     20  C   UNL     1      -0.066  -9.342  -3.316  0.00  0.00    -0.013 C 
ATOM     21  C   UNL     1       0.028  -8.464  -2.066  0.00  0.00    -0.043 C 
ATOM     22  H   UNL     1      -1.018  -6.936  -2.918  0.00  0.00    -0.081 HD
BRANCH  21  23
ATOM     23  C   UNL     1      -1.072  -8.863  -1.080  0.00  0.00    +0.140 C 
BRANCH  23  24
ATOM     24  O   UNL     1      -2.346  -8.753  -1.719  0.00  0.00    -0.397 OA
ATOM     25  H   UNL     1      -3.092  -8.991  -1.151  0.00  0.00    +0.209 HD
ENDBRANCH  23  24
ENDBRANCH  21  23
ENDBRANCH  15  16
ENDBRANCH  14  15
ENDBRANCH   8  14
TORSDOF 6
