REMARK  Name = ZINC16399223
REMARK  2 active torsions:
REMARK  status: ('A' for Active; 'I' for Inactive)
REMARK    1  A    between atoms: C_3  and  C_8
REMARK    2  A    between atoms: N_9  and  N_10
REMARK                            x       y       z     vdW  Elec       q    Type
REMARK                         _______ _______ _______ _____ _____    ______ ____
ROOT
ATOM      1  N   UNL     1       1.173   5.914  -0.077  0.00  0.00    -0.207 N 
ATOM      2  C   UNL     1       1.142   7.281  -0.278  0.00  0.00    +0.215 A 
ATOM      3  N   UNL     1       0.013   8.052  -0.284  0.00  0.00    -0.309 N 
ATOM      4  H   UNL     1      -0.924   7.731  -0.147  0.00  0.00    +0.170 HD
ATOM      5  C   UNL     1       0.401   9.348  -0.514  0.00  0.00    +0.166 A 
ATOM      6  C   UNL     1       1.792   9.323  -0.643  0.00  0.00    +0.174 A 
ATOM      7  N   UNL     1       2.192   8.038  -0.485  0.00  0.00    -0.206 NA
ATOM      8  C   UNL     1       2.469  10.543  -0.888  0.00  0.00    +0.279 A 
ATOM      9  O   UNL     1       3.682  10.573  -1.008  0.00  0.00    -0.265 OA
ATOM     10  N   UNL     1       1.733  11.673  -0.986  0.00  0.00    -0.312 N 
ATOM     11  H   UNL     1       2.172  12.521  -1.154  0.00  0.00    +0.170 HD
ATOM     12  C   UNL     1       0.384  11.627  -0.851  0.00  0.00    +0.201 A 
ATOM     13  N   UNL     1      -0.254  10.512  -0.625  0.00  0.00    -0.218 NA
ATOM     14  H   UNL     1       0.347   5.428   0.074  0.00  0.00    +0.177 HD
ENDROOT
BRANCH   1  16
ATOM     15  C   UNL     1       2.416   3.934  -0.031  0.00  0.00    +0.138 C 
ATOM     16  N   UNL     1       2.396   5.231  -0.092  0.00  0.00    -0.188 NA
BRANCH  15  19
ATOM     17  C   UNL     1      -0.810   3.031  -1.723  0.00  0.00    +0.002 A 
ATOM     18  C   UNL     1       0.273   3.765  -1.287  0.00  0.00    +0.009 A 
ATOM     19  C   UNL     1       1.255   3.156  -0.502  0.00  0.00    -0.004 A 
ATOM     20  C   UNL     1       1.132   1.806  -0.164  0.00  0.00    +0.023 A 
ATOM     21  C   UNL     1       0.043   1.084  -0.608  0.00  0.00    +0.014 A 
ATOM     22  C   UNL     1      -0.928   1.696  -1.381  0.00  0.00    +0.014 A 
ATOM     23  I   UNL     1      -0.144  -0.941  -0.104  0.00  0.00    -0.044 I 
ENDBRANCH  15  19
ENDBRANCH   1  16
TORSDOF 2
