REMARK  Name = ZINC52096905
REMARK  8 active torsions:
REMARK  status: ('A' for Active; 'I' for Inactive)
REMARK    1  A    between atoms: C_1  and  C_2
REMARK    2  A    between atoms: C_2  and  C_3
REMARK    3  A    between atoms: C_2  and  C_14
REMARK    4  A    between atoms: C_2  and  O_20
REMARK    5  A    between atoms: C_3  and  O_4
REMARK    6  A    between atoms: O_4  and  C_5
REMARK    7  A    between atoms: C_6  and  C_12
REMARK    8  A    between atoms: C_12  and  N_13
REMARK                            x       y       z     vdW  Elec       q    Type
REMARK                         _______ _______ _______ _____ _____    ______ ____
ROOT
ATOM      1  O   UNL     1       2.270   0.257   1.193  0.00  0.00    -0.487 OA
ENDROOT
BRANCH   1   2
ATOM      2  C   UNL     1       2.908  -0.095   2.340  0.00  0.00    +0.136 A 
ATOM      3  C   UNL     1       3.716  -1.222   2.367  0.00  0.00    -0.022 A 
ATOM      4  C   UNL     1       4.364  -1.578   3.534  0.00  0.00    +0.005 A 
ATOM      5  C   UNL     1       4.208  -0.812   4.675  0.00  0.00    +0.002 A 
ATOM      6  C   UNL     1       3.403   0.311   4.651  0.00  0.00    +0.019 A 
ATOM      7  C   UNL     1       2.757   0.675   3.484  0.00  0.00    +0.060 A 
ATOM      8 BR   UNL     1       1.663   2.217   3.450  0.00  0.00    -0.047 Br
BRANCH   3   9
ATOM      9  C   UNL     1       3.887  -2.058   1.124  0.00  0.00    -0.047 C 
BRANCH   9  10
ATOM     10  N   UNL     1       4.824  -1.391   0.211  0.00  0.00    +0.381 N 
ATOM     11  H   UNL     1       4.425  -0.519  -0.103  0.00  0.00    -0.090 HD
ATOM     12  H   UNL     1       5.692  -1.209   0.693  0.00  0.00    -0.090 HD
ATOM     13  H   UNL     1       5.000  -1.986  -0.585  0.00  0.00    -0.090 HD
ENDBRANCH   9  10
ENDBRANCH   3   9
ENDBRANCH   1   2
BRANCH   1  14
ATOM     14  C   UNL     1       0.945  -0.245   1.007  0.00  0.00    +0.268 C 
BRANCH  14  16
ATOM     15  C   UNL     1       0.523   1.706  -0.496  0.00  0.00    +0.050 C 
ATOM     16  C   UNL     1       0.424   0.184  -0.366  0.00  0.00    +0.122 C 
BRANCH  16  17
ATOM     17  C   UNL     1      -1.015  -0.240  -0.513  0.00  0.00    -0.013 A 
ATOM     18  C   UNL     1      -1.829  -0.318   0.601  0.00  0.00    +0.006 A 
ATOM     19  C   UNL     1      -3.149  -0.707   0.467  0.00  0.00    +0.000 A 
ATOM     20  C   UNL     1      -3.654  -1.017  -0.782  0.00  0.00    +0.000 A 
ATOM     21  C   UNL     1      -2.840  -0.938  -1.896  0.00  0.00    +0.000 A 
ATOM     22  C   UNL     1      -1.521  -0.545  -1.762  0.00  0.00    +0.006 A 
ENDBRANCH  16  17
BRANCH  16  23
ATOM     23  O   UNL     1       1.209  -0.433  -1.388  0.00  0.00    -0.381 OA
ATOM     24  H   UNL     1       1.193  -1.399  -1.366  0.00  0.00    +0.211 HD
ENDBRANCH  16  23
ENDBRANCH  14  16
ENDBRANCH   1  14
TORSDOF 7
