REMARK  Name = ZINC27193830
REMARK  4 active torsions:
REMARK  status: ('A' for Active; 'I' for Inactive)
REMARK    1  A    between atoms: C_3  and  C_16
REMARK    2  A    between atoms: C_6  and  C_7
REMARK    3  A    between atoms: C_10  and  C_13
REMARK    4  A    between atoms: C_20  and  C_25
REMARK                            x       y       z     vdW  Elec       q    Type
REMARK                         _______ _______ _______ _____ _____    ______ ____
ROOT
ATOM      1  C   UNL     1      -0.017   1.391   0.010  0.00  0.00    +0.009 A 
ATOM      2  C   UNL     1       1.166   2.096   0.002  0.00  0.00    +0.010 A 
ATOM      3  C   UNL     1       2.384   1.415  -0.013  0.00  0.00    +0.002 A 
ATOM      4  C   UNL     1       2.403   0.020  -0.021  0.00  0.00    +0.010 A 
ATOM      5  C   UNL     1       1.220  -0.685  -0.013  0.00  0.00    +0.009 A 
ATOM      6  C   UNL     1       0.002  -0.004   0.002  0.00  0.00    -0.018 A 
ENDROOT
BRANCH   3   7
ATOM      7  C   UNL     1       3.658   2.174  -0.020  0.00  0.00    +0.090 A 
ATOM      8  C   UNL     1       3.778   3.531  -0.014  0.00  0.00    +0.121 A 
ATOM      9  N   UNL     1       5.116   3.815  -0.024  0.00  0.00    -0.305 N 
ATOM     10  C   UNL     1       5.801   4.991  -0.022  0.00  0.00    +0.104 A 
ATOM     11  C   UNL     1       7.164   4.997  -0.034  0.00  0.00    +0.029 A 
ATOM     12  C   UNL     1       7.878   3.774  -0.047  0.00  0.00    +0.016 A 
ATOM     13  C   UNL     1       7.197   2.601  -0.048  0.00  0.00    +0.047 A 
ATOM     14  C   UNL     1       5.785   2.617  -0.036  0.00  0.00    +0.138 A 
ATOM     15  N   UNL     1       4.891   1.641  -0.029  0.00  0.00    -0.228 NA
BRANCH  11  16
ATOM     16  C   UNL     1       7.897   6.282  -0.033  0.00  0.00    +0.096 C 
ATOM     17  N   UNL     1       7.240   7.407  -0.021  0.00  0.00    -0.387 N 
ATOM     18  N   UNL     1       9.276   6.289  -0.045  0.00  0.00    -0.345 N 
ATOM     19  H   UNL     1       7.786   8.363  -0.021  0.00  0.00    +0.157 HD
ATOM     20  H   UNL     1       9.821   7.244  -0.045  0.00  0.00    +0.144 HD
ATOM     21  H   UNL     1       9.830   5.339  -0.056  0.00  0.00    +0.144 HD
ATOM     22  H   UNL     1       6.140   7.402  -0.012  0.00  0.00    +0.157 HD
ENDBRANCH  11  16
ENDBRANCH   3   7
BRANCH   6  23
ATOM     23  C   UNL     1      -1.271  -0.763   0.011  0.00  0.00    -0.018 A 
ATOM     24  C   UNL     1      -2.489  -0.081   0.032  0.00  0.00    +0.009 A 
ATOM     25  C   UNL     1      -3.672  -0.786   0.035  0.00  0.00    +0.012 A 
ATOM     26  C   UNL     1      -3.653  -2.182   0.028  0.00  0.00    +0.012 A 
ATOM     27  C   UNL     1      -2.434  -2.863   0.012  0.00  0.00    +0.012 A 
ATOM     28  C   UNL     1      -1.252  -2.158   0.003  0.00  0.00    +0.009 A 
BRANCH  26  29
ATOM     29  C   UNL     1      -4.924  -2.939   0.038  0.00  0.00    +0.094 C 
ATOM     30  N   UNL     1      -4.906  -4.242   0.032  0.00  0.00    -0.387 N 
ATOM     31  N   UNL     1      -6.127  -2.266   0.054  0.00  0.00    -0.345 N 
ATOM     32  H   UNL     1      -5.851  -4.805   0.039  0.00  0.00    +0.157 HD
ATOM     33  H   UNL     1      -7.072  -2.829   0.061  0.00  0.00    +0.144 HD
ATOM     34  H   UNL     1      -6.142  -1.166   0.059  0.00  0.00    +0.144 HD
ATOM     35  H   UNL     1      -3.946  -4.779   0.019  0.00  0.00    +0.157 HD
ENDBRANCH  26  29
ENDBRANCH   6  23
TORSDOF 4
