REMARK  Name = ZINC09012958
REMARK  7 active torsions:
REMARK  status: ('A' for Active; 'I' for Inactive)
REMARK    1  A    between atoms: C_1  and  C_2
REMARK    2  A    between atoms: C_2  and  C_3
REMARK    3  A    between atoms: C_2  and  C_4
REMARK    4  A    between atoms: C_2  and  C_5
REMARK    5  A    between atoms: C_5  and  C_7
REMARK    6  A    between atoms: C_9  and  C_31
REMARK    7  A    between atoms: C_31  and  C_33
REMARK                            x       y       z     vdW  Elec       q    Type
REMARK                         _______ _______ _______ _____ _____    ______ ____
ROOT
ATOM      1  C   UNL     1      -3.078   4.587  -0.149  0.00  0.00    +0.136 C 
ATOM      2  C   UNL     1      -3.149   3.836   1.209  0.00  0.00    +0.108 C 
ATOM      3  C   UNL     1      -1.930   2.895   1.106  0.00  0.00    +0.107 C 
ATOM      4  C   UNL     1      -2.115   1.707   1.983  0.00  0.00    -0.008 A 
ATOM      5  C   UNL     1      -3.113   0.759   2.060  0.00  0.00    +0.006 A 
ATOM      6  C   UNL     1      -2.960  -0.251   3.002  0.00  0.00    +0.000 A 
ATOM      7  C   UNL     1      -1.855  -0.305   3.826  0.00  0.00    +0.002 A 
ATOM      8  C   UNL     1      -0.859   0.658   3.778  0.00  0.00    +0.023 A 
ATOM      9  C   UNL     1      -1.006   1.684   2.843  0.00  0.00    +0.038 A 
ATOM     10  N   UNL     1      -0.193   2.779   2.608  0.00  0.00    -0.284 N 
ATOM     11  C   UNL     1      -0.679   3.567   1.625  0.00  0.00    +0.231 C 
ATOM     12  O   UNL     1      -0.196   4.606   1.226  0.00  0.00    -0.274 OA
ATOM     13  C   UNL     1      -1.786   2.589  -0.380  0.00  0.00    +0.107 C 
ATOM     14  C   UNL     1      -3.031   3.407  -2.421  0.00  0.00    +0.054 C 
ATOM     15  C   UNL     1      -3.149   2.150  -2.888  0.00  0.00    +0.022 C 
ATOM     16  C   UNL     1      -2.882   1.013  -1.984  0.00  0.00    -0.019 A 
ATOM     17  C   UNL     1      -2.170   1.198  -0.788  0.00  0.00    -0.020 A 
ATOM     18  C   UNL     1      -1.789   0.093  -0.063  0.00  0.00    +0.006 A 
ATOM     19  C   UNL     1      -2.255  -1.167  -0.402  0.00  0.00    +0.000 A 
ATOM     20  C   UNL     1      -3.058  -1.337  -1.514  0.00  0.00    +0.001 A 
ATOM     21  C   UNL     1      -3.359  -0.257  -2.316  0.00  0.00    +0.008 A 
ATOM     22  H   UNL     1       0.627   2.961   3.094  0.00  0.00    +0.155 HD
ATOM     23  N   UNL     1      -2.915   3.313  -0.910  0.00  0.00    -0.384 NA
ATOM     24  H   UNL     1      -3.727   2.743  -0.645  0.00  0.00    +0.127 HD
ENDROOT
BRANCH   1  25
ATOM     25  C   UNL     1      -4.429   5.143  -0.518  0.00  0.00    +0.158 C 
ATOM     26  O   UNL     1      -5.416   4.455  -0.408  0.00  0.00    -0.295 OA
BRANCH  25  28
ATOM     27  C   UNL     1      -6.009   6.849  -1.381  0.00  0.00    +0.018 C 
ATOM     28  C   UNL     1      -4.550   6.557  -1.024  0.00  0.00    +0.022 C 
ATOM     29  C   UNL     1      -4.086   7.529   0.063  0.00  0.00    +0.018 C 
ATOM     30  C   UNL     1      -3.676   6.729  -2.268  0.00  0.00    +0.018 C 
ENDBRANCH  25  28
ENDBRANCH   1  25
BRANCH   2  31
ATOM     31  C   UNL     1      -3.028   4.783   2.372  0.00  0.00    +0.176 C 
ATOM     32  O   UNL     1      -2.526   5.878   2.214  0.00  0.00    -0.291 OA
BRANCH  31  33
ATOM     33  C   UNL     1      -3.498   4.399   3.647  0.00  0.00    +0.055 A 
ATOM     34  C   UNL     1      -3.343   5.044   4.870  0.00  0.00    +0.019 A 
ATOM     35  C   UNL     1      -3.911   4.448   5.965  0.00  0.00    +0.008 A 
ATOM     36  C   UNL     1      -4.577   3.271   5.811  0.00  0.00    +0.046 A 
ATOM     37  S   UNL     1      -4.439   2.956   4.112  0.00  0.00    -0.094 S 
ENDBRANCH  31  33
ENDBRANCH   2  31
TORSDOF 4
