REMARK  Name = ZINC22711533
REMARK  11 active torsions:
REMARK  status: ('A' for Active; 'I' for Inactive)
REMARK    1  A    between atoms: C_1  and  C_2
REMARK    2  A    between atoms: C_5  and  C_29
REMARK    3  A    between atoms: C_10  and  C_12
REMARK    4  A    between atoms: N_14  and  C_15
REMARK    5  A    between atoms: C_15  and  C_16
REMARK    6  A    between atoms: C_16  and  N_17
REMARK    7  A    between atoms: C_18  and  C_19
REMARK    8  A    between atoms: C_23  and  O_26
REMARK    9  A    between atoms: C_24  and  O_25
REMARK   10  A    between atoms: O_26  and  C_27
REMARK   11  A    between atoms: C_29  and  C_30
REMARK                            x       y       z     vdW  Elec       q    Type
REMARK                         _______ _______ _______ _____ _____    ______ ____
ROOT
ATOM      1  C   UNL     1       5.665   0.717   3.649  0.00  0.00    +0.264 C 
ATOM      2  O   UNL     1       5.426   0.829   4.836  0.00  0.00    -0.268 OA
ATOM      3  N   UNL     1       6.934   0.814   3.206  0.00  0.00    -0.308 N 
ATOM      4  H   UNL     1       7.126   0.725   2.259  0.00  0.00    +0.149 HD
ENDROOT
BRANCH   1  12
ATOM      5  C   UNL     1       0.645   1.491  -0.182  0.00  0.00    +0.028 C 
ATOM      6  C   UNL     1       0.690   0.029   0.267  0.00  0.00    +0.071 C 
ATOM      7  C   UNL     1       1.673  -0.750  -0.613  0.00  0.00    +0.055 C 
ATOM      8  C   UNL     1       3.057  -0.093  -0.557  0.00  0.00    +0.189 C 
ATOM      9  N   UNL     1       3.425   0.120   0.845  0.00  0.00    -0.241 N 
ATOM     10  C   UNL     1       2.523   0.136   1.871  0.00  0.00    +0.118 A 
ATOM     11  C   UNL     1       3.196   0.351   3.018  0.00  0.00    +0.078 A 
ATOM     12  C   UNL     1       4.566   0.474   2.693  0.00  0.00    +0.149 A 
ATOM     13  N   UNL     1       4.692   0.334   1.385  0.00  0.00    -0.164 NA
ATOM     14  N   UNL     1       1.147  -0.045   1.668  0.00  0.00    -0.327 N 
ATOM     15  H   UNL     1       0.534  -0.210   2.401  0.00  0.00    +0.148 HD
BRANCH   8  16
ATOM     16  C   UNL     1       4.085  -1.007  -1.227  0.00  0.00    +0.363 C 
ATOM     17  F   UNL     1       5.364  -0.462  -1.072  0.00  0.00    -0.193 F 
ATOM     18  F   UNL     1       4.042  -2.272  -0.631  0.00  0.00    -0.193 F 
BRANCH  16  19
ATOM     19  C   UNL     1       3.762  -1.133  -2.717  0.00  0.00    +0.456 C 
ATOM     20  F   UNL     1       3.682   0.142  -3.286  0.00  0.00    -0.165 F 
ATOM     21  F   UNL     1       4.771  -1.865  -3.352  0.00  0.00    -0.165 F 
ATOM     22  F   UNL     1       2.538  -1.793  -2.874  0.00  0.00    -0.165 F 
ENDBRANCH  16  19
ENDBRANCH   8  16
ENDBRANCH   1  12
BRANCH   3  23
ATOM     23  C   UNL     1       8.025   1.055   4.154  0.00  0.00    +0.125 C 
BRANCH  23  24
ATOM     24  C   UNL     1       9.353   1.122   3.398  0.00  0.00    +0.131 C 
BRANCH  24  25
ATOM     25  N   UNL     1      10.444   1.363   4.346  0.00  0.00    -0.388 N 
ATOM     26  C   UNL     1      11.355   0.462   4.526  0.00  0.00    +0.090 C 
ATOM     27  H   UNL     1      10.483   2.197   4.838  0.00  0.00    +0.159 HD
BRANCH  26  28
ATOM     28  C   UNL     1      12.360   0.633   5.590  0.00  0.00    +0.036 A 
ATOM     29  C   UNL     1      13.416  -0.276   5.713  0.00  0.00    +0.013 A 
ATOM     30  C   UNL     1      14.354  -0.112   6.709  0.00  0.00    +0.004 A 
ATOM     31  C   UNL     1      14.258   0.951   7.592  0.00  0.00    +0.049 A 
ATOM     32  C   UNL     1      13.218   1.859   7.484  0.00  0.00    +0.162 A 
ATOM     33  C   UNL     1      12.266   1.710   6.480  0.00  0.00    +0.167 A 
BRANCH  33  34
ATOM     34  O   UNL     1      11.249   2.602   6.367  0.00  0.00    -0.503 OA
ATOM     35  H   UNL     1      10.462   2.368   6.878  0.00  0.00    +0.292 HD
ENDBRANCH  33  34
BRANCH  32  36
ATOM     36  O   UNL     1      13.130   2.900   8.355  0.00  0.00    -0.491 OA
ATOM     37  C   UNL     1      14.145   2.994   9.357  0.00  0.00    +0.277 C 
ENDBRANCH  32  36
ENDBRANCH  26  28
ENDBRANCH  24  25
ENDBRANCH  23  24
ENDBRANCH   3  23
TORSDOF 9
