REMARK  Name = ZINC20294806
REMARK  14 active torsions:
REMARK  status: ('A' for Active; 'I' for Inactive)
REMARK    1  A    between atoms: C_1  and  C_2
REMARK    2  A    between atoms: C_3  and  C_36
REMARK    3  A    between atoms: C_4  and  N_12
REMARK    4  A    between atoms: C_6  and  C_7
REMARK    5  A    between atoms: N_9  and  C_10
REMARK    6  A    between atoms: N_9  and  C_11
REMARK    7  A    between atoms: C_13  and  C_15
REMARK    8  A    between atoms: C_15  and  C_34
REMARK    9  A    between atoms: C_16  and  C_17
REMARK   10  A    between atoms: C_20  and  O_32
REMARK   11  A    between atoms: C_21  and  C_23
REMARK   12  A    between atoms: C_23  and  O_24
REMARK   13  A    between atoms: O_24  and  C_25
REMARK   14  A    between atoms: O_32  and  C_33
REMARK                            x       y       z     vdW  Elec       q    Type
REMARK                         _______ _______ _______ _____ _____    ______ ____
ROOT
ATOM      1  C   UNL     1       1.800  -5.502   2.265  0.00  0.00    +0.114 C 
ATOM      2  C   UNL     1       0.862  -5.074   3.180  0.00  0.00    +0.032 C 
ENDROOT
BRANCH   2   3
ATOM      3  C   UNL     1       0.760  -3.652   3.512  0.00  0.00    -0.023 A 
ATOM      4  C   UNL     1       0.831  -2.685   2.498  0.00  0.00    +0.011 A 
ATOM      5  C   UNL     1       0.734  -1.360   2.814  0.00  0.00    +0.046 A 
ATOM      6  C   UNL     1       0.566  -0.968   4.139  0.00  0.00    +0.127 A 
ATOM      7  C   UNL     1       0.501  -1.922   5.149  0.00  0.00    +0.032 A 
ATOM      8  C   UNL     1       0.590  -3.251   4.845  0.00  0.00    +0.018 A 
BRANCH   6   9
ATOM      9  O   UNL     1       0.471   0.350   4.446  0.00  0.00    -0.495 OA
ATOM     10  C   UNL     1       0.552   1.277   3.362  0.00  0.00    +0.277 C 
ENDBRANCH   6   9
BRANCH   7  11
ATOM     11  C   UNL     1       0.325  -1.488   6.582  0.00  0.00    +0.268 C 
BRANCH  11  12
ATOM     12  O   UNL     1       0.287  -2.640   7.426  0.00  0.00    -0.487 OA
BRANCH  12  13
ATOM     13  C   UNL     1       0.132  -2.423   8.759  0.00  0.00    +0.121 A 
ATOM     14  C   UNL     1       0.025  -1.128   9.244  0.00  0.00    +0.048 A 
ATOM     15  C   UNL     1      -0.138  -0.909  10.598  0.00  0.00    +0.042 A 
ATOM     16  C   UNL     1      -0.184  -1.982  11.473  0.00  0.00    +0.124 A 
ATOM     17  C   UNL     1      -0.071  -3.275  10.991  0.00  0.00    +0.042 A 
ATOM     18  C   UNL     1       0.086  -3.497   9.637  0.00  0.00    +0.048 A 
ATOM     19  F   UNL     1      -0.338  -1.766  12.798  0.00  0.00    -0.205 F 
ENDBRANCH  12  13
ENDBRANCH  11  12
ENDBRANCH   7  11
ENDBRANCH   2   3
BRANCH   1  21
ATOM     20  N   UNL     1       2.626  -7.275   0.804  0.00  0.00    -0.274 N 
ATOM     21  C   UNL     1       1.710  -6.857   1.699  0.00  0.00    +0.259 C 
ATOM     22  O   UNL     1       0.808  -7.599   2.038  0.00  0.00    -0.269 OA
ATOM     23  H   UNL     1       3.442  -6.604   0.497  0.00  0.00    +0.156 HD
BRANCH  20  27
ATOM     24  C   UNL     1       3.949 -11.192  -2.040  0.00  0.00    +0.046 C 
ATOM     25  C   UNL     1       3.091 -10.459  -1.041  0.00  0.00    -0.012 A 
ATOM     26  C   UNL     1       3.386  -9.160  -0.659  0.00  0.00    +0.084 A 
ATOM     27  C   UNL     1       2.542  -8.547   0.272  0.00  0.00    +0.090 A 
ATOM     28  S   UNL     1       1.367  -9.779   0.600  0.00  0.00    -0.067 S 
ATOM     29  C   UNL     1       1.991 -11.052  -0.480  0.00  0.00    +0.080 A 
BRANCH  29  30
ATOM     30  C   UNL     1       1.463 -12.399  -0.707  0.00  0.00    +0.253 C 
ATOM     31  O   UNL     1       2.226 -13.341  -0.814  0.00  0.00    -0.269 OA
ATOM     32  N   UNL     1       0.133 -12.594  -0.798  0.00  0.00    -0.303 N 
ATOM     33  C   UNL     1      -0.395 -13.940  -1.036  0.00  0.00    +0.132 C 
ATOM     34  C   UNL     1      -0.785 -11.461  -0.658  0.00  0.00    +0.132 C 
ENDBRANCH  29  30
BRANCH  26  35
ATOM     35  C   UNL     1       4.518  -8.469  -1.199  0.00  0.00    +0.102 C 
ATOM     36  N   UNL     1       5.416  -7.921  -1.627  0.00  0.00    -0.191 NA
ENDBRANCH  26  35
ENDBRANCH  20  27
ENDBRANCH   1  21
BRANCH   1  37
ATOM     37  C   UNL     1       2.861  -4.628   1.865  0.00  0.00    +0.104 C 
ATOM     38  N   UNL     1       3.704  -3.935   1.548  0.00  0.00    -0.191 NA
ENDBRANCH   1  37
TORSDOF 10
