REMARK  Name = ZINC65740284
REMARK  14 active torsions:
REMARK  status: ('A' for Active; 'I' for Inactive)
REMARK    1  A    between atoms: C_1  and  C_2
REMARK    2  A    between atoms: C_2  and  C_4
REMARK    3  A    between atoms: C_2  and  N_31
REMARK    4  A    between atoms: C_4  and  C_6
REMARK    5  A    between atoms: C_4  and  O_13
REMARK    6  A    between atoms: O_13  and  C_14
REMARK    7  A    between atoms: C_16  and  O_30
REMARK    8  A    between atoms: C_18  and  O_29
REMARK    9  A    between atoms: C_20  and  O_28
REMARK   10  A    between atoms: C_22  and  C_25
REMARK   11  A    between atoms: N_31  and  C_32
REMARK   12  A    between atoms: C_32  and  C_33
REMARK   13  A    between atoms: C_32  and  C_34
REMARK   14  A    between atoms: C_32  and  C_35
REMARK                            x       y       z     vdW  Elec       q    Type
REMARK                         _______ _______ _______ _____ _____    ______ ____
ROOT
ATOM      1  C   UNL     1       0.342  -0.588   1.649  0.00  0.00    +0.137 C 
ENDROOT
BRANCH   1   2
ATOM      2  C   UNL     1       0.494  -2.050   1.316  0.00  0.00    -0.019 A 
ATOM      3  C   UNL     1      -0.577  -2.910   1.474  0.00  0.00    +0.006 A 
ATOM      4  C   UNL     1      -0.438  -4.251   1.168  0.00  0.00    +0.002 A 
ATOM      5  C   UNL     1       0.772  -4.733   0.705  0.00  0.00    +0.020 A 
ATOM      6  C   UNL     1       1.844  -3.873   0.547  0.00  0.00    +0.041 A 
ATOM      7  C   UNL     1       1.703  -2.529   0.848  0.00  0.00    +0.026 A 
ATOM      8 CL   UNL     1       3.364  -4.477  -0.034  0.00  0.00    -0.084 Cl
ENDBRANCH   1   2
BRANCH   1  10
ATOM      9  C   UNL     1      -0.516   1.612   0.833  0.00  0.00    -0.011 C 
ATOM     10  C   UNL     1      -0.361   0.128   0.495  0.00  0.00    -0.040 C 
BRANCH  10  11
ATOM     11  N   UNL     1      -1.688  -0.467   0.285  0.00  0.00    +0.386 N 
ATOM     12  H   UNL     1      -1.643  -1.460   0.459  0.00  0.00    -0.085 HD
ATOM     13  H   UNL     1      -2.350  -0.044   0.917  0.00  0.00    -0.085 HD
BRANCH  11  14
ATOM     14  C   UNL     1      -2.116  -0.233  -1.101  0.00  0.00    -0.076 C 
ATOM     15  C   UNL     1      -1.193  -0.993  -2.055  0.00  0.00    -0.011 C 
ATOM     16  C   UNL     1      -3.553  -0.726  -1.281  0.00  0.00    -0.011 C 
ATOM     17  C   UNL     1      -2.048   1.264  -1.409  0.00  0.00    -0.011 C 
ENDBRANCH  11  14
ENDBRANCH  10  11
ENDBRANCH   1  10
BRANCH   1  18
ATOM     18  O   UNL     1      -0.436  -0.450   2.840  0.00  0.00    -0.342 OA
BRANCH  18  19
ATOM     19  C   UNL     1       0.337  -0.444   4.042  0.00  0.00    +0.283 C 
ATOM     20  C   UNL     1      -0.598  -0.542   5.251  0.00  0.00    +0.201 C 
ATOM     21  C   UNL     1       0.233  -0.474   6.536  0.00  0.00    +0.179 C 
ATOM     22  C   UNL     1       1.048   0.822   6.536  0.00  0.00    +0.185 C 
ATOM     23  C   UNL     1       1.919   0.868   5.277  0.00  0.00    +0.265 C 
ATOM     24  O   UNL     1       1.088   0.770   4.120  0.00  0.00    -0.331 OA
BRANCH  23  25
ATOM     25  C   UNL     1       2.681   2.168   5.240  0.00  0.00    +0.387 C 
ATOM     26  O   UNL     1       3.518   2.408   6.093  0.00  0.00    -0.243 OA
ATOM     27  O   UNL     1       2.460   2.979   4.358  0.00  0.00    -0.243 OA
ENDBRANCH  23  25
BRANCH  22  28
ATOM     28  O   UNL     1       0.163   1.944   6.546  0.00  0.00    -0.386 OA
ATOM     29  H   UNL     1       0.612   2.800   6.546  0.00  0.00    +0.210 HD
ENDBRANCH  22  28
BRANCH  21  30
ATOM     30  O   UNL     1      -0.637  -0.494   7.669  0.00  0.00    -0.386 OA
ATOM     31  H   UNL     1      -0.177  -0.454   8.519  0.00  0.00    +0.210 HD
ENDBRANCH  21  30
BRANCH  20  32
ATOM     32  O   UNL     1      -1.528   0.542   5.224  0.00  0.00    -0.384 OA
ATOM     33  H   UNL     1      -2.085   0.563   4.434  0.00  0.00    +0.210 HD
ENDBRANCH  20  32
ENDBRANCH  18  19
ENDBRANCH   1  18
TORSDOF 10
