REMARK  Name = ZINC37246050
REMARK  10 active torsions:
REMARK  status: ('A' for Active; 'I' for Inactive)
REMARK    1  A    between atoms: C_3  and  S_24
REMARK    2  A    between atoms: C_6  and  N_7
REMARK    3  A    between atoms: N_7  and  C_8
REMARK    4  A    between atoms: C_8  and  O_23
REMARK    5  A    between atoms: C_9  and  O_22
REMARK    6  A    between atoms: C_11  and  O_21
REMARK    7  A    between atoms: C_13  and  O_20
REMARK    8  A    between atoms: C_15  and  C_18
REMARK    9  A    between atoms: C_18  and  O_19
REMARK   10  A    between atoms: S_24  and  N_27
REMARK                            x       y       z     vdW  Elec       q    Type
REMARK                         _______ _______ _______ _____ _____    ______ ____
ROOT
ATOM      1  C   UNL     1      -1.179  -2.180  -0.108  0.00  0.00    +0.273 C 
ATOM      2  C   UNL     1      -2.610  -2.717  -0.190  0.00  0.00    +0.225 C 
ATOM      3  C   UNL     1      -2.572  -4.247  -0.245  0.00  0.00    +0.181 C 
ATOM      4  C   UNL     1      -1.823  -4.772   0.984  0.00  0.00    +0.177 C 
ATOM      5  C   UNL     1      -0.422  -4.157   1.020  0.00  0.00    +0.180 C 
ATOM      6  O   UNL     1      -0.529  -2.732   1.039  0.00  0.00    -0.323 OA
ENDROOT
BRANCH   1   7
ATOM      7  N   UNL     1      -1.210  -0.720   0.002  0.00  0.00    -0.292 N 
ATOM      8  H   UNL     1      -2.058  -0.250  -0.018  0.00  0.00    +0.151 HD
BRANCH   7  14
ATOM      9  C   UNL     1       1.186  -0.680   0.294  0.00  0.00    +0.025 A 
ATOM     10  C   UNL     1       2.363   0.030   0.427  0.00  0.00    +0.030 A 
ATOM     11  C   UNL     1       2.344   1.413   0.406  0.00  0.00    +0.105 A 
ATOM     12  C   UNL     1       1.147   2.089   0.250  0.00  0.00    +0.030 A 
ATOM     13  C   UNL     1      -0.033   1.384   0.117  0.00  0.00    +0.025 A 
ATOM     14  C   UNL     1      -0.018  -0.005   0.138  0.00  0.00    +0.031 A 
BRANCH  11  15
ATOM     15  S   UNL     1       3.847   2.315   0.577  0.00  0.00    +0.056 S 
ATOM     16  O   UNL     1       3.495   3.600   1.071  0.00  0.00    -0.153 OA
ATOM     17  O   UNL     1       4.758   1.461   1.255  0.00  0.00    -0.153 OA
BRANCH  15  18
ATOM     18  N   UNL     1       4.457   2.545  -0.946  0.00  0.00    -0.204 NA
ATOM     19  H   UNL     1       4.989   3.331  -1.141  0.00  0.00    +0.144 HD
ATOM     20  H   UNL     1       4.282   1.892  -1.642  0.00  0.00    +0.144 HD
ENDBRANCH  15  18
ENDBRANCH  11  15
ENDBRANCH   7  14
ENDBRANCH   1   7
BRANCH   4  21
ATOM     21  O   UNL     1      -2.536  -4.410   2.168  0.00  0.00    -0.386 OA
ATOM     22  H   UNL     1      -2.118  -4.711   2.987  0.00  0.00    +0.210 HD
ENDBRANCH   4  21
BRANCH   3  23
ATOM     23  O   UNL     1      -3.906  -4.759  -0.249  0.00  0.00    -0.386 OA
ATOM     24  H   UNL     1      -3.957  -5.724  -0.283  0.00  0.00    +0.210 HD
ENDBRANCH   3  23
BRANCH   2  25
ATOM     25  O   UNL     1      -3.344  -2.297   0.963  0.00  0.00    -0.382 OA
ATOM     26  H   UNL     1      -4.261  -2.602   0.978  0.00  0.00    +0.210 HD
ENDBRANCH   2  25
BRANCH   1  27
ATOM     27  O   UNL     1      -0.462  -2.554  -1.287  0.00  0.00    -0.348 OA
ATOM     28  H   UNL     1       0.477  -2.322  -1.266  0.00  0.00    +0.214 HD
ENDBRANCH   1  27
BRANCH   5  29
ATOM     29  C   UNL     1       0.311  -4.630   2.277  0.00  0.00    +0.190 C 
BRANCH  29  30
ATOM     30  O   UNL     1       1.657  -4.150   2.252  0.00  0.00    -0.392 OA
ATOM     31  H   UNL     1       2.182  -4.413   3.021  0.00  0.00    +0.210 HD
ENDBRANCH  29  30
ENDBRANCH   5  29
TORSDOF 10
