REMARK  Name = ZINC40688693
REMARK  9 active torsions:
REMARK  status: ('A' for Active; 'I' for Inactive)
REMARK    1  A    between atoms: C_1  and  C_2
REMARK    2  A    between atoms: C_4  and  C_25
REMARK    3  A    between atoms: C_7  and  N_8
REMARK    4  A    between atoms: C_10  and  N_23
REMARK    5  A    between atoms: C_11  and  N_15
REMARK    6  A    between atoms: N_15  and  C_16
REMARK    7  A    between atoms: N_15  and  C_17
REMARK    8  A    between atoms: C_25  and  C_27
REMARK    9  A    between atoms: C_25  and  C_29
REMARK                            x       y       z     vdW  Elec       q    Type
REMARK                         _______ _______ _______ _____ _____    ______ ____
ROOT
ATOM      1  N   UNL     1       1.089   0.483   1.851  0.00  0.00    -0.299 N 
ATOM      2  C   UNL     1       1.517  -0.111   3.033  0.00  0.00    +0.126 A 
ATOM      3  C   UNL     1       1.640   0.644   4.201  0.00  0.00    +0.104 A 
ATOM      4  C   UNL     1       2.075  -0.002   5.360  0.00  0.00    +0.151 A 
ATOM      5  N   UNL     1       2.353  -1.302   5.308  0.00  0.00    -0.220 NA
ATOM      6  C   UNL     1       2.224  -1.978   4.184  0.00  0.00    +0.200 A 
ATOM      7  N   UNL     1       1.811  -1.408   3.070  0.00  0.00    -0.333 N 
ATOM      8  H   UNL     1       0.951   1.442   1.812  0.00  0.00    +0.154 HD
ATOM      9  H   UNL     1       1.725  -1.941   2.264  0.00  0.00    +0.168 HD
ENDROOT
BRANCH   1  16
ATOM     10  C   UNL     1      -1.267  -1.111   1.785  0.00  0.00    +0.045 C 
ATOM     11  C   UNL     1      -0.282  -1.096   0.644  0.00  0.00    -0.029 A 
ATOM     12  C   UNL     1      -0.513  -1.868  -0.478  0.00  0.00    +0.011 A 
ATOM     13  C   UNL     1       0.390  -1.855  -1.525  0.00  0.00    -0.008 A 
ATOM     14  C   UNL     1       1.528  -1.070  -1.452  0.00  0.00    +0.047 A 
ATOM     15  C   UNL     1       1.764  -0.296  -0.332  0.00  0.00    +0.043 A 
ATOM     16  C   UNL     1       0.856  -0.303   0.719  0.00  0.00    +0.037 A 
ATOM     17 CL   UNL     1       2.659  -1.058  -2.769  0.00  0.00    -0.083 Cl
BRANCH  13  18
ATOM     18  C   UNL     1       0.136  -2.699  -2.747  0.00  0.00    +0.153 C 
BRANCH  18  19
ATOM     19  C   UNL     1      -1.085  -2.186  -3.466  0.00  0.00    -0.026 A 
ATOM     20  C   UNL     1      -2.331  -2.298  -2.878  0.00  0.00    +0.006 A 
ATOM     21  C   UNL     1      -3.452  -1.827  -3.537  0.00  0.00    +0.020 A 
ATOM     22  C   UNL     1      -3.326  -1.245  -4.786  0.00  0.00    +0.041 A 
ATOM     23  C   UNL     1      -2.079  -1.133  -5.374  0.00  0.00    +0.020 A 
ATOM     24  C   UNL     1      -0.958  -1.599  -4.711  0.00  0.00    +0.006 A 
ATOM     25 CL   UNL     1      -4.732  -0.654  -5.614  0.00  0.00    -0.084 Cl
ENDBRANCH  18  19
BRANCH  18  26
ATOM     26  C   UNL     1      -0.085  -4.097  -2.342  0.00  0.00    +0.075 C 
ATOM     27  N   UNL     1      -0.255  -5.175  -2.029  0.00  0.00    -0.196 NA
ENDBRANCH  18  26
ENDBRANCH  13  18
ENDBRANCH   1  16
BRANCH   3  28
ATOM     28  N   UNL     1       1.336   2.014   4.210  0.00  0.00    -0.353 N 
ATOM     29  H   UNL     1       1.106   2.466   3.383  0.00  0.00    +0.143 HD
ATOM     30  H   UNL     1       1.355   2.510   5.044  0.00  0.00    +0.143 HD
ENDBRANCH   3  28
BRANCH   4  31
ATOM     31  N   UNL     1       2.215   0.703   6.551  0.00  0.00    -0.287 N 
ATOM     32  C   UNL     1       3.455   1.433   6.828  0.00  0.00    +0.137 C 
BRANCH  31  33
ATOM     33  C   UNL     1       1.173   0.715   7.482  0.00  0.00    +0.035 A 
ATOM     34  C   UNL     1       0.047  -0.071   7.277  0.00  0.00    +0.023 A 
ATOM     35  C   UNL     1      -0.981  -0.057   8.200  0.00  0.00    +0.002 A 
ATOM     36  C   UNL     1      -0.889   0.739   9.327  0.00  0.00    +0.000 A 
ATOM     37  C   UNL     1       0.231   1.523   9.534  0.00  0.00    +0.002 A 
ATOM     38  C   UNL     1       1.265   1.510   8.618  0.00  0.00    +0.023 A 
ENDBRANCH  31  33
ENDBRANCH   4  31
TORSDOF 7
