REMARK  Name = ZINC37627473
REMARK  9 active torsions:
REMARK  status: ('A' for Active; 'I' for Inactive)
REMARK    1  A    between atoms: C_1  and  C_2
REMARK    2  A    between atoms: C_2  and  C_4
REMARK    3  A    between atoms: C_2  and  N_14
REMARK    4  A    between atoms: C_7  and  S_10
REMARK    5  A    between atoms: S_10  and  N_13
REMARK    6  A    between atoms: C_15  and  C_17
REMARK    7  A    between atoms: C_17  and  C_19
REMARK    8  A    between atoms: C_17  and  N_23
REMARK    9  A    between atoms: C_19  and  C_20
REMARK                            x       y       z     vdW  Elec       q    Type
REMARK                         _______ _______ _______ _____ _____    ______ ____
ROOT
ATOM      1  N   UNL     1      -1.372  -0.511   0.012  0.00  0.00    -0.310 N 
ATOM      2  C   UNL     1      -2.051  -0.643  -1.145  0.00  0.00    +0.199 C 
ATOM      3  O   UNL     1      -1.524  -0.341  -2.194  0.00  0.00    -0.278 OA
ATOM      4  H   UNL     1      -1.794  -0.752   0.852  0.00  0.00    +0.149 HD
ENDROOT
BRANCH   1   6
ATOM      5  C   UNL     1      -0.019   1.526   0.010  0.00  0.00    +0.033 C 
ATOM      6  C   UNL     1       0.002  -0.004   0.002  0.00  0.00    +0.100 C 
BRANCH   6   7
ATOM      7  C   UNL     1       0.731  -0.503   1.223  0.00  0.00    -0.027 A 
ATOM      8  C   UNL     1       0.081  -0.558   2.442  0.00  0.00    +0.007 A 
ATOM      9  C   UNL     1       0.749  -1.016   3.562  0.00  0.00    +0.029 A 
ATOM     10  C   UNL     1       2.068  -1.420   3.463  0.00  0.00    +0.105 A 
ATOM     11  C   UNL     1       2.718  -1.365   2.244  0.00  0.00    +0.029 A 
ATOM     12  C   UNL     1       2.048  -0.911   1.123  0.00  0.00    +0.007 A 
BRANCH  10  13
ATOM     13  S   UNL     1       2.921  -2.002   4.890  0.00  0.00    +0.056 S 
ATOM     14  O   UNL     1       4.306  -1.804   4.645  0.00  0.00    -0.153 OA
ATOM     15  O   UNL     1       2.259  -1.441   6.016  0.00  0.00    -0.153 OA
BRANCH  13  16
ATOM     16  N   UNL     1       2.683  -3.639   4.969  0.00  0.00    -0.204 NA
ATOM     17  H   UNL     1       2.150  -4.085   4.292  0.00  0.00    +0.144 HD
ATOM     18  H   UNL     1       3.076  -4.152   5.692  0.00  0.00    +0.144 HD
ENDBRANCH  13  16
ENDBRANCH  10  13
ENDBRANCH   6   7
ENDBRANCH   1   6
BRANCH   2  19
ATOM     19  C   UNL     1      -3.465  -1.164  -1.134  0.00  0.00    +0.021 C 
BRANCH  19  20
ATOM     20  N   UNL     1      -4.139  -0.778  -2.381  0.00  0.00    +0.386 N 
ATOM     21  H   UNL     1      -5.085  -1.127  -2.374  0.00  0.00    -0.089 HD
ATOM     22  H   UNL     1      -4.152   0.228  -2.458  0.00  0.00    -0.089 HD
ATOM     23  H   UNL     1      -3.642  -1.169  -3.167  0.00  0.00    -0.089 HD
ENDBRANCH  19  20
BRANCH  19  24
ATOM     24  C   UNL     1      -3.445  -2.690  -1.017  0.00  0.00    +0.088 C 
BRANCH  24  25
ATOM     25  C   UNL     1      -4.856  -3.202  -0.882  0.00  0.00    +0.209 C 
ATOM     26  O   UNL     1      -5.786  -2.423  -0.881  0.00  0.00    -0.276 OA
ATOM     27  N   UNL     1      -5.084  -4.525  -0.764  0.00  0.00    -0.329 N 
ATOM     28  H   UNL     1      -4.340  -5.147  -0.765  0.00  0.00    +0.145 HD
ATOM     29  H   UNL     1      -5.992  -4.854  -0.678  0.00  0.00    +0.145 HD
ENDBRANCH  24  25
ENDBRANCH  19  24
ENDBRANCH   2  19
TORSDOF 8
