REMARK  Name = ZINC40462738
REMARK  11 active torsions:
REMARK  status: ('A' for Active; 'I' for Inactive)
REMARK    1  A    between atoms: C_1  and  C_2
REMARK    2  A    between atoms: C_4  and  S_19
REMARK    3  A    between atoms: C_6  and  N_9
REMARK    4  A    between atoms: C_7  and  C_8
REMARK    5  A    between atoms: C_10  and  C_12
REMARK    6  A    between atoms: C_12  and  C_14
REMARK    7  A    between atoms: C_12  and  N_18
REMARK    8  A    between atoms: C_14  and  C_15
REMARK    9  A    between atoms: C_14  and  C_16
REMARK   10  A    between atoms: C_14  and  C_17
REMARK   11  A    between atoms: S_19  and  N_22
REMARK                            x       y       z     vdW  Elec       q    Type
REMARK                         _______ _______ _______ _____ _____    ______ ____
ROOT
ATOM      1  C   UNL     1       1.206   1.236  -0.171  0.00  0.00    +0.044 C 
ATOM      2  C   UNL     1       0.578  -0.131  -0.084  0.00  0.00    -0.044 A 
ATOM      3  C   UNL     1      -0.026  -0.686  -1.198  0.00  0.00    +0.032 A 
ATOM      4  C   UNL     1      -0.603  -1.940  -1.123  0.00  0.00    +0.107 A 
ATOM      5  C   UNL     1      -0.579  -2.643   0.067  0.00  0.00    +0.052 A 
ATOM      6  C   UNL     1       0.026  -2.088   1.187  0.00  0.00    +0.038 A 
ATOM      7  C   UNL     1       0.610  -0.831   1.106  0.00  0.00    -0.026 A 
ATOM      8  C   UNL     1       1.273  -0.228   2.318  0.00  0.00    +0.046 C 
ENDROOT
BRANCH   6   9
ATOM      9  N   UNL     1       0.052  -2.797   2.393  0.00  0.00    -0.287 N 
ATOM     10  C   UNL     1      -0.031  -4.143   2.385  0.00  0.00    +0.203 C 
ATOM     11  O   UNL     1      -0.028  -4.745   1.333  0.00  0.00    -0.277 OA
ATOM     12  H   UNL     1       0.130  -2.321   3.234  0.00  0.00    +0.155 HD
BRANCH  10  13
ATOM     13  C   UNL     1      -0.129  -4.898   3.686  0.00  0.00    +0.019 C 
BRANCH  13  14
ATOM     14  C   UNL     1       1.264  -5.026   4.306  0.00  0.00    -0.042 C 
ATOM     15  C   UNL     1       1.835  -3.631   4.569  0.00  0.00    +0.009 C 
ATOM     16  C   UNL     1       1.165  -5.794   5.626  0.00  0.00    +0.009 C 
ATOM     17  C   UNL     1       2.184  -5.782   3.345  0.00  0.00    +0.009 C 
ENDBRANCH  13  14
BRANCH  13  18
ATOM     18  N   UNL     1      -0.677  -6.238   3.433  0.00  0.00    +0.386 N 
ATOM     19  H   UNL     1      -1.596  -6.153   3.024  0.00  0.00    -0.089 HD
ATOM     20  H   UNL     1      -0.071  -6.736   2.799  0.00  0.00    -0.089 HD
ATOM     21  H   UNL     1      -0.742  -6.744   4.304  0.00  0.00    -0.089 HD
ENDBRANCH  13  18
ENDBRANCH  10  13
ENDBRANCH   6   9
BRANCH   4  22
ATOM     22  S   UNL     1      -1.371  -2.642  -2.544  0.00  0.00    +0.056 S 
ATOM     23  O   UNL     1      -2.315  -3.592  -2.069  0.00  0.00    -0.153 OA
ATOM     24  O   UNL     1      -1.740  -1.557  -3.384  0.00  0.00    -0.153 OA
BRANCH  22  25
ATOM     25  N   UNL     1      -0.208  -3.496  -3.357  0.00  0.00    -0.204 NA
ATOM     26  H   UNL     1       0.698  -3.530  -3.014  0.00  0.00    +0.144 HD
ATOM     27  H   UNL     1      -0.434  -3.963  -4.178  0.00  0.00    +0.144 HD
ENDBRANCH  22  25
ENDBRANCH   4  22
TORSDOF 6
