REMARK  Name = ZINC09378600
REMARK  7 active torsions:
REMARK  status: ('A' for Active; 'I' for Inactive)
REMARK    1  A    between atoms: C_3  and  C_30
REMARK    2  A    between atoms: C_5  and  N_7
REMARK    3  A    between atoms: N_7  and  S_8
REMARK    4  A    between atoms: S_8  and  C_11
REMARK    5  A    between atoms: C_14  and  C_17
REMARK    6  A    between atoms: C_24  and  C_25
REMARK    7  A    between atoms: C_24  and  N_56
REMARK                            x       y       z     vdW  Elec       q    Type
REMARK                         _______ _______ _______ _____ _____    ______ ____
ROOT
ATOM      1  C   UNL     1       0.451   5.743  -2.653  0.00  0.00    +0.109 A 
ATOM      2  C   UNL     1       1.195   4.892  -3.451  0.00  0.00    +0.029 A 
ATOM      3  C   UNL     1       0.776   4.604  -4.734  0.00  0.00    +0.015 A 
ATOM      4  C   UNL     1      -0.395   5.180  -5.229  0.00  0.00    +0.037 A 
ATOM      5  C   UNL     1      -1.138   6.041  -4.419  0.00  0.00    +0.015 A 
ATOM      6  C   UNL     1      -0.711   6.317  -3.137  0.00  0.00    +0.029 A 
ENDROOT
BRANCH   4   7
ATOM      7  C   UNL     1      -0.847   4.879  -6.604  0.00  0.00    +0.246 C 
ATOM      8  O   UNL     1      -1.321   5.760  -7.294  0.00  0.00    -0.270 OA
ATOM      9  N   UNL     1      -0.734   3.627  -7.092  0.00  0.00    -0.301 N 
ATOM     10  C   UNL     1      -0.276   2.522  -6.236  0.00  0.00    +0.089 C 
ATOM     11  C   UNL     1      -1.284   1.368  -6.360  0.00  0.00    -0.059 C 
ATOM     12  C   UNL     1      -2.029   2.147  -8.532  0.00  0.00    -0.059 C 
ATOM     13  C   UNL     1      -1.058   3.332  -8.495  0.00  0.00    +0.089 C 
ATOM     14  N   UNL     1      -1.429   1.018  -7.789  0.00  0.00    +0.386 N 
ATOM     15  H   UNL     1      -0.499   0.820  -8.179  0.00  0.00    -0.081 HD
BRANCH  14  16
ATOM     16  C   UNL     1      -2.274  -0.185  -7.931  0.00  0.00    -0.003 C 
BRANCH  16  17
ATOM     17  C   UNL     1      -1.803  -1.237  -6.960  0.00  0.00    +0.089 A 
ATOM     18  C   UNL     1      -2.255  -1.409  -5.705  0.00  0.00    +0.042 A 
ATOM     19  C   UNL     1      -1.542  -2.501  -5.159  0.00  0.00    +0.041 A 
ATOM     20  C   UNL     1      -0.697  -2.931  -6.113  0.00  0.00    +0.195 A 
ATOM     21  O   UNL     1      -0.864  -2.166  -7.204  0.00  0.00    -0.470 OA
ENDBRANCH  16  17
ENDBRANCH  14  16
ENDBRANCH   4   7
BRANCH   1  22
ATOM     22  S   UNL     1       0.990   6.101  -1.014  0.00  0.00    +0.072 S 
ATOM     23  O   UNL     1       0.417   7.354  -0.663  0.00  0.00    -0.150 OA
ATOM     24  O   UNL     1       2.392   5.870  -0.987  0.00  0.00    -0.150 OA
BRANCH  22  25
ATOM     25  N   UNL     1       0.305   4.971  -0.015  0.00  0.00    -0.216 N 
ATOM     26  H   UNL     1      -0.340   5.245   0.656  0.00  0.00    +0.174 HD
BRANCH  25  31
ATOM     27  C   UNL     1       2.335   1.932  -0.399  0.00  0.00    +0.002 A 
ATOM     28  C   UNL     1       1.353   0.959  -0.385  0.00  0.00    +0.012 A 
ATOM     29  C   UNL     1       0.023   1.315  -0.254  0.00  0.00    +0.057 A 
ATOM     30  C   UNL     1      -0.327   2.645  -0.125  0.00  0.00    +0.036 A 
ATOM     31  C   UNL     1       0.656   3.625  -0.139  0.00  0.00    +0.049 A 
ATOM     32  C   UNL     1       1.991   3.264  -0.277  0.00  0.00    +0.024 A 
BRANCH  29  33
ATOM     33  C   UNL     1      -1.044   0.251  -0.246  0.00  0.00    +0.417 C 
ATOM     34  F   UNL     1      -0.449  -1.007  -0.384  0.00  0.00    -0.166 F 
ATOM     35  F   UNL     1      -1.747   0.305   0.962  0.00  0.00    -0.166 F 
ATOM     36  F   UNL     1      -1.927   0.469  -1.309  0.00  0.00    -0.166 F 
ENDBRANCH  29  33
ENDBRANCH  25  31
ENDBRANCH  22  25
ENDBRANCH   1  22
TORSDOF 7
