REMARK  Name = ZINC37820823
REMARK  6 active torsions:
REMARK  status: ('A' for Active; 'I' for Inactive)
REMARK    1  A    between atoms: C_1  and  C_2
REMARK    2  A    between atoms: C_2  and  O_3
REMARK    3  A    between atoms: O_3  and  C_4
REMARK    4  A    between atoms: N_6  and  C_7
REMARK    5  A    between atoms: C_14  and  C_16
REMARK    6  A    between atoms: C_19  and  N_22
REMARK                            x       y       z     vdW  Elec       q    Type
REMARK                         _______ _______ _______ _____ _____    ______ ____
ROOT
ATOM      1  C   UNL     1      -2.628  -3.905   0.252  0.00  0.00    +0.093 C 
ATOM      2  C   UNL     1      -2.345  -4.478  -1.139  0.00  0.00    +0.025 C 
ATOM      3  C   UNL     1      -2.513  -5.998  -1.111  0.00  0.00    +0.021 C 
ATOM      4  C   UNL     1      -3.958  -6.341  -0.733  0.00  0.00    +0.108 C 
ATOM      5  N   UNL     1      -4.285  -5.674   0.535  0.00  0.00    -0.299 N 
ATOM      6  C   UNL     1      -4.074  -4.224   0.646  0.00  0.00    +0.130 C 
ATOM      7  C   UNL     1      -4.771  -6.379   1.576  0.00  0.00    +0.219 C 
ATOM      8  O   UNL     1      -4.945  -5.837   2.647  0.00  0.00    -0.275 OA
ENDROOT
BRANCH   7   9
ATOM      9  C   UNL     1      -5.098  -7.840   1.409  0.00  0.00    +0.075 C 
ATOM     10  C   UNL     1      -6.247  -7.996   0.410  0.00  0.00    +0.011 C 
ATOM     11  C   UNL     1      -7.479  -7.253   0.930  0.00  0.00    -0.016 C 
ATOM     12  C   UNL     1      -7.895  -7.840   2.281  0.00  0.00    -0.075 C 
ATOM     13  C   UNL     1      -6.747  -7.685   3.280  0.00  0.00    -0.016 C 
ATOM     14  C   UNL     1      -5.515  -8.427   2.760  0.00  0.00    +0.011 C 
BRANCH  12  15
ATOM     15  N   UNL     1      -9.079  -7.127   2.780  0.00  0.00    +0.380 N 
ATOM     16  H   UNL     1      -9.836  -7.229   2.122  0.00  0.00    -0.090 HD
ATOM     17  H   UNL     1      -9.353  -7.514   3.671  0.00  0.00    -0.090 HD
ATOM     18  H   UNL     1      -8.860  -6.148   2.892  0.00  0.00    -0.090 HD
ENDBRANCH  12  15
ENDBRANCH   7   9
BRANCH   1  21
ATOM     19  C   UNL     1      -1.206  -1.934   0.412  0.00  0.00    +0.401 C 
ATOM     20  O   UNL     1      -0.256  -2.670   0.592  0.00  0.00    -0.226 OA
ATOM     21  N   UNL     1      -2.436  -2.453   0.232  0.00  0.00    -0.277 N 
ATOM     22  H   UNL     1      -3.195  -1.866   0.088  0.00  0.00    +0.152 HD
BRANCH  19  23
ATOM     23  O   UNL     1      -1.029  -0.599   0.394  0.00  0.00    -0.451 OA
BRANCH  23  25
ATOM     24  C   UNL     1       0.304   1.411   0.539  0.00  0.00    +0.048 C 
ATOM     25  C   UNL     1       0.302  -0.118   0.592  0.00  0.00    +0.230 C 
ENDBRANCH  23  25
ENDBRANCH  19  23
ENDBRANCH   1  21
TORSDOF 5
