REMARK  Name = ZINC03840654
REMARK  10 active torsions:
REMARK  status: ('A' for Active; 'I' for Inactive)
REMARK    1  A    between atoms: C_1  and  C_2
REMARK    2  A    between atoms: C_7  and  C_9
REMARK    3  A    between atoms: C_9  and  S_10
REMARK    4  A    between atoms: S_10  and  C_11
REMARK    5  A    between atoms: C_18  and  C_39
REMARK    6  A    between atoms: C_21  and  O_38
REMARK    7  A    between atoms: C_23  and  C_27
REMARK    8  A    between atoms: C_27  and  C_29
REMARK    9  A    between atoms: C_27  and  C_30
REMARK   10  A    between atoms: C_37  and  N_74
REMARK                            x       y       z     vdW  Elec       q    Type
REMARK                         _______ _______ _______ _____ _____    ______ ____
ROOT
ATOM      1  C   UNL     1      -4.394   4.978   0.145  0.00  0.00    +0.014 C 
ATOM      2  C   UNL     1      -3.871   4.190  -1.057  0.00  0.00    +0.042 C 
ATOM      3  C   UNL     1      -4.950   4.120  -2.126  0.00  0.00    +0.055 A 
ATOM      4  C   UNL     1      -5.159   2.963  -2.809  0.00  0.00    +0.014 A 
ATOM      5  S   UNL     1      -6.480   3.397  -3.909  0.00  0.00    -0.076 S 
ATOM      6  C   UNL     1      -6.654   5.047  -3.388  0.00  0.00    +0.089 A 
ATOM      7  N   UNL     1      -5.734   5.140  -2.458  0.00  0.00    -0.248 NA
ATOM      8  C   UNL     1      -4.441   1.671  -2.650  0.00  0.00    +0.051 C 
ATOM      9  C   UNL     1      -3.156   1.908  -1.832  0.00  0.00    -0.022 C 
ATOM     10  C   UNL     1      -3.494   2.771  -0.614  0.00  0.00    +0.033 C 
ATOM     11  C   UNL     1      -2.272   2.886   0.304  0.00  0.00    +0.123 C 
ATOM     12  C   UNL     1      -1.804   1.502   0.749  0.00  0.00    +0.029 C 
ATOM     13  C   UNL     1      -1.415   0.692  -0.491  0.00  0.00    +0.007 C 
ATOM     14  C   UNL     1      -2.645   0.535  -1.384  0.00  0.00    +0.008 C 
ATOM     15  C   UNL     1      -2.098   2.606  -2.689  0.00  0.00    +0.012 C 
ENDROOT
BRANCH  12  16
ATOM     16  C   UNL     1      -2.940   0.793   1.490  0.00  0.00    +0.078 C 
ATOM     17  C   UNL     1      -3.223   1.520   2.806  0.00  0.00    +0.017 C 
BRANCH  16  18
ATOM     18  C   UNL     1      -2.539  -0.631   1.779  0.00  0.00    +0.219 C 
ATOM     19  O   UNL     1      -1.369  -0.912   1.931  0.00  0.00    -0.275 OA
ATOM     20  N   UNL     1      -3.481  -1.591   1.868  0.00  0.00    -0.305 N 
ATOM     21  C   UNL     1      -4.911  -1.255   1.795  0.00  0.00    +0.089 C 
ATOM     22  C   UNL     1      -5.565  -2.159   0.739  0.00  0.00    -0.060 C 
ATOM     23  C   UNL     1      -3.831  -3.837   0.987  0.00  0.00    -0.060 C 
ATOM     24  C   UNL     1      -3.106  -3.002   2.047  0.00  0.00    +0.089 C 
ATOM     25  C   UNL     1      -6.023  -4.469   0.174  0.00  0.00    -0.096 C 
ATOM     26  N   UNL     1      -5.283  -3.570   1.083  0.00  0.00    +0.380 N 
ATOM     27  H   UNL     1      -5.590  -3.744   2.047  0.00  0.00    -0.082 HD
ENDBRANCH  16  18
ENDBRANCH  12  16
BRANCH  11  28
ATOM     28  O   UNL     1      -2.618   3.660   1.455  0.00  0.00    -0.391 OA
ATOM     29  H   UNL     1      -1.892   3.776   2.083  0.00  0.00    +0.210 HD
ENDBRANCH  11  28
BRANCH   6  30
ATOM     30  C   UNL     1      -7.614   6.099  -3.880  0.00  0.00    +0.137 C 
BRANCH  30  31
ATOM     31  S   UNL     1      -6.859   7.013  -5.252  0.00  0.00    -0.118 S 
BRANCH  31  32
ATOM     32  C   UNL     1      -8.089   8.190  -5.709  0.00  0.00    +0.008 A 
ATOM     33  C   UNL     1      -9.303   8.226  -5.033  0.00  0.00    +0.015 A 
ATOM     34  C   UNL     1     -10.262   9.153  -5.389  0.00  0.00    +0.001 A 
ATOM     35  C   UNL     1     -10.021  10.037  -6.425  0.00  0.00    +0.000 A 
ATOM     36  C   UNL     1      -8.816   9.999  -7.104  0.00  0.00    +0.001 A 
ATOM     37  C   UNL     1      -7.850   9.079  -6.750  0.00  0.00    +0.015 A 
ENDBRANCH  31  32
ENDBRANCH  30  31
ENDBRANCH   6  30
TORSDOF 6
