REMARK  Name = ZINC37711344
REMARK  6 active torsions:
REMARK  status: ('A' for Active; 'I' for Inactive)
REMARK    1  A    between atoms: C_1  and  N_2
REMARK    2  A    between atoms: N_2  and  C_3
REMARK    3  A    between atoms: C_3  and  C_4
REMARK    4  A    between atoms: C_9  and  O_10
REMARK    5  A    between atoms: O_10  and  C_11
REMARK    6  A    between atoms: C_18  and  O_20
REMARK                            x       y       z     vdW  Elec       q    Type
REMARK                         _______ _______ _______ _____ _____    ______ ____
ROOT
ATOM      1  C   UNL     1      -1.356  -2.019   0.004  0.00  0.00    -0.020 A 
ATOM      2  C   UNL     1      -1.560  -2.707  -1.177  0.00  0.00    +0.025 A 
ATOM      3  C   UNL     1      -1.542  -4.090  -1.186  0.00  0.00    +0.043 A 
ATOM      4  C   UNL     1      -1.319  -4.789  -0.012  0.00  0.00    +0.043 A 
ATOM      5  C   UNL     1      -1.115  -4.105   1.172  0.00  0.00    +0.084 A 
ATOM      6  C   UNL     1      -1.127  -2.716   1.181  0.00  0.00    +0.141 A 
ATOM      7 CL   UNL     1      -0.836  -4.981   2.644  0.00  0.00    -0.080 Cl
ATOM      8 CL   UNL     1      -1.799  -4.951  -2.671  0.00  0.00    -0.083 Cl
ENDROOT
BRANCH   1   9
ATOM      9  C   UNL     1      -1.376  -0.512   0.012  0.00  0.00    -0.043 C 
BRANCH   9  11
ATOM     10  C   UNL     1      -0.018   1.465   0.010  0.00  0.00    -0.100 C 
ATOM     11  N   UNL     1       0.002  -0.004   0.002  0.00  0.00    +0.380 N 
ATOM     12  H   UNL     1       0.474  -0.330  -0.828  0.00  0.00    -0.086 HD
ATOM     13  H   UNL     1       0.490  -0.338   0.820  0.00  0.00    -0.086 HD
ENDBRANCH   9  11
ENDBRANCH   1   9
BRANCH   6  14
ATOM     14  O   UNL     1      -0.920  -2.042   2.342  0.00  0.00    -0.483 OA
BRANCH  14  15
ATOM     15  C   UNL     1      -2.073  -1.738   3.130  0.00  0.00    +0.224 C 
ATOM     16  C   UNL     1      -2.332  -2.897   4.132  0.00  0.00    +0.213 C 
ATOM     17  S   UNL     1      -3.378  -2.009   5.367  0.00  0.00    -0.025 S 
ATOM     18  O   UNL     1      -4.715  -1.947   4.890  0.00  0.00    -0.174 OA
ATOM     19  O   UNL     1      -3.118  -2.533   6.662  0.00  0.00    -0.174 OA
ATOM     20  C   UNL     1      -2.604  -0.345   5.220  0.00  0.00    +0.201 C 
ATOM     21  C   UNL     1      -1.840  -0.430   3.885  0.00  0.00    +0.177 C 
BRANCH  21  22
ATOM     22  O   UNL     1      -0.441  -0.296   4.148  0.00  0.00    -0.386 OA
ATOM     23  H   UNL     1      -0.206   0.511   4.626  0.00  0.00    +0.210 HD
ENDBRANCH  21  22
ENDBRANCH  14  15
ENDBRANCH   6  14
TORSDOF 5
