REMARK  Name = ZINC34790008
REMARK  7 active torsions:
REMARK  status: ('A' for Active; 'I' for Inactive)
REMARK    1  A    between atoms: C_1  and  C_2
REMARK    2  A    between atoms: N_11  and  C_12
REMARK    3  A    between atoms: C_12  and  C_14
REMARK    4  A    between atoms: C_12  and  C_16
REMARK    5  A    between atoms: C_14  and  N_15
REMARK    6  A    between atoms: C_19  and  C_21
REMARK    7  A    between atoms: C_24  and  C_26
REMARK                            x       y       z     vdW  Elec       q    Type
REMARK                         _______ _______ _______ _____ _____    ______ ____
ROOT
ATOM      1  C   UNL     1       2.075  -0.239   1.552  0.00  0.00    +0.122 C 
ENDROOT
BRANCH   1  11
ATOM      2  C   UNL     1      -0.019   1.526   0.010  0.00  0.00    +0.028 C 
ATOM      3  C   UNL     1       0.002  -0.004   0.002  0.00  0.00    +0.075 C 
ATOM      4  C   UNL     1      -1.430  -0.557   0.082  0.00  0.00    +0.059 C 
ATOM      5  C   UNL     1      -1.455  -1.361   1.363  0.00  0.00    -0.025 A 
ATOM      6  C   UNL     1      -2.470  -2.086   1.958  0.00  0.00    +0.005 A 
ATOM      7  C   UNL     1      -2.244  -2.746   3.152  0.00  0.00    +0.000 A 
ATOM      8  C   UNL     1      -0.999  -2.679   3.750  0.00  0.00    +0.002 A 
ATOM      9  C   UNL     1       0.017  -1.957   3.160  0.00  0.00    +0.023 A 
ATOM     10  C   UNL     1      -0.204  -1.287   1.954  0.00  0.00    +0.034 A 
ATOM     11  N   UNL     1       0.679  -0.510   1.199  0.00  0.00    -0.318 N 
ENDBRANCH   1  11
BRANCH   1  12
ATOM     12  C   UNL     1       2.832  -1.540   1.639  0.00  0.00    +0.124 A 
ATOM     13  C   UNL     1       4.088  -1.749   1.205  0.00  0.00    +0.047 A 
ATOM     14  C   UNL     1       4.397  -3.100   1.485  0.00  0.00    +0.045 A 
ATOM     15  C   UNL     1       3.312  -3.635   2.073  0.00  0.00    +0.109 A 
ATOM     16  O   UNL     1       2.369  -2.684   2.169  0.00  0.00    -0.462 OA
BRANCH  15  17
ATOM     17  C   UNL     1       3.179  -5.059   2.548  0.00  0.00    +0.058 C 
ATOM     18  C   UNL     1       1.795  -5.525   3.004  0.00  0.00    +0.015 C 
ATOM     19  C   UNL     1       2.900  -5.284   4.035  0.00  0.00    -0.003 C 
ATOM     20  C   UNL     1       2.777  -4.046   4.926  0.00  0.00    +0.008 C 
ENDBRANCH  15  17
ENDBRANCH   1  12
BRANCH   1  21
ATOM     21  C   UNL     1       2.131   0.475   2.903  0.00  0.00    -0.056 C 
BRANCH  21  22
ATOM     22  N   UNL     1       1.294   1.682   2.854  0.00  0.00    +0.380 N 
ATOM     23  H   UNL     1       1.637   2.299   2.133  0.00  0.00    -0.090 HD
ATOM     24  H   UNL     1       0.341   1.423   2.650  0.00  0.00    -0.090 HD
ATOM     25  H   UNL     1       1.331   2.153   3.745  0.00  0.00    -0.090 HD
ENDBRANCH  21  22
ENDBRANCH   1  21
TORSDOF 5
