REMARK  Name = ZINC43410484
REMARK  3 active torsions:
REMARK  status: ('A' for Active; 'I' for Inactive)
REMARK    1  A    between atoms: C_5  and  O_7
REMARK    2  A    between atoms: O_7  and  C_8
REMARK    3  A    between atoms: C_9  and  C_18
REMARK                            x       y       z     vdW  Elec       q    Type
REMARK                         _______ _______ _______ _____ _____    ______ ____
ROOT
ATOM      1  C   UNL     1       0.066  -2.685   0.166  0.00  0.00    +0.231 A 
ATOM      2  C   UNL     1       0.041  -4.087   0.195  0.00  0.00    +0.074 A 
ATOM      3  C   UNL     1      -1.198  -4.731   0.224  0.00  0.00    +0.022 A 
ATOM      4  C   UNL     1      -2.354  -3.960   0.225  0.00  0.00    -0.025 A 
ATOM      5  C   UNL     1      -2.252  -2.586   0.201  0.00  0.00    +0.048 A 
ATOM      6  N   UNL     1      -1.061  -2.001   0.174  0.00  0.00    -0.217 NA
ATOM      7  C   UNL     1      -3.464  -1.689   0.219  0.00  0.00    +0.056 C 
ATOM      8  C   UNL     1      -4.715  -2.468  -0.181  0.00  0.00    +0.006 C 
ATOM      9  C   UNL     1      -4.795  -3.734   0.680  0.00  0.00    +0.005 C 
ATOM     10  C   UNL     1      -3.676  -4.680   0.249  0.00  0.00    +0.037 C 
ENDROOT
BRANCH   2  11
ATOM     11  C   UNL     1       1.297  -4.865   0.194  0.00  0.00    +0.099 C 
ATOM     12  N   UNL     1       2.216  -4.648   1.135  0.00  0.00    -0.387 N 
ATOM     13  N   UNL     1       1.511  -5.784  -0.747  0.00  0.00    -0.344 N 
ATOM     14  H   UNL     1       2.091  -3.934   1.779  0.00  0.00    +0.157 HD
ATOM     15  H   UNL     1       0.842  -5.942  -1.431  0.00  0.00    +0.144 HD
ATOM     16  H   UNL     1       2.335  -6.295  -0.747  0.00  0.00    +0.144 HD
ATOM     17  H   UNL     1       3.009  -5.204   1.175  0.00  0.00    +0.157 HD
ENDBRANCH   2  11
BRANCH   1  18
ATOM     18  O   UNL     1       1.252  -2.031   0.135  0.00  0.00    -0.436 OA
BRANCH  18  23
ATOM     19  C   UNL     1       1.230   1.475  -0.834  0.00  0.00    +0.004 A 
ATOM     20  C   UNL     1       1.203   2.086   0.406  0.00  0.00    +0.002 A 
ATOM     21  C   UNL     1       1.194   1.319   1.557  0.00  0.00    +0.024 A 
ATOM     22  C   UNL     1       1.210  -0.061   1.469  0.00  0.00    +0.083 A 
ATOM     23  C   UNL     1       1.236  -0.675   0.225  0.00  0.00    +0.149 A 
ATOM     24  C   UNL     1       1.246   0.097  -0.928  0.00  0.00    +0.048 A 
ATOM     25 CL   UNL     1       1.198  -1.023   2.914  0.00  0.00    -0.080 Cl
ENDBRANCH  18  23
ENDBRANCH   1  18
TORSDOF 3
