REMARK  Name = ZINC08923144
REMARK  8 active torsions:
REMARK  status: ('A' for Active; 'I' for Inactive)
REMARK    1  A    between atoms: C_1  and  C_2
REMARK    2  A    between atoms: C_2  and  C_3
REMARK    3  A    between atoms: C_2  and  N_54
REMARK    4  A    between atoms: C_11  and  O_30
REMARK    5  A    between atoms: C_13  and  C_16
REMARK    6  A    between atoms: C_20  and  O_22
REMARK    7  A    between atoms: O_22  and  C_23
REMARK    8  A    between atoms: C_23  and  C_25
REMARK                            x       y       z     vdW  Elec       q    Type
REMARK                         _______ _______ _______ _____ _____    ______ ____
ROOT
ATOM      1  C   UNL     1      -1.851  -0.906   0.411  0.00  0.00    -0.073 C 
ATOM      2  C   UNL     1      -1.757  -2.371  -0.023  0.00  0.00    +0.018 C 
ATOM      3  C   UNL     1      -0.605  -3.020   0.736  0.00  0.00    -0.027 A 
ATOM      4  C   UNL     1       0.335  -2.245   1.329  0.00  0.00    -0.021 A 
ATOM      5  S   UNL     1       1.457  -3.388   2.086  0.00  0.00    -0.080 S 
ATOM      6  C   UNL     1       0.697  -4.851   1.624  0.00  0.00    +0.080 A 
ATOM      7  C   UNL     1      -0.422  -4.451   0.882  0.00  0.00    +0.067 A 
ATOM      8  C   UNL     1      -1.298  -5.524   0.346  0.00  0.00    +0.220 C 
ATOM      9  N   UNL     1      -0.865  -6.753   0.411  0.00  0.00    -0.223 NA
ATOM     10  C   UNL     1       0.457  -7.143   0.885  0.00  0.00    +0.224 C 
ATOM     11  N   UNL     1       0.994  -6.172   1.856  0.00  0.00    -0.313 N 
ATOM     12  C   UNL     1       0.386  -0.750   1.327  0.00  0.00    -0.035 C 
ATOM     13  H   UNL     1       1.527  -6.451   2.617  0.00  0.00    +0.149 HD
ATOM     14  N   UNL     1      -0.528  -0.265   0.265  0.00  0.00    +0.384 N 
ATOM     15  H   UNL     1      -0.137  -0.512  -0.652  0.00  0.00    -0.081 HD
ENDROOT
BRANCH  10  16
ATOM     16  C   UNL     1       1.396  -7.230  -0.291  0.00  0.00    -0.002 A 
ATOM     17  C   UNL     1       2.741  -6.961  -0.122  0.00  0.00    +0.007 A 
ATOM     18  C   UNL     1       3.606  -7.045  -1.198  0.00  0.00    +0.004 A 
ATOM     19  C   UNL     1       3.125  -7.388  -2.447  0.00  0.00    +0.046 A 
ATOM     20  C   UNL     1       1.774  -7.654  -2.620  0.00  0.00    +0.132 A 
ATOM     21  C   UNL     1       0.910  -7.574  -1.538  0.00  0.00    +0.053 A 
BRANCH  20  22
ATOM     22  O   UNL     1       1.299  -7.991  -3.848  0.00  0.00    -0.422 OA
BRANCH  22  23
ATOM     23  C   UNL     1       0.507  -7.104  -4.486  0.00  0.00    +0.351 C 
ATOM     24  O   UNL     1       0.323  -6.000  -4.009  0.00  0.00    -0.244 OA
BRANCH  23  25
ATOM     25  C   UNL     1      -0.131  -7.471  -5.751  0.00  0.00    +0.097 A 
ATOM     26  C   UNL     1      -0.976  -6.719  -6.555  0.00  0.00    +0.022 A 
ATOM     27  C   UNL     1      -1.435  -7.311  -7.704  0.00  0.00    +0.008 A 
ATOM     28  C   UNL     1      -1.057  -8.585  -7.991  0.00  0.00    +0.046 A 
ATOM     29  S   UNL     1      -0.032  -9.004  -6.658  0.00  0.00    -0.090 S 
ENDBRANCH  23  25
ENDBRANCH  22  23
ENDBRANCH  20  22
ENDBRANCH  10  16
BRANCH  14  31
ATOM     30  C   UNL     1       0.726   1.839   0.342  0.00  0.00    -0.014 C 
ATOM     31  C   UNL     1      -0.666   1.205   0.347  0.00  0.00    -0.074 C 
ATOM     32  C   UNL     1      -1.456   1.697  -0.867  0.00  0.00    -0.014 C 
ENDBRANCH  14  31
BRANCH   8  33
ATOM     33  O   UNL     1      -2.506  -5.237  -0.192  0.00  0.00    -0.492 OA
ATOM     34  H   UNL     1      -2.990  -6.012  -0.508  0.00  0.00    +0.294 HD
ENDBRANCH   8  33
TORSDOF 6
