REMARK  Name = ZINC36678671
REMARK  5 active torsions:
REMARK  status: ('A' for Active; 'I' for Inactive)
REMARK    1  A    between atoms: C_1  and  C_2
REMARK    2  A    between atoms: C_2  and  C_4
REMARK    3  A    between atoms: C_2  and  C_12
REMARK    4  A    between atoms: C_4  and  N_5
REMARK    5  A    between atoms: C_12  and  N_14
REMARK                            x       y       z     vdW  Elec       q    Type
REMARK                         _______ _______ _______ _____ _____    ______ ____
ROOT
ATOM      1  C   UNL     1       0.718  -0.497  -1.257  0.00  0.00    +0.117 C 
ENDROOT
BRANCH   1   2
ATOM      2  N   UNL     1       2.125  -0.091  -1.209  0.00  0.00    -0.301 N 
ATOM      3  C   UNL     1       2.482   1.201  -1.782  0.00  0.00    +0.108 C 
ATOM      4  C   UNL     1       3.836   1.668  -1.245  0.00  0.00    +0.019 C 
ATOM      5  C   UNL     1       4.852   0.532  -1.419  0.00  0.00    +0.011 C 
ATOM      6  C   UNL     1       4.458  -0.615  -0.485  0.00  0.00    +0.096 C 
ATOM      7  C   UNL     1       2.997  -0.924  -0.640  0.00  0.00    +0.216 C 
ATOM      8  O   UNL     1       2.589  -1.989  -0.229  0.00  0.00    -0.276 OA
ENDBRANCH   1   2
BRANCH   1  10
ATOM      9  C   UNL     1      -0.019   1.526   0.010  0.00  0.00    +0.016 C 
ATOM     10  C   UNL     1       0.002  -0.004   0.002  0.00  0.00    +0.055 C 
BRANCH  10  11
ATOM     11  C   UNL     1      -1.412  -0.526   0.013  0.00  0.00    +0.051 C 
ATOM     12  S   UNL     1      -2.010  -1.240  -1.287  0.00  0.00    -0.040 S 
BRANCH  11  13
ATOM     13  N   UNL     1      -2.172  -0.390   1.118  0.00  0.00    -0.355 N 
ATOM     14  H   UNL     1      -1.808   0.043   1.906  0.00  0.00    +0.143 HD
ATOM     15  H   UNL     1      -3.082  -0.726   1.125  0.00  0.00    +0.143 HD
ENDBRANCH  11  13
ENDBRANCH  10  11
ENDBRANCH   1  10
TORSDOF 4
