REMARK  Name = ZINC23366539
REMARK  9 active torsions:
REMARK  status: ('A' for Active; 'I' for Inactive)
REMARK    1  A    between atoms: C_1  and  C_2
REMARK    2  A    between atoms: C_5  and  S_7
REMARK    3  A    between atoms: S_7  and  N_10
REMARK    4  A    between atoms: C_14  and  C_17
REMARK    5  A    between atoms: C_17  and  N_18
REMARK    6  A    between atoms: C_20  and  C_23
REMARK    7  A    between atoms: C_23  and  C_24
REMARK    8  A    between atoms: C_23  and  C_25
REMARK    9  A    between atoms: C_23  and  N_26
REMARK                            x       y       z     vdW  Elec       q    Type
REMARK                         _______ _______ _______ _____ _____    ______ ____
ROOT
ATOM      1  N   UNL     1       5.862   2.677  -2.358  0.00  0.00    -0.176 NA
ATOM      2  C   UNL     1       5.483   2.139  -3.672  0.00  0.00    +0.109 C 
ATOM      3  C   UNL     1       3.966   1.929  -3.700  0.00  0.00    +0.017 C 
ATOM      4  C   UNL     1       3.554   1.048  -2.518  0.00  0.00    +0.008 C 
ATOM      5  C   UNL     1       3.922   1.747  -1.207  0.00  0.00    +0.026 C 
ATOM      6  C   UNL     1       5.438   1.955  -1.151  0.00  0.00    +0.114 C 
ENDROOT
BRANCH   1   7
ATOM      7  S   UNL     1       6.748   4.071  -2.241  0.00  0.00    +0.067 S 
ATOM      8  O   UNL     1       6.522   4.798  -3.441  0.00  0.00    -0.152 OA
ATOM      9  O   UNL     1       6.478   4.617  -0.957  0.00  0.00    -0.152 OA
BRANCH   7  14
ATOM     10  C   UNL     1      12.360   2.468  -1.269  0.00  0.00    +0.051 C 
ATOM     11  C   UNL     1      11.003   2.877  -1.781  0.00  0.00    -0.011 A 
ATOM     12  C   UNL     1      10.600   3.087  -3.059  0.00  0.00    +0.013 A 
ATOM     13  C   UNL     1       9.289   3.456  -3.296  0.00  0.00    +0.036 A 
ATOM     14  C   UNL     1       8.448   3.609  -2.244  0.00  0.00    +0.143 A 
ATOM     15  S   UNL     1       9.508   3.212  -0.864  0.00  0.00    -0.074 S 
ENDBRANCH   7  14
ENDBRANCH   1   7
BRANCH   5  16
ATOM     16  C   UNL     1       3.481   0.880  -0.026  0.00  0.00    +0.150 C 
BRANCH  16  17
ATOM     17  N   UNL     1       2.020   0.778  -0.013  0.00  0.00    -0.251 N 
ATOM     18  C   UNL     1       1.305  -0.371  -0.012  0.00  0.00    +0.132 A 
ATOM     19  C   UNL     1       0.002  -0.004   0.002  0.00  0.00    +0.071 A 
ATOM     20  N   UNL     1      -0.016   1.333   0.009  0.00  0.00    -0.136 NA
ATOM     21  N   UNL     1       1.195   1.766   0.000  0.00  0.00    -0.065 NA
BRANCH  19  22
ATOM     22  C   UNL     1      -1.193  -0.922   0.009  0.00  0.00    -0.030 C 
ATOM     23  C   UNL     1      -2.476  -0.089   0.025  0.00  0.00    -0.004 C 
ATOM     24  C   UNL     1      -1.170  -1.798  -1.245  0.00  0.00    -0.004 C 
BRANCH  22  25
ATOM     25  N   UNL     1      -1.148  -1.776   1.204  0.00  0.00    +0.385 N 
ATOM     26  H   UNL     1      -2.020  -2.446   1.209  0.00  0.00    -0.089 HD
ATOM     27  H   UNL     1      -1.164  -1.145   2.105  0.00  0.00    -0.089 HD
ATOM     28  H   UNL     1      -0.225  -2.375   1.192  0.00  0.00    -0.089 HD
ENDBRANCH  22  25
ENDBRANCH  19  22
ENDBRANCH  16  17
ENDBRANCH   5  16
TORSDOF 6
