REMARK  Name = ZINC38802743
REMARK  4 active torsions:
REMARK  status: ('A' for Active; 'I' for Inactive)
REMARK    1  A    between atoms: C_8  and  N_13
REMARK    2  A    between atoms: N_13  and  N_14
REMARK    3  A    between atoms: C_15  and  C_16
REMARK    4  A    between atoms: C_19  and  O_22
REMARK                            x       y       z     vdW  Elec       q    Type
REMARK                         _______ _______ _______ _____ _____    ______ ____
ROOT
ATOM      1  C   UNL     1      -0.016   1.347   0.009  0.00  0.00    +0.002 A 
ATOM      2  C   UNL     1       1.169   2.101   0.002  0.00  0.00    +0.002 A 
ATOM      3  C   UNL     1       2.398   1.533  -0.013  0.00  0.00    +0.025 A 
ATOM      4  C   UNL     1       2.536   0.127  -0.022  0.00  0.00    +0.057 A 
ATOM      5  N   UNL     1       3.739  -0.422  -0.036  0.00  0.00    -0.281 N 
ATOM      6  C   UNL     1       3.903  -1.747  -0.045  0.00  0.00    +0.259 C 
ATOM      7  O   UNL     1       5.019  -2.228  -0.058  0.00  0.00    -0.271 OA
ATOM      8  C   UNL     1       2.683  -2.640  -0.038  0.00  0.00    +0.269 C 
ATOM      9  N   UNL     1       1.360  -1.997  -0.022  0.00  0.00    -0.357 N 
ATOM     10  C   UNL     1       1.301  -0.697  -0.014  0.00  0.00    +0.059 A 
ATOM     11  C   UNL     1       0.002  -0.004   0.002  0.00  0.00    +0.027 A 
ATOM     12  H   UNL     1       0.550  -2.531  -0.017  0.00  0.00    +0.162 HD
ATOM     13  H   UNL     1       4.521   0.152  -0.041  0.00  0.00    +0.155 HD
ENDROOT
BRANCH   8  14
ATOM     14  N   UNL     1       2.772  -3.508   1.138  0.00  0.00    -0.238 N 
ATOM     15  H   UNL     1       2.385  -3.224   1.981  0.00  0.00    +0.171 HD
BRANCH  14  16
ATOM     16  N   UNL     1       3.415  -4.749   1.046  0.00  0.00    -0.192 NA
ATOM     17  C   UNL     1       3.494  -5.518   2.088  0.00  0.00    +0.138 C 
BRANCH  17  18
ATOM     18  C   UNL     1       4.171  -6.825   1.991  0.00  0.00    -0.005 A 
ATOM     19  C   UNL     1       4.734  -7.234   0.779  0.00  0.00    +0.013 A 
ATOM     20  C   UNL     1       5.366  -8.456   0.693  0.00  0.00    +0.046 A 
ATOM     21  C   UNL     1       5.444  -9.280   1.808  0.00  0.00    +0.117 A 
ATOM     22  C   UNL     1       4.886  -8.877   3.014  0.00  0.00    +0.046 A 
ATOM     23  C   UNL     1       4.256  -7.655   3.111  0.00  0.00    +0.013 A 
BRANCH  21  24
ATOM     24  O   UNL     1       6.067 -10.484   1.718  0.00  0.00    -0.507 OA
ATOM     25  H   UNL     1       7.012 -10.453   1.919  0.00  0.00    +0.292 HD
ENDBRANCH  21  24
ENDBRANCH  17  18
ENDBRANCH  14  16
ENDBRANCH   8  14
TORSDOF 4
