REMARK  Name = ZINC22673130
REMARK  8 active torsions:
REMARK  status: ('A' for Active; 'I' for Inactive)
REMARK    1  A    between atoms: C_1  and  C_2
REMARK    2  A    between atoms: C_2  and  C_24
REMARK    3  A    between atoms: C_5  and  C_22
REMARK    4  A    between atoms: C_6  and  N_13
REMARK    5  A    between atoms: C_9  and  C_11
REMARK    6  A    between atoms: C_9  and  C_12
REMARK    7  A    between atoms: C_14  and  C_16
REMARK    8  A    between atoms: C_16  and  C_17
REMARK                            x       y       z     vdW  Elec       q    Type
REMARK                         _______ _______ _______ _____ _____    ______ ____
ROOT
ATOM      1  C   UNL     1      -0.013   1.086   0.008  0.00  0.00    -0.010 C 
ATOM      2  C   UNL     1      -0.729   1.580   1.268  0.00  0.00    -0.069 C 
ATOM      3  C   UNL     1      -2.138   0.980   1.315  0.00  0.00    +0.024 C 
ATOM      4  C   UNL     1      -2.983   1.651   0.242  0.00  0.00    -0.021 A 
ATOM      5  C   UNL     1      -4.133   1.060  -0.410  0.00  0.00    +0.084 A 
ATOM      6  C   UNL     1      -4.799   1.829  -1.356  0.00  0.00    +0.090 A 
ATOM      7  S   UNL     1      -3.897   3.309  -1.367  0.00  0.00    -0.078 S 
ATOM      8  C   UNL     1      -2.675   2.908  -0.151  0.00  0.00    -0.015 A 
ATOM      9  C   UNL     1      -1.545   3.749   0.346  0.00  0.00    -0.041 C 
ATOM     10  N   UNL     1      -0.746   3.031   1.334  0.00  0.00    +0.389 N 
ATOM     11  C   UNL     1      -2.141   5.007   1.010  0.00  0.00    -0.005 C 
ATOM     12  C   UNL     1      -0.679   4.206  -0.834  0.00  0.00    -0.005 C 
ATOM     13  C   UNL     1       0.049   1.047   2.488  0.00  0.00    -0.010 C 
ATOM     14  H   UNL     1      -1.142   3.349   2.310  0.00  0.00    -0.084 HD
ATOM     15  H   UNL     1       0.277   3.416   1.210  0.00  0.00    -0.084 HD
ENDROOT
BRANCH   6  16
ATOM     16  N   UNL     1      -5.915   1.493  -2.108  0.00  0.00    -0.279 N 
ATOM     17  C   UNL     1      -6.428   2.378  -2.986  0.00  0.00    +0.222 C 
ATOM     18  O   UNL     1      -5.913   3.469  -3.119  0.00  0.00    -0.275 OA
ATOM     19  H   UNL     1      -6.382   0.505  -1.988  0.00  0.00    +0.155 HD
BRANCH  17  20
ATOM     20  C   UNL     1      -7.640   2.014  -3.803  0.00  0.00    +0.138 C 
BRANCH  20  21
ATOM     21  C   UNL     1      -8.008   3.168  -4.699  0.00  0.00    -0.001 A 
ATOM     22  C   UNL     1      -7.587   3.438  -5.959  0.00  0.00    +0.011 A 
ATOM     23  C   UNL     1      -8.066   4.566  -6.598  0.00  0.00    +0.008 A 
ATOM     24  C   UNL     1      -8.934   5.375  -5.942  0.00  0.00    +0.045 A 
ATOM     25  S   UNL     1      -9.104   4.539  -4.374  0.00  0.00    -0.101 S 
ENDBRANCH  20  21
ENDBRANCH  17  20
ENDBRANCH   6  16
BRANCH   5  26
ATOM     26  C   UNL     1      -4.579  -0.265  -0.097  0.00  0.00    +0.102 C 
ATOM     27  N   UNL     1      -4.931  -1.316   0.151  0.00  0.00    -0.191 NA
ENDBRANCH   5  26
TORSDOF 4
