REMARK  Name = ZINC13634118
REMARK  6 active torsions:
REMARK  status: ('A' for Active; 'I' for Inactive)
REMARK    1  A    between atoms: C_1  and  C_2
REMARK    2  A    between atoms: C_5  and  S_7
REMARK    3  A    between atoms: S_7  and  C_8
REMARK    4  A    between atoms: C_8  and  C_9
REMARK    5  A    between atoms: N_19  and  C_20
REMARK    6  A    between atoms: C_25  and  C_26
REMARK                            x       y       z     vdW  Elec       q    Type
REMARK                         _______ _______ _______ _____ _____    ______ ____
ROOT
ATOM      1  C   UNL     1       0.696  -7.266  -1.791  0.00  0.00    +0.060 A 
ATOM      2  C   UNL     1      -0.457  -7.978  -1.950  0.00  0.00    +0.094 A 
ATOM      3  C   UNL     1      -0.650  -9.139  -1.179  0.00  0.00    +0.253 A 
ATOM      4  O   UNL     1      -1.668  -9.800  -1.296  0.00  0.00    -0.268 OA
ATOM      5  N   UNL     1       0.314  -9.507  -0.309  0.00  0.00    -0.293 N 
ATOM      6  C   UNL     1       1.443  -8.757  -0.194  0.00  0.00    +0.211 A 
ATOM      7  N   UNL     1       1.619  -7.674  -0.923  0.00  0.00    -0.218 NA
ATOM      8  N   UNL     1       2.418  -9.138   0.695  0.00  0.00    -0.298 N 
ATOM      9  C   UNL     1       3.509  -8.322   0.914  0.00  0.00    +0.180 C 
ATOM     10  N   UNL     1       4.527  -8.764   1.595  0.00  0.00    -0.371 N 
ATOM     11  N   UNL     1       3.522  -7.040   0.413  0.00  0.00    -0.327 N 
ATOM     12  H   UNL     1       5.259  -8.167   1.817  0.00  0.00    +0.159 HD
ATOM     13  H   UNL     1       2.743  -6.693  -0.051  0.00  0.00    +0.169 HD
ATOM     14  H   UNL     1       4.554  -9.691   1.881  0.00  0.00    +0.159 HD
ATOM     15  H   UNL     1       2.341  -9.981   1.169  0.00  0.00    +0.172 HD
ATOM     16  H   UNL     1       0.202 -10.304   0.233  0.00  0.00    +0.172 HD
ENDROOT
BRANCH  11  17
ATOM     17  C   UNL     1       4.656  -6.238   0.571  0.00  0.00    +0.053 A 
ATOM     18  C   UNL     1       4.758  -5.384   1.663  0.00  0.00    +0.026 A 
ATOM     19  C   UNL     1       5.880  -4.593   1.816  0.00  0.00    +0.002 A 
ATOM     20  C   UNL     1       6.901  -4.650   0.885  0.00  0.00    +0.001 A 
ATOM     21  C   UNL     1       6.802  -5.498  -0.203  0.00  0.00    +0.014 A 
ATOM     22  C   UNL     1       5.686  -6.296  -0.359  0.00  0.00    +0.078 A 
BRANCH  22  23
ATOM     23  C   UNL     1       5.582  -7.226  -1.541  0.00  0.00    +0.419 C 
ATOM     24  F   UNL     1       6.732  -7.107  -2.329  0.00  0.00    -0.166 F 
ATOM     25  F   UNL     1       5.460  -8.544  -1.089  0.00  0.00    -0.166 F 
ATOM     26  F   UNL     1       4.458  -6.888  -2.302  0.00  0.00    -0.166 F 
ENDBRANCH  22  23
ENDBRANCH  11  17
BRANCH   1  27
ATOM     27  C   UNL     1       0.928  -6.019  -2.604  0.00  0.00    +0.132 C 
BRANCH  27  28
ATOM     28  S   UNL     1       0.700  -4.559  -1.551  0.00  0.00    -0.091 S 
BRANCH  28  33
ATOM     29  C   UNL     1       1.564   0.447  -4.552  0.00  0.00    +0.075 C 
ATOM     30  C   UNL     1       1.388  -0.934  -3.975  0.00  0.00    +0.100 A 
ATOM     31  N   UNL     1       1.504  -2.113  -4.551  0.00  0.00    -0.146 NA
ATOM     32  N   UNL     1       1.322  -3.191  -3.921  0.00  0.00    -0.135 NA
ATOM     33  C   UNL     1       1.002  -3.201  -2.633  0.00  0.00    +0.159 A 
ATOM     34  S   UNL     1       0.971  -1.441  -2.309  0.00  0.00    -0.044 S 
ENDBRANCH  28  33
ENDBRANCH  27  28
ENDBRANCH   1  27
TORSDOF 5
