REMARK  Name = ZINC63192144
REMARK  4 active torsions:
REMARK  status: ('A' for Active; 'I' for Inactive)
REMARK    1  A    between atoms: C_1  and  C_2
REMARK    2  A    between atoms: C_2  and  C_4
REMARK    3  A    between atoms: C_2  and  N_24
REMARK    4  A    between atoms: N_10  and  C_11
REMARK                            x       y       z     vdW  Elec       q    Type
REMARK                         _______ _______ _______ _____ _____    ______ ____
ROOT
ATOM      1  C   UNL     1       1.309  -2.475  -0.276  0.00  0.00    +0.176 C 
ATOM      2  C   UNL     1       1.028  -3.957  -0.374  0.00  0.00    +0.001 A 
ATOM      3  C   UNL     1      -0.116  -4.706  -0.213  0.00  0.00    +0.025 A 
ATOM      4  C   UNL     1      -0.070  -6.080  -0.368  0.00  0.00    +0.053 A 
ATOM      5  C   UNL     1       1.130  -6.698  -0.684  0.00  0.00    +0.139 A 
ATOM      6  C   UNL     1       2.279  -5.947  -0.845  0.00  0.00    +0.063 A 
ATOM      7  C   UNL     1       2.238  -4.563  -0.691  0.00  0.00    +0.041 A 
ATOM      8  N   UNL     1       3.245  -3.603  -0.800  0.00  0.00    -0.284 N 
ATOM      9  C   UNL     1       2.788  -2.356  -0.575  0.00  0.00    +0.239 C 
ATOM     10  O   UNL     1       3.437  -1.332  -0.604  0.00  0.00    -0.273 OA
ATOM     11  F   UNL     1       1.177  -8.039  -0.835  0.00  0.00    -0.204 F 
ATOM     12 BR   UNL     1      -1.639  -7.113  -0.149  0.00  0.00    -0.047 Br
ATOM     13  H   UNL     1       4.168  -3.810  -1.015  0.00  0.00    +0.155 HD
ENDROOT
BRANCH   1  19
ATOM     14  C   UNL     1       1.190  -0.528   1.158  0.00  0.00    +0.043 C 
ATOM     15  C   UNL     1       0.738  -0.035   2.535  0.00  0.00    +0.017 C 
ATOM     16  C   UNL     1       1.569  -0.728   3.618  0.00  0.00    +0.003 C 
ATOM     17  C   UNL     1       1.408  -2.245   3.481  0.00  0.00    +0.015 C 
ATOM     18  C   UNL     1       1.841  -2.674   2.077  0.00  0.00    +0.085 C 
ATOM     19  N   UNL     1       1.016  -1.984   1.077  0.00  0.00    -0.286 NA
BRANCH  14  21
ATOM     20  C   UNL     1      -1.110  -0.294   0.211  0.00  0.00    -0.013 C 
ATOM     21  C   UNL     1       0.349   0.147   0.073  0.00  0.00    -0.061 C 
BRANCH  21  22
ATOM     22  N   UNL     1       0.435   1.606   0.223  0.00  0.00    +0.381 N 
ATOM     23  H   UNL     1      -0.027   2.052  -0.555  0.00  0.00    -0.090 HD
ATOM     24  H   UNL     1      -0.012   1.883   1.084  0.00  0.00    -0.090 HD
ATOM     25  H   UNL     1       1.405   1.885   0.244  0.00  0.00    -0.090 HD
ENDBRANCH  21  22
ENDBRANCH  14  21
ENDBRANCH   1  19
TORSDOF 3
