REMARK  Name = ZINC08917883
REMARK  3 active torsions:
REMARK  status: ('A' for Active; 'I' for Inactive)
REMARK    1  A    between atoms: C_11  and  C_15
REMARK    2  A    between atoms: C_16  and  O_31
REMARK    3  A    between atoms: N_21  and  C_24
REMARK                            x       y       z     vdW  Elec       q    Type
REMARK                         _______ _______ _______ _____ _____    ______ ____
ROOT
ATOM      1  C   UNL     1       1.392   2.786   0.489  0.00  0.00    +0.069 A 
ATOM      2  C   UNL     1       1.213   1.531  -0.013  0.00  0.00    +0.201 A 
ATOM      3  N   UNL     1       2.290   0.847  -0.519  0.00  0.00    -0.278 N 
ATOM      4  H   UNL     1       2.167  -0.044  -0.881  0.00  0.00    +0.173 HD
ATOM      5  C   UNL     1       3.514   1.405  -0.516  0.00  0.00    +0.336 A 
ATOM      6  O   UNL     1       4.457   0.784  -0.968  0.00  0.00    -0.246 OA
ATOM      7  N   UNL     1       3.712   2.640  -0.020  0.00  0.00    -0.229 N 
ATOM      8  C   UNL     1       2.681   3.346   0.486  0.00  0.00    +0.267 A 
ATOM      9  O   UNL     1       2.865   4.465   0.934  0.00  0.00    -0.267 OA
ENDROOT
BRANCH   1  20
ATOM     10  C   UNL     1      -0.825   8.846  -1.698  0.00  0.00    +0.001 A 
ATOM     11  C   UNL     1      -0.652   8.097  -2.851  0.00  0.00    +0.002 A 
ATOM     12  C   UNL     1      -0.373   6.741  -2.815  0.00  0.00    +0.026 A 
ATOM     13  C   UNL     1      -0.273   6.150  -1.557  0.00  0.00    +0.047 A 
ATOM     14  C   UNL     1      -0.451   6.923  -0.380  0.00  0.00    +0.003 A 
ATOM     15  C   UNL     1      -0.732   8.291  -0.446  0.00  0.00    +0.010 A 
ATOM     16  C   UNL     1      -0.281   6.006   0.726  0.00  0.00    -0.022 A 
ATOM     17  C   UNL     1      -0.022   4.786   0.195  0.00  0.00    +0.011 A 
ATOM     18  N   UNL     1      -0.015   4.867  -1.168  0.00  0.00    -0.359 N 
ATOM     19  H   UNL     1       0.147   4.123  -1.769  0.00  0.00    +0.166 HD
ATOM     20  C   UNL     1       0.224   3.560   1.044  0.00  0.00    +0.018 C 
ATOM     21  C   UNL     1      -0.497   4.920   2.924  0.00  0.00    -0.076 C 
ATOM     22  C   UNL     1      -0.361   6.270   2.208  0.00  0.00    +0.018 C 
ATOM     23  N   UNL     1       0.535   3.988   2.425  0.00  0.00    +0.388 N 
ATOM     24  H   UNL     1       1.448   4.458   2.435  0.00  0.00    -0.084 HD
ATOM     25  H   UNL     1       0.569   3.163   3.035  0.00  0.00    -0.084 HD
ENDBRANCH   1  20
BRANCH   7  26
ATOM     26  C   UNL     1       4.998   3.196  -0.029  0.00  0.00    +0.054 A 
ATOM     27  C   UNL     1       5.426   3.940  -1.121  0.00  0.00    +0.027 A 
ATOM     28  C   UNL     1       6.692   4.490  -1.127  0.00  0.00    +0.017 A 
ATOM     29  C   UNL     1       7.538   4.294  -0.049  0.00  0.00    +0.018 A 
ATOM     30  C   UNL     1       7.116   3.550   1.038  0.00  0.00    +0.017 A 
ATOM     31  C   UNL     1       5.848   3.001   1.050  0.00  0.00    +0.027 A 
ATOM     32 BR   UNL     1       9.274   5.043  -0.063  0.00  0.00    -0.050 Br
ENDBRANCH   7  26
BRANCH   2  33
ATOM     33  O   UNL     1      -0.014   0.969  -0.018  0.00  0.00    -0.493 OA
ATOM     34  H   UNL     1      -0.037   0.080  -0.399  0.00  0.00    +0.294 HD
ENDBRANCH   2  33
TORSDOF 3
