REMARK  Name = ZINC40982158
REMARK  14 active torsions:
REMARK  status: ('A' for Active; 'I' for Inactive)
REMARK    1  A    between atoms: C_1  and  C_2
REMARK    2  A    between atoms: C_2  and  C_3
REMARK    3  A    between atoms: C_3  and  S_4
REMARK    4  A    between atoms: S_4  and  C_5
REMARK    5  A    between atoms: C_10  and  C_27
REMARK    6  A    between atoms: C_12  and  C_16
REMARK    7  A    between atoms: C_13  and  C_15
REMARK    8  A    between atoms: N_18  and  C_19
REMARK    9  A    between atoms: C_22  and  C_26
REMARK   10  A    between atoms: C_24  and  C_25
REMARK   11  A    between atoms: C_31  and  O_33
REMARK   12  A    between atoms: O_33  and  C_34
REMARK   13  A    between atoms: C_34  and  C_35
REMARK   14  A    between atoms: C_34  and  C_36
REMARK                            x       y       z     vdW  Elec       q    Type
REMARK                         _______ _______ _______ _____ _____    ______ ____
ROOT
ATOM      1  C   UNL     1       1.837  -2.950  -2.549  0.00  0.00    +0.210 A 
ATOM      2  N   UNL     1       2.336  -2.047  -3.407  0.00  0.00    -0.187 NA
ATOM      3  C   UNL     1       2.831  -2.661  -4.447  0.00  0.00    +0.219 A 
ATOM      4  N   UNL     1       2.651  -3.994  -4.274  0.00  0.00    -0.220 N 
ATOM      5  N   UNL     1       2.017  -4.156  -3.043  0.00  0.00    -0.141 NA
ATOM      6  C   UNL     1       3.073  -4.999  -5.246  0.00  0.00    +0.177 C 
ATOM      7  C   UNL     1       3.972  -4.359  -6.270  0.00  0.00    +0.060 C 
ATOM      8  C   UNL     1       4.114  -3.031  -6.392  0.00  0.00    +0.018 C 
ATOM      9  N   UNL     1       3.452  -2.147  -5.576  0.00  0.00    -0.287 N 
ATOM     10  C   UNL     1       5.031  -2.492  -7.460  0.00  0.00    +0.061 C 
ATOM     11  H   UNL     1       3.420  -1.199  -5.782  0.00  0.00    +0.155 HD
ENDROOT
BRANCH   6  12
ATOM     12  C   UNL     1       1.861  -5.576  -5.931  0.00  0.00    -0.015 A 
ATOM     13  C   UNL     1       1.019  -4.752  -6.654  0.00  0.00    +0.006 A 
ATOM     14  C   UNL     1      -0.094  -5.278  -7.284  0.00  0.00    +0.004 A 
ATOM     15  C   UNL     1      -0.367  -6.629  -7.192  0.00  0.00    +0.045 A 
ATOM     16  C   UNL     1       0.477  -7.458  -6.467  0.00  0.00    +0.121 A 
ATOM     17  C   UNL     1       1.596  -6.928  -5.841  0.00  0.00    +0.051 A 
BRANCH  16  18
ATOM     18  O   UNL     1       0.211  -8.787  -6.375  0.00  0.00    -0.489 OA
BRANCH  18  19
ATOM     19  C   UNL     1      -0.887  -9.284  -7.144  0.00  0.00    +0.167 C 
ATOM     20  C   UNL     1      -0.679 -10.773  -7.427  0.00  0.00    +0.051 C 
ATOM     21  C   UNL     1      -2.187  -9.091  -6.359  0.00  0.00    +0.051 C 
ENDBRANCH  18  19
ENDBRANCH  16  18
ENDBRANCH   6  12
BRANCH   7  22
ATOM     22  C   UNL     1       4.702  -5.198  -7.145  0.00  0.00    +0.248 C 
ATOM     23  O   UNL     1       5.728  -5.730  -6.763  0.00  0.00    -0.270 OA
ATOM     24  N   UNL     1       4.260  -5.409  -8.401  0.00  0.00    -0.281 N 
ATOM     25  H   UNL     1       3.479  -4.935  -8.726  0.00  0.00    +0.155 HD
BRANCH  24  26
ATOM     26  C   UNL     1       4.930  -6.309  -9.236  0.00  0.00    +0.037 A 
ATOM     27  C   UNL     1       6.310  -6.440  -9.153  0.00  0.00    +0.024 A 
ATOM     28  C   UNL     1       6.968  -7.330  -9.979  0.00  0.00    +0.005 A 
ATOM     29  C   UNL     1       6.254  -8.091 -10.887  0.00  0.00    -0.050 A 
ATOM     30  C   UNL     1       4.880  -7.963 -10.972  0.00  0.00    +0.008 A 
ATOM     31  C   UNL     1       4.215  -7.078 -10.145  0.00  0.00    -0.029 A 
ATOM     32  C   UNL     1       2.717  -6.944 -10.233  0.00  0.00    +0.045 C 
ATOM     33  C   UNL     1       6.976  -9.061 -11.787  0.00  0.00    +0.044 C 
ENDBRANCH  24  26
ENDBRANCH   7  22
BRANCH   1  34
ATOM     34  S   UNL     1       1.070  -2.580  -1.006  0.00  0.00    -0.084 S 
BRANCH  34  35
ATOM     35  C   UNL     1       1.129  -0.769  -0.910  0.00  0.00    +0.077 C 
BRANCH  35  37
ATOM     36  C   UNL     1       0.537   1.220   0.482  0.00  0.00    +0.004 C 
ATOM     37  C   UNL     1       0.487  -0.307   0.400  0.00  0.00    +0.008 C 
ENDBRANCH  35  37
ENDBRANCH  34  35
ENDBRANCH   1  34
TORSDOF 8
