REMARK  Name = ZINC63746614
REMARK  8 active torsions:
REMARK  status: ('A' for Active; 'I' for Inactive)
REMARK    1  A    between atoms: C_1  and  C_2
REMARK    2  A    between atoms: C_2  and  O_3
REMARK    3  A    between atoms: O_3  and  C_4
REMARK    4  A    between atoms: C_9  and  N_10
REMARK    5  A    between atoms: N_13  and  C_14
REMARK    6  A    between atoms: C_16  and  C_38
REMARK    7  A    between atoms: C_19  and  C_32
REMARK    8  A    between atoms: C_20  and  C_24
REMARK                            x       y       z     vdW  Elec       q    Type
REMARK                         _______ _______ _______ _____ _____    ______ ____
ROOT
ATOM      1  C   UNL     1      -7.014  -1.275  -0.400  0.00  0.00    +0.059 A 
ATOM      2  C   UNL     1      -6.898  -2.630  -0.431  0.00  0.00    +0.028 A 
ATOM      3  C   UNL     1      -8.011  -3.468  -0.315  0.00  0.00    -0.048 A 
ATOM      4  C   UNL     1      -9.267  -2.988  -0.165  0.00  0.00    +0.013 A 
ATOM      5  C   UNL     1      -9.500  -1.592  -0.121  0.00  0.00    +0.006 A 
ATOM      6  C   UNL     1     -10.652  -0.838   0.020  0.00  0.00    -0.000 C 
ATOM      7  C   UNL     1     -10.202   0.606  -0.013  0.00  0.00    +0.198 C 
ATOM      8  N   UNL     1      -8.745   0.572  -0.179  0.00  0.00    -0.368 N 
ATOM      9  C   UNL     1      -8.348  -0.677  -0.234  0.00  0.00    +0.065 A 
ATOM     10  C   UNL     1      -7.804  -4.960  -0.357  0.00  0.00    +0.044 C 
ATOM     11  H   UNL     1      -8.167   1.349  -0.235  0.00  0.00    +0.161 HD
ENDROOT
BRANCH   7  12
ATOM     12  C   UNL     1     -10.562   1.292   1.280  0.00  0.00    +0.243 C 
ATOM     13  O   UNL     1      -9.770   1.309   2.198  0.00  0.00    -0.273 OA
ATOM     14  N   UNL     1     -11.765   1.885   1.416  0.00  0.00    -0.295 N 
ATOM     15  C   UNL     1     -12.789   1.771   0.365  0.00  0.00    +0.136 C 
ATOM     16  C   UNL     1     -14.102   1.325   1.017  0.00  0.00    +0.179 C 
ATOM     17  O   UNL     1     -14.407   2.197   2.108  0.00  0.00    -0.377 OA
ATOM     18  C   UNL     1     -13.440   2.176   3.161  0.00  0.00    +0.179 C 
ATOM     19  C   UNL     1     -12.095   2.661   2.622  0.00  0.00    +0.136 C 
ENDBRANCH   7  12
BRANCH   1  23
ATOM     20  N   UNL     1      -3.640  -0.042  -0.027  0.00  0.00    -0.266 N 
ATOM     21  C   UNL     1      -4.707  -0.864   0.005  0.00  0.00    +0.308 C 
ATOM     22  O   UNL     1      -4.611  -1.967   0.508  0.00  0.00    -0.252 OA
ATOM     23  N   UNL     1      -5.882  -0.463  -0.519  0.00  0.00    -0.267 N 
ATOM     24  H   UNL     1      -3.736   0.865  -0.357  0.00  0.00    +0.156 HD
ATOM     25  H   UNL     1      -5.943   0.389  -0.979  0.00  0.00    +0.156 HD
BRANCH  20  31
ATOM     26  C   UNL     1      -1.430   0.411   0.854  0.00  0.00    +0.142 A 
ATOM     27  C   UNL     1      -0.200  -0.046   1.296  0.00  0.00    +0.047 A 
ATOM     28  C   UNL     1       0.075  -1.401   1.297  0.00  0.00    +0.004 A 
ATOM     29  C   UNL     1      -0.875  -2.303   0.858  0.00  0.00    +0.002 A 
ATOM     30  C   UNL     1      -2.106  -1.856   0.415  0.00  0.00    +0.027 A 
ATOM     31  C   UNL     1      -2.391  -0.498   0.416  0.00  0.00    +0.077 A 
BRANCH  26  32
ATOM     32  O   UNL     1      -1.702   1.743   0.852  0.00  0.00    -0.490 OA
BRANCH  32  34
ATOM     33  C   UNL     1      -1.156   4.066   1.239  0.00  0.00    +0.048 C 
ATOM     34  C   UNL     1      -0.670   2.617   1.314  0.00  0.00    +0.226 C 
ENDBRANCH  32  34
ENDBRANCH  26  32
ENDBRANCH  20  31
ENDBRANCH   1  23
BRANCH   6  35
ATOM     35  C   UNL     1     -12.022  -1.334   0.169  0.00  0.00    -0.019 A 
ATOM     36  C   UNL     1     -12.957  -1.145  -0.858  0.00  0.00    +0.008 A 
ATOM     37  C   UNL     1     -14.243  -1.615  -0.709  0.00  0.00    +0.001 A 
ATOM     38  C   UNL     1     -14.613  -2.273   0.452  0.00  0.00    +0.000 A 
ATOM     39  C   UNL     1     -13.697  -2.465   1.473  0.00  0.00    +0.001 A 
ATOM     40  C   UNL     1     -12.405  -2.006   1.339  0.00  0.00    +0.008 A 
ENDBRANCH   6  35
TORSDOF 6
