REMARK  Name = ZINC52907479
REMARK  5 active torsions:
REMARK  status: ('A' for Active; 'I' for Inactive)
REMARK    1  A    between atoms: C_1  and  C_2
REMARK    2  A    between atoms: C_5  and  N_19
REMARK    3  A    between atoms: C_6  and  O_8
REMARK    4  A    between atoms: O_8  and  C_9
REMARK    5  A    between atoms: C_14  and  C_15
REMARK                            x       y       z     vdW  Elec       q    Type
REMARK                         _______ _______ _______ _____ _____    ______ ____
ROOT
ATOM      1  C   UNL     1       0.039  -1.978   3.456  0.00  0.00    +0.140 A 
ATOM      2  C   UNL     1      -0.045  -0.601   3.315  0.00  0.00    +0.047 A 
ATOM      3  C   UNL     1      -0.058   0.210   4.433  0.00  0.00    +0.005 A 
ATOM      4  C   UNL     1       0.013  -0.343   5.700  0.00  0.00    +0.021 A 
ATOM      5  C   UNL     1       0.098  -1.711   5.859  0.00  0.00    +0.055 A 
ATOM      6  C   UNL     1       0.105  -2.543   4.736  0.00  0.00    +0.073 A 
ATOM      7 CL   UNL     1       0.187  -2.397   7.451  0.00  0.00    -0.083 Cl
ENDROOT
BRANCH   6   8
ATOM      8  C   UNL     1       0.189  -4.008   4.899  0.00  0.00    +0.099 C 
ATOM      9  N   UNL     1      -0.807  -4.671   5.486  0.00  0.00    -0.387 N 
ATOM     10  N   UNL     1       1.260  -4.667   4.458  0.00  0.00    -0.344 N 
ATOM     11  H   UNL     1      -1.587  -4.191   5.806  0.00  0.00    +0.157 HD
ATOM     12  H   UNL     1       1.985  -4.185   4.031  0.00  0.00    +0.144 HD
ATOM     13  H   UNL     1       1.315  -5.630   4.564  0.00  0.00    +0.144 HD
ATOM     14  H   UNL     1      -0.753  -5.634   5.592  0.00  0.00    +0.157 HD
ENDBRANCH   6   8
BRANCH   1  15
ATOM     15  O   UNL     1       0.052  -2.776   2.358  0.00  0.00    -0.453 OA
BRANCH  15  21
ATOM     16  C   UNL     1      -4.805  -3.022   2.769  0.00  0.00    +0.044 C 
ATOM     17  C   UNL     1      -3.517  -3.433   2.103  0.00  0.00    -0.047 A 
ATOM     18  C   UNL     1      -3.538  -4.333   1.054  0.00  0.00    +0.006 A 
ATOM     19  C   UNL     1      -2.359  -4.712   0.441  0.00  0.00    +0.037 A 
ATOM     20  C   UNL     1      -1.155  -4.192   0.876  0.00  0.00    +0.168 A 
ATOM     21  C   UNL     1      -1.131  -3.288   1.929  0.00  0.00    +0.159 A 
ATOM     22  C   UNL     1      -2.317  -2.906   2.539  0.00  0.00    +0.052 A 
BRANCH  20  23
ATOM     23  N   UNL     1       0.108  -4.599   0.220  0.00  0.00    +0.060 N 
ATOM     24  O   UNL     1       0.086  -5.386  -0.697  0.00  0.00    -0.126 OA
ATOM     25  O   UNL     1       1.161  -4.143   0.601  0.00  0.00    -0.126 OA
ENDBRANCH  20  23
ENDBRANCH  15  21
ENDBRANCH   1  15
TORSDOF 4
