REMARK  Name = ZINC30500034
REMARK  11 active torsions:
REMARK  status: ('A' for Active; 'I' for Inactive)
REMARK    1  A    between atoms: C_1  and  C_2
REMARK    2  A    between atoms: C_2  and  C_3
REMARK    3  A    between atoms: N_5  and  C_6
REMARK    4  A    between atoms: C_9  and  C_12
REMARK    5  A    between atoms: C_12  and  C_14
REMARK    6  A    between atoms: C_12  and  N_15
REMARK    7  A    between atoms: N_15  and  C_16
REMARK    8  A    between atoms: C_16  and  C_18
REMARK    9  A    between atoms: C_16  and  C_19
REMARK   10  A    between atoms: N_21  and  C_22
REMARK   11  A    between atoms: C_27  and  C_28
REMARK                            x       y       z     vdW  Elec       q    Type
REMARK                         _______ _______ _______ _____ _____    ______ ____
ROOT
ATOM      1  N   UNL     1       0.022  -1.066  -5.790  0.00  0.00    +0.391 N 
ATOM      2  H   UNL     1      -0.518  -1.959  -5.442  0.00  0.00    -0.084 HD
ATOM      3  H   UNL     1       1.071  -1.328  -5.991  0.00  0.00    -0.084 HD
ENDROOT
BRANCH   1   4
ATOM      4  C   UNL     1      -0.602  -0.566  -7.022  0.00  0.00    -0.043 C 
ATOM      5  C   UNL     1       0.457   0.117  -7.890  0.00  0.00    -0.009 C 
BRANCH   4   9
ATOM      6  C   UNL     1      -2.318  -3.832  -9.179  0.00  0.00    +0.033 A 
ATOM      7  C   UNL     1      -2.989  -2.619  -9.104  0.00  0.00    +0.023 A 
ATOM      8  C   UNL     1      -2.432  -1.565  -8.406  0.00  0.00    +0.004 A 
ATOM      9  C   UNL     1      -1.208  -1.718  -7.782  0.00  0.00    -0.062 A 
ATOM     10  C   UNL     1      -0.534  -2.923  -7.859  0.00  0.00    +0.004 A 
ATOM     11  C   UNL     1      -1.089  -3.982  -8.551  0.00  0.00    +0.023 A 
BRANCH   6  14
ATOM     12  C   UNL     1      -3.600  -4.669 -11.001  0.00  0.00    +0.217 C 
ATOM     13  O   UNL     1      -3.682  -3.544 -11.445  0.00  0.00    -0.275 OA
ATOM     14  N   UNL     1      -2.880  -4.902  -9.885  0.00  0.00    -0.286 N 
ATOM     15  H   UNL     1      -2.734  -5.933  -9.530  0.00  0.00    +0.155 HD
BRANCH  12  17
ATOM     16  C   UNL     1      -5.043  -5.275 -12.924  0.00  0.00    +0.013 C 
ATOM     17  C   UNL     1      -4.303  -5.807 -11.694  0.00  0.00    +0.093 C 
ENDBRANCH  12  17
ENDBRANCH   6  14
ENDBRANCH   4   9
ENDBRANCH   1   4
BRANCH   1  18
ATOM     18  C   UNL     1      -0.015  -0.050  -4.731  0.00  0.00    +0.014 C 
ATOM     19  C   UNL     1       1.042  -0.375  -3.674  0.00  0.00    -0.004 C 
BRANCH  18  20
ATOM     20  C   UNL     1      -1.379  -0.041  -4.090  0.00  0.00    +0.203 C 
ATOM     21  O   UNL     1      -2.236  -0.806  -4.479  0.00  0.00    -0.277 OA
ATOM     22  N   UNL     1      -1.647   0.818  -3.087  0.00  0.00    -0.287 N 
ATOM     23  H   UNL     1      -0.903   1.573  -2.796  0.00  0.00    +0.155 HD
BRANCH  22  24
ATOM     24  C   UNL     1      -2.872   0.747  -2.414  0.00  0.00    +0.038 A 
ATOM     25  C   UNL     1      -3.582  -0.446  -2.385  0.00  0.00    +0.043 A 
ATOM     26  C   UNL     1      -4.795  -0.511  -1.724  0.00  0.00    +0.043 A 
ATOM     27  C   UNL     1      -5.298   0.611  -1.088  0.00  0.00    +0.020 A 
ATOM     28  C   UNL     1      -4.590   1.798  -1.111  0.00  0.00    +0.006 A 
ATOM     29  C   UNL     1      -3.378   1.869  -1.770  0.00  0.00    -0.029 A 
ATOM     30  C   UNL     1      -2.607   3.164  -1.795  0.00  0.00    +0.045 C 
ATOM     31 CL   UNL     1      -5.686  -2.000  -1.692  0.00  0.00    -0.083 Cl
ENDBRANCH  22  24
ENDBRANCH  18  20
ENDBRANCH   1  18
TORSDOF 7
