REMARK  Name = ZINC39944417
REMARK  9 active torsions:
REMARK  status: ('A' for Active; 'I' for Inactive)
REMARK    1  A    between atoms: C_1  and  C_2
REMARK    2  A    between atoms: C_2  and  C_3
REMARK    3  A    between atoms: C_2  and  C_4
REMARK    4  A    between atoms: C_7  and  N_10
REMARK    5  A    between atoms: C_14  and  S_16
REMARK    6  A    between atoms: S_16  and  C_17
REMARK    7  A    between atoms: C_17  and  C_18
REMARK    8  A    between atoms: C_18  and  C_20
REMARK    9  A    between atoms: C_28  and  C_30
REMARK                            x       y       z     vdW  Elec       q    Type
REMARK                         _______ _______ _______ _____ _____    ______ ____
ROOT
ATOM      1  C   UNL     1      -7.193  -5.411  -5.408  0.00  0.00    +0.155 C 
ENDROOT
BRANCH   1   2
ATOM      2  C   UNL     1      -8.023  -6.176  -6.407  0.00  0.00    +0.172 C 
ATOM      3  O   UNL     1      -9.200  -6.380  -6.189  0.00  0.00    -0.291 OA
BRANCH   2   4
ATOM      4  C   UNL     1      -7.432  -6.654  -7.596  0.00  0.00    +0.031 C 
ATOM      5  C   UNL     1      -6.114  -6.512  -7.991  0.00  0.00    +0.007 A 
ATOM      6  C   UNL     1      -4.992  -5.892  -7.394  0.00  0.00    +0.010 A 
ATOM      7  C   UNL     1      -3.793  -5.905  -8.019  0.00  0.00    +0.001 A 
ATOM      8  C   UNL     1      -3.600  -6.520  -9.266  0.00  0.00    +0.002 A 
ATOM      9  C   UNL     1      -4.606  -7.140  -9.921  0.00  0.00    +0.026 A 
ATOM     10  C   UNL     1      -5.945  -7.172  -9.309  0.00  0.00    +0.044 A 
ATOM     11  N   UNL     1      -7.072  -7.688  -9.710  0.00  0.00    -0.373 N 
ATOM     12  C   UNL     1      -8.107  -7.433  -8.704  0.00  0.00    +0.144 C 
ATOM     13  H   UNL     1      -7.204  -8.168 -10.542  0.00  0.00    +0.161 HD
BRANCH  12  14
ATOM     14  C   UNL     1      -9.223  -6.619  -9.306  0.00  0.00    -0.021 A 
ATOM     15  C   UNL     1      -8.938  -5.638 -10.236  0.00  0.00    +0.006 A 
ATOM     16  C   UNL     1      -9.962  -4.891 -10.789  0.00  0.00    +0.000 A 
ATOM     17  C   UNL     1     -11.270  -5.126 -10.411  0.00  0.00    +0.000 A 
ATOM     18  C   UNL     1     -11.556  -6.108  -9.481  0.00  0.00    +0.000 A 
ATOM     19  C   UNL     1     -10.532  -6.858  -8.932  0.00  0.00    +0.006 A 
ENDBRANCH  12  14
ENDBRANCH   2   4
ENDBRANCH   1   2
BRANCH   1  20
ATOM     20  S   UNL     1      -8.230  -4.937  -3.997  0.00  0.00    -0.089 S 
BRANCH  20  25
ATOM     21  N   UNL     1      -5.318  -1.968   0.043  0.00  0.00    -0.292 N 
ATOM     22  C   UNL     1      -5.803  -2.685  -1.045  0.00  0.00    +0.187 A 
ATOM     23  N   UNL     1      -5.168  -3.093  -2.127  0.00  0.00    -0.125 NA
ATOM     24  N   UNL     1      -5.847  -3.798  -3.094  0.00  0.00    -0.133 NA
ATOM     25  C   UNL     1      -7.129  -4.064  -2.934  0.00  0.00    +0.160 A 
ATOM     26  S   UNL     1      -7.450  -3.308  -1.348  0.00  0.00    -0.024 S 
ATOM     27  H   UNL     1      -5.887  -1.810   0.812  0.00  0.00    +0.154 HD
BRANCH  21  31
ATOM     28  C   UNL     1      -1.423  -0.496  -0.001  0.00  0.00    -0.045 A 
ATOM     29  C   UNL     1      -2.083  -0.737  -1.192  0.00  0.00    +0.006 A 
ATOM     30  C   UNL     1      -3.375  -1.225  -1.181  0.00  0.00    +0.023 A 
ATOM     31  C   UNL     1      -4.011  -1.475   0.028  0.00  0.00    +0.033 A 
ATOM     32  C   UNL     1      -3.345  -1.232   1.223  0.00  0.00    +0.023 A 
ATOM     33  C   UNL     1      -2.051  -0.749   1.205  0.00  0.00    +0.006 A 
BRANCH  28  35
ATOM     34  C   UNL     1       0.895  -0.946  -0.758  0.00  0.00    +0.012 C 
ATOM     35  C   UNL     1      -0.013   0.037  -0.017  0.00  0.00    +0.013 C 
ATOM     36  C   UNL     1       0.012   1.391  -0.729  0.00  0.00    +0.012 C 
ENDBRANCH  28  35
ENDBRANCH  21  31
ENDBRANCH  20  25
ENDBRANCH   1  20
TORSDOF 7
