REMARK  Name = ZINC04171175
REMARK  5 active torsions:
REMARK  status: ('A' for Active; 'I' for Inactive)
REMARK    1  A    between atoms: C_4  and  C_26
REMARK    2  A    between atoms: C_5  and  C_7
REMARK    3  A    between atoms: C_10  and  C_21
REMARK    4  A    between atoms: C_16  and  N_20
REMARK    5  A    between atoms: C_17  and  C_18
REMARK                            x       y       z     vdW  Elec       q    Type
REMARK                         _______ _______ _______ _____ _____    ______ ____
ROOT
ATOM      1  C   UNL     1       1.222  -2.185  -0.133  0.00  0.00    +0.102 C 
ATOM      2  C   UNL     1       0.625  -2.643  -1.438  0.00  0.00    +0.055 A 
ATOM      3  C   UNL     1       1.158  -2.570  -2.730  0.00  0.00    +0.107 A 
ATOM      4  N   UNL     1       0.277  -3.096  -3.563  0.00  0.00    -0.170 NA
ATOM      5  N   UNL     1      -0.837  -3.515  -2.820  0.00  0.00    -0.246 N 
ATOM      6  H   UNL     1      -1.635  -3.936  -3.177  0.00  0.00    +0.192 HD
ATOM      7  C   UNL     1      -0.605  -3.230  -1.521  0.00  0.00    +0.223 A 
ATOM      8  O   UNL     1      -1.386  -3.450  -0.434  0.00  0.00    -0.423 OA
ATOM      9  C   UNL     1      -0.815  -3.327   0.781  0.00  0.00    +0.200 C 
ATOM     10  C   UNL     1       0.392  -2.754   0.991  0.00  0.00    +0.098 C 
ENDROOT
BRANCH   1  15
ATOM     11  C   UNL     1       0.144   1.407  -0.573  0.00  0.00    +0.000 A 
ATOM     12  C   UNL     1       1.169   2.093   0.054  0.00  0.00    +0.001 A 
ATOM     13  C   UNL     1       2.218   1.402   0.624  0.00  0.00    +0.015 A 
ATOM     14  C   UNL     1       2.243   0.006   0.568  0.00  0.00    +0.067 A 
ATOM     15  C   UNL     1       1.204  -0.679  -0.066  0.00  0.00    -0.020 A 
ATOM     16  C   UNL     1       0.162   0.025  -0.632  0.00  0.00    +0.005 A 
BRANCH  14  17
ATOM     17  C   UNL     1       3.361  -0.741   1.175  0.00  0.00    +0.387 C 
ATOM     18  O   UNL     1       4.332  -0.139   1.612  0.00  0.00    -0.241 OA
ATOM     19  O   UNL     1       3.317  -1.961   1.241  0.00  0.00    -0.241 OA
ENDBRANCH  14  17
ENDBRANCH   1  15
BRANCH   3  20
ATOM     20  C   UNL     1       2.475  -2.006  -3.098  0.00  0.00    +0.040 A 
ATOM     21  C   UNL     1       3.342  -2.407  -4.077  0.00  0.00    +0.018 A 
ATOM     22  C   UNL     1       4.526  -1.720  -4.237  0.00  0.00    +0.008 A 
ATOM     23  C   UNL     1       4.796  -0.669  -3.421  0.00  0.00    +0.046 A 
ATOM     24  S   UNL     1       3.343  -0.618  -2.384  0.00  0.00    -0.095 S 
ENDBRANCH   3  20
BRANCH   9  25
ATOM     25  N   UNL     1      -1.498  -3.811   1.869  0.00  0.00    -0.328 N 
ATOM     26  H   UNL     1      -2.366  -4.228   1.750  0.00  0.00    +0.145 HD
ATOM     27  H   UNL     1      -1.113  -3.737   2.756  0.00  0.00    +0.145 HD
ENDBRANCH   9  25
BRANCH  10  28
ATOM     28  C   UNL     1       0.901  -2.684   2.328  0.00  0.00    +0.101 C 
ATOM     29  N   UNL     1       1.305  -2.629   3.388  0.00  0.00    -0.191 NA
ENDBRANCH  10  28
TORSDOF 5
