REMARK  Name = ZINC36637442
REMARK  11 active torsions:
REMARK  status: ('A' for Active; 'I' for Inactive)
REMARK    1  A    between atoms: C_1  and  C_2
REMARK    2  A    between atoms: C_2  and  O_3
REMARK    3  A    between atoms: O_3  and  C_4
REMARK    4  A    between atoms: N_13  and  C_14
REMARK    5  A    between atoms: C_14  and  C_15
REMARK    6  A    between atoms: C_15  and  N_16
REMARK    7  A    between atoms: N_16  and  C_17
REMARK    8  A    between atoms: N_16  and  C_18
REMARK    9  A    between atoms: C_19  and  C_21
REMARK   10  A    between atoms: C_24  and  S_27
REMARK   11  A    between atoms: S_27  and  N_30
REMARK                            x       y       z     vdW  Elec       q    Type
REMARK                         _______ _______ _______ _____ _____    ______ ____
ROOT
ATOM      1  C   UNL     1      -1.652  -2.325   0.332  0.00  0.00    +0.147 A 
ATOM      2  C   UNL     1      -0.636  -3.245   0.225  0.00  0.00    +0.048 A 
ATOM      3  C   UNL     1      -0.876  -4.541  -0.208  0.00  0.00    +0.005 A 
ATOM      4  C   UNL     1      -2.164  -4.918  -0.538  0.00  0.00    +0.017 A 
ATOM      5  C   UNL     1      -3.187  -4.007  -0.434  0.00  0.00    +0.044 A 
ATOM      6  C   UNL     1      -2.985  -2.680   0.006  0.00  0.00    +0.122 A 
ATOM      7  N   UNL     1      -4.092  -1.906   0.060  0.00  0.00    -0.221 NA
ATOM      8  C   UNL     1      -5.281  -2.352  -0.270  0.00  0.00    +0.168 A 
ATOM      9  S   UNL     1      -4.937  -4.042  -0.740  0.00  0.00    -0.052 S 
ATOM     10  N   UNL     1      -6.493  -1.681  -0.265  0.00  0.00    -0.248 N 
ATOM     11  C   UNL     1      -6.546  -0.390   0.118  0.00  0.00    +0.252 C 
ATOM     12  O   UNL     1      -5.524   0.203   0.401  0.00  0.00    -0.270 OA
ENDROOT
BRANCH  11  13
ATOM     13  C   UNL     1      -7.849   0.305   0.194  0.00  0.00    +0.037 A 
ATOM     14  C   UNL     1      -9.025  -0.427   0.368  0.00  0.00    +0.015 A 
ATOM     15  C   UNL     1     -10.237   0.228   0.438  0.00  0.00    +0.029 A 
ATOM     16  C   UNL     1     -10.289   1.606   0.336  0.00  0.00    +0.106 A 
ATOM     17  C   UNL     1      -9.127   2.338   0.163  0.00  0.00    +0.029 A 
ATOM     18  C   UNL     1      -7.908   1.696   0.097  0.00  0.00    +0.015 A 
BRANCH  16  19
ATOM     19  S   UNL     1     -11.842   2.435   0.426  0.00  0.00    +0.061 S 
ATOM     20  O   UNL     1     -11.678   3.678  -0.242  0.00  0.00    -0.153 OA
ATOM     21  O   UNL     1     -12.830   1.488   0.043  0.00  0.00    -0.153 OA
BRANCH  19  22
ATOM     22  N   UNL     1     -12.117   2.787   2.021  0.00  0.00    -0.177 NA
ATOM     23  C   UNL     1     -12.820   1.832   2.888  0.00  0.00    +0.109 C 
ATOM     24  C   UNL     1     -11.959   1.562   4.126  0.00  0.00    +0.017 C 
ATOM     25  C   UNL     1     -11.616   2.892   4.803  0.00  0.00    +0.003 C 
ATOM     26  C   UNL     1     -10.814   3.766   3.837  0.00  0.00    +0.017 C 
ATOM     27  C   UNL     1     -11.656   4.058   2.597  0.00  0.00    +0.109 C 
ENDBRANCH  19  22
ENDBRANCH  16  19
ENDBRANCH  11  13
BRANCH   1  28
ATOM     28  O   UNL     1      -1.376  -1.065   0.760  0.00  0.00    -0.490 OA
BRANCH  28  30
ATOM     29  C   UNL     1       0.100   0.685   1.533  0.00  0.00    +0.048 C 
ATOM     30  C   UNL     1      -0.013  -0.769   1.073  0.00  0.00    +0.226 C 
ENDBRANCH  28  30
ENDBRANCH   1  28
BRANCH  10  31
ATOM     31  C   UNL     1      -7.716  -2.375  -0.676  0.00  0.00    +0.097 C 
BRANCH  31  32
ATOM     32  C   UNL     1      -8.138  -3.357   0.419  0.00  0.00    -0.060 C 
BRANCH  32  33
ATOM     33  N   UNL     1      -9.286  -4.146  -0.047  0.00  0.00    +0.377 N 
ATOM     34  C   UNL     1      -9.600  -5.185   0.944  0.00  0.00    -0.097 C 
ATOM     35  C   UNL     1     -10.448  -3.265  -0.218  0.00  0.00    -0.097 C 
ATOM     36  H   UNL     1      -9.059  -4.580  -0.929  0.00  0.00    -0.083 HD
ENDBRANCH  32  33
ENDBRANCH  31  32
ENDBRANCH  10  31
TORSDOF 8
