REMARK  Name = ZINC03345533
REMARK  10 active torsions:
REMARK  status: ('A' for Active; 'I' for Inactive)
REMARK    1  A    between atoms: C_1  and  C_2
REMARK    2  A    between atoms: C_2  and  C_4
REMARK    3  A    between atoms: C_2  and  N_45
REMARK    4  A    between atoms: N_6  and  C_7
REMARK    5  A    between atoms: C_12  and  O_13
REMARK    6  A    between atoms: O_13  and  C_14
REMARK    7  A    between atoms: C_15  and  C_16
REMARK    8  A    between atoms: C_15  and  N_45
REMARK    9  A    between atoms: C_19  and  S_22
REMARK   10  A    between atoms: S_22  and  N_25
REMARK                            x       y       z     vdW  Elec       q    Type
REMARK                         _______ _______ _______ _____ _____    ______ ____
ROOT
ATOM      1  N   UNL     1      -0.752   1.984  -1.175  0.00  0.00    +0.389 N 
ATOM      2  H   UNL     1      -1.760   1.990  -0.983  0.00  0.00    -0.084 HD
ATOM      3  H   UNL     1      -0.557   1.356  -1.964  0.00  0.00    -0.084 HD
ENDROOT
BRANCH   1   5
ATOM      4  C   UNL     1      -0.753   1.986   1.279  0.00  0.00    -0.004 C 
ATOM      5  C   UNL     1      -0.032   1.503   0.019  0.00  0.00    +0.014 C 
BRANCH   5   6
ATOM      6  C   UNL     1      -0.001  -0.004   0.004  0.00  0.00    +0.203 C 
ATOM      7  O   UNL     1      -0.521  -0.612  -0.907  0.00  0.00    -0.277 OA
ATOM      8  N   UNL     1       0.604  -0.675   1.004  0.00  0.00    -0.284 N 
ATOM      9  H   UNL     1       1.089  -0.191   1.690  0.00  0.00    +0.155 HD
BRANCH   8  10
ATOM     10  C   UNL     1       0.533  -2.074   1.052  0.00  0.00    +0.076 A 
ATOM     11  C   UNL     1      -0.519  -2.738   0.440  0.00  0.00    +0.027 A 
ATOM     12  C   UNL     1      -0.585  -4.118   0.484  0.00  0.00    +0.002 A 
ATOM     13  C   UNL     1       0.392  -4.839   1.146  0.00  0.00    +0.004 A 
ATOM     14  C   UNL     1       1.442  -4.183   1.763  0.00  0.00    +0.047 A 
ATOM     15  C   UNL     1       1.517  -2.801   1.719  0.00  0.00    +0.141 A 
BRANCH  15  16
ATOM     16  O   UNL     1       2.548  -2.155   2.326  0.00  0.00    -0.493 OA
ATOM     17  C   UNL     1       3.519  -2.964   2.991  0.00  0.00    +0.277 C 
ENDBRANCH  15  16
ENDBRANCH   8  10
ENDBRANCH   5   6
ENDBRANCH   1   5
BRANCH   1  18
ATOM     18  C   UNL     1      -0.314   3.350  -1.521  0.00  0.00    -0.046 C 
BRANCH  18  19
ATOM     19  C   UNL     1      -1.064   3.814  -2.743  0.00  0.00    -0.064 A 
ATOM     20  C   UNL     1      -0.547   3.580  -4.003  0.00  0.00    +0.003 A 
ATOM     21  C   UNL     1      -1.237   4.002  -5.123  0.00  0.00    +0.029 A 
ATOM     22  C   UNL     1      -2.441   4.667  -4.983  0.00  0.00    +0.105 A 
ATOM     23  C   UNL     1      -2.956   4.906  -3.723  0.00  0.00    +0.029 A 
ATOM     24  C   UNL     1      -2.268   4.480  -2.603  0.00  0.00    +0.003 A 
BRANCH  22  25
ATOM     25  S   UNL     1      -3.319   5.209  -6.412  0.00  0.00    +0.056 S 
ATOM     26  O   UNL     1      -2.895   4.383  -7.487  0.00  0.00    -0.153 OA
ATOM     27  O   UNL     1      -4.684   5.323  -6.030  0.00  0.00    -0.153 OA
BRANCH  25  28
ATOM     28  N   UNL     1      -2.795   6.742  -6.756  0.00  0.00    -0.204 NA
ATOM     29  H   UNL     1      -2.120   7.160  -6.199  0.00  0.00    +0.144 HD
ATOM     30  H   UNL     1      -3.162   7.220  -7.516  0.00  0.00    +0.144 HD
ENDBRANCH  25  28
ENDBRANCH  22  25
ENDBRANCH  18  19
ENDBRANCH   1  18
TORSDOF 8
