REMARK  Name = ZINC31166824
REMARK  10 active torsions:
REMARK  status: ('A' for Active; 'I' for Inactive)
REMARK    1  A    between atoms: C_1  and  C_2
REMARK    2  A    between atoms: C_6  and  O_19
REMARK    3  A    between atoms: C_8  and  O_18
REMARK    4  A    between atoms: C_15  and  C_17
REMARK    5  A    between atoms: O_19  and  C_20
REMARK    6  A    between atoms: C_22  and  O_35
REMARK    7  A    between atoms: C_24  and  O_34
REMARK    8  A    between atoms: C_26  and  O_33
REMARK    9  A    between atoms: C_28  and  C_31
REMARK   10  A    between atoms: C_31  and  O_32
REMARK                            x       y       z     vdW  Elec       q    Type
REMARK                         _______ _______ _______ _____ _____    ______ ____
ROOT
ATOM      1  C   UNL     1      -1.184   6.464   0.049  0.00  0.00    +0.044 C 
ATOM      2  C   UNL     1       0.096   5.668   0.033  0.00  0.00    -0.036 A 
ATOM      3  C   UNL     1       1.277   6.292   0.263  0.00  0.00    +0.013 A 
ATOM      4  C   UNL     1       2.483   5.560   0.251  0.00  0.00    -0.007 A 
ATOM      5  C   UNL     1       3.710   6.197   0.488  0.00  0.00    +0.054 A 
ATOM      6  C   UNL     1       4.878   5.466   0.472  0.00  0.00    +0.128 A 
ATOM      7  C   UNL     1       4.858   4.094   0.221  0.00  0.00    +0.091 A 
ATOM      8  C   UNL     1       3.668   3.442  -0.015  0.00  0.00    +0.132 A 
ATOM      9  C   UNL     1       2.461   4.167  -0.004  0.00  0.00    +0.067 A 
ATOM     10  C   UNL     1       1.228   3.528  -0.243  0.00  0.00    +0.150 A 
ATOM     11  C   UNL     1       0.054   4.287  -0.223  0.00  0.00    +0.068 A 
ATOM     12  C   UNL     1      -1.224   3.599  -0.475  0.00  0.00    +0.193 A 
ATOM     13  O   UNL     1      -2.283   4.205  -0.470  0.00  0.00    -0.287 OA
ATOM     14  C   UNL     1      -1.173   2.203  -0.728  0.00  0.00    +0.093 A 
ATOM     15  C   UNL     1       0.014   1.570  -0.718  0.00  0.00    +0.106 A 
ATOM     16  O   UNL     1       1.168   2.206  -0.488  0.00  0.00    -0.459 OA
ATOM     17  C   UNL     1       0.046   0.087  -0.984  0.00  0.00    +0.086 C 
ENDROOT
BRANCH   8  18
ATOM     18  O   UNL     1       3.659   2.106  -0.257  0.00  0.00    -0.506 OA
ATOM     19  H   UNL     1       2.708   1.588  -0.446  0.00  0.00    +0.292 HD
ENDBRANCH   8  18
BRANCH   6  20
ATOM     20  O   UNL     1       6.063   6.089   0.704  0.00  0.00    -0.461 OA
BRANCH  20  21
ATOM     21  C   UNL     1       7.239   5.278   0.674  0.00  0.00    +0.339 C 
ATOM     22  C   UNL     1       8.476   6.166   0.830  0.00  0.00    +0.214 C 
ATOM     23  C   UNL     1       9.728   5.284   0.858  0.00  0.00    +0.180 C 
ATOM     24  C   UNL     1       9.597   4.265   1.994  0.00  0.00    +0.177 C 
ATOM     25  C   UNL     1       8.316   3.450   1.793  0.00  0.00    +0.179 C 
ATOM     26  O   UNL     1       7.194   4.334   1.746  0.00  0.00    -0.331 OA
BRANCH  24  27
ATOM     27  O   UNL     1      10.727   3.391   1.985  0.00  0.00    -0.386 OA
ATOM     28  H   UNL     1      10.808   2.589   2.733  0.00  0.00    +0.210 HD
ENDBRANCH  24  27
BRANCH  23  29
ATOM     29  O   UNL     1       9.857   4.598  -0.389  0.00  0.00    -0.386 OA
ATOM     30  H   UNL     1      10.702   3.914  -0.556  0.00  0.00    +0.210 HD
ENDBRANCH  23  29
BRANCH  22  31
ATOM     31  O   UNL     1       8.384   6.903   2.051  0.00  0.00    -0.383 OA
ATOM     32  H   UNL     1       9.187   7.599   2.335  0.00  0.00    +0.210 HD
ENDBRANCH  22  31
BRANCH  25  33
ATOM     33  C   UNL     1       8.147   2.471   2.956  0.00  0.00    +0.190 C 
BRANCH  33  34
ATOM     34  O   UNL     1       7.017   1.632   2.712  0.00  0.00    -0.392 OA
ATOM     35  H   UNL     1       6.736   0.860   3.443  0.00  0.00    +0.210 HD
ENDBRANCH  33  34
ENDBRANCH  25  33
ENDBRANCH  20  21
ENDBRANCH   6  20
TORSDOF 8
