REMARK  Name = ZINC39007670
REMARK  6 active torsions:
REMARK  status: ('A' for Active; 'I' for Inactive)
REMARK    1  A    between atoms: C_6  and  C_7
REMARK    2  A    between atoms: C_9  and  C_13
REMARK    3  A    between atoms: C_17  and  S_21
REMARK    4  A    between atoms: N_19  and  N_20
REMARK    5  A    between atoms: S_21  and  C_22
REMARK    6  A    between atoms: C_22  and  C_23
REMARK                            x       y       z     vdW  Elec       q    Type
REMARK                         _______ _______ _______ _____ _____    ______ ____
ROOT
ATOM      1  C   UNL     1      -3.263  -3.141   1.279  0.00  0.00    +0.185 C 
ATOM      2  N   UNL     1      -2.542  -4.438   1.358  0.00  0.00    -0.234 NA
ATOM      3  N   UNL     1      -3.396  -5.283   2.198  0.00  0.00    -0.228 NA
ATOM      4  C   UNL     1      -4.764  -4.735   2.105  0.00  0.00    +0.214 C 
ATOM      5  N   UNL     1      -4.689  -3.556   1.208  0.00  0.00    -0.197 NA
ATOM      6  H   UNL     1      -1.630  -4.320   1.773  0.00  0.00    +0.143 HD
ATOM      7  H   UNL     1      -3.369  -6.243   1.890  0.00  0.00    +0.143 HD
ENDROOT
BRANCH   1  10
ATOM      8  C   UNL     1      -1.271  -0.765   0.011  0.00  0.00    +0.091 C 
ATOM      9  C   UNL     1      -1.363  -2.109   0.010  0.00  0.00    +0.034 C 
ATOM     10  C   UNL     1      -2.859  -2.372   0.020  0.00  0.00    +0.187 C 
ATOM     11  N   UNL     1      -3.437  -1.018   0.026  0.00  0.00    -0.176 NA
ATOM     12  N   UNL     1      -2.509  -0.205   0.026  0.00  0.00    -0.154 NA
BRANCH   8  18
ATOM     13  C   UNL     1      -0.017   1.389   0.010  0.00  0.00    +0.013 A 
ATOM     14  C   UNL     1       1.170   2.094   0.002  0.00  0.00    +0.039 A 
ATOM     15  C   UNL     1       2.379   1.417  -0.013  0.00  0.00    +0.123 A 
ATOM     16  C   UNL     1       2.402   0.032  -0.022  0.00  0.00    +0.039 A 
ATOM     17  C   UNL     1       1.221  -0.680  -0.014  0.00  0.00    +0.013 A 
ATOM     18  C   UNL     1       0.002  -0.004   0.002  0.00  0.00    +0.002 A 
ATOM     19  F   UNL     1       3.538   2.110  -0.021  0.00  0.00    -0.205 F 
ENDBRANCH   8  18
ENDBRANCH   1  10
BRANCH   5  20
ATOM     20  N   UNL     1      -5.565  -2.490   1.667  0.00  0.00    -0.264 NA
ATOM     21  H   UNL     1      -6.533  -2.772   1.619  0.00  0.00    +0.137 HD
ATOM     22  H   UNL     1      -5.320  -2.198   2.602  0.00  0.00    +0.137 HD
ENDBRANCH   5  20
BRANCH   4  23
ATOM     23  S   UNL     1      -5.886  -5.979   1.410  0.00  0.00    -0.115 S 
BRANCH  23  24
ATOM     24  C   UNL     1      -5.163  -6.368  -0.208  0.00  0.00    +0.168 C 
BRANCH  24  25
ATOM     25  C   UNL     1      -6.010  -7.404  -0.901  0.00  0.00    +0.229 C 
ATOM     26  O   UNL     1      -7.003  -7.838  -0.357  0.00  0.00    -0.275 OA
ATOM     27  N   UNL     1      -5.663  -7.849  -2.125  0.00  0.00    -0.264 N 
ATOM     28  C   UNL     1      -6.444  -8.805  -2.764  0.00  0.00    +0.164 A 
ATOM     29  N   UNL     1      -7.547  -9.379  -2.335  0.00  0.00    -0.233 NA
ATOM     30  C   UNL     1      -8.178 -10.277  -3.068  0.00  0.00    +0.120 A 
ATOM     31  C   UNL     1      -7.638 -10.577  -4.276  0.00  0.00    +0.068 A 
ATOM     32  S   UNL     1      -6.212  -9.503  -4.278  0.00  0.00    -0.061 S 
ATOM     33  H   UNL     1      -4.868  -7.502  -2.560  0.00  0.00    +0.157 HD
ENDBRANCH  24  25
ENDBRANCH  23  24
ENDBRANCH   4  23
TORSDOF 6
