REMARK  Name = ZINC28348158
REMARK  6 active torsions:
REMARK  status: ('A' for Active; 'I' for Inactive)
REMARK    1  A    between atoms: C_3  and  S_25
REMARK    2  A    between atoms: C_4  and  C_21
REMARK    3  A    between atoms: C_6  and  C_7
REMARK    4  A    between atoms: C_16  and  C_19
REMARK    5  A    between atoms: C_19  and  O_20
REMARK    6  A    between atoms: S_25  and  C_26
REMARK                            x       y       z     vdW  Elec       q    Type
REMARK                         _______ _______ _______ _____ _____    ______ ____
ROOT
ATOM      1  C   UNL     1       1.766  -4.215   0.201  0.00  0.00    +0.009 A 
ATOM      2  C   UNL     1       2.130  -2.890   0.093  0.00  0.00    +0.016 A 
ATOM      3  C   UNL     1       3.474  -2.534   0.093  0.00  0.00    +0.024 A 
ATOM      4  C   UNL     1       4.455  -3.514   0.213  0.00  0.00    +0.069 A 
ATOM      5  C   UNL     1       4.096  -4.839   0.327  0.00  0.00    +0.022 A 
ATOM      6  C   UNL     1       2.748  -5.198   0.321  0.00  0.00    -0.017 A 
ENDROOT
BRANCH   6   7
ATOM      7  C   UNL     1       2.359  -6.624   0.443  0.00  0.00    -0.013 A 
ATOM      8  C   UNL     1       3.330  -7.626   0.558  0.00  0.00    +0.026 A 
ATOM      9  C   UNL     1       2.930  -8.939   0.673  0.00  0.00    +0.085 A 
ATOM     10  N   UNL     1       1.650  -9.263   0.667  0.00  0.00    -0.350 N 
ATOM     11  C   UNL     1       0.697  -8.349   0.555  0.00  0.00    +0.099 A 
ATOM     12  C   UNL     1       1.016  -7.002   0.439  0.00  0.00    +0.050 A 
ATOM     13  N   UNL     1      -0.636  -8.743   0.553  0.00  0.00    -0.317 N 
ATOM     14  C   UNL     1      -1.390  -8.051   1.607  0.00  0.00    +0.107 C 
ATOM     15  C   UNL     1      -2.876  -8.396   1.484  0.00  0.00    +0.025 C 
ATOM     16  C   UNL     1      -3.055  -9.912   1.612  0.00  0.00    +0.017 C 
ATOM     17  C   UNL     1      -2.222 -10.610   0.534  0.00  0.00    +0.025 C 
ATOM     18  C   UNL     1      -0.755 -10.200   0.685  0.00  0.00    +0.107 C 
ATOM     19  H   UNL     1       1.348 -10.317   0.756  0.00  0.00    +0.166 HD
BRANCH  16  20
ATOM     20  C   UNL     1      -4.532 -10.270   1.430  0.00  0.00    +0.159 C 
BRANCH  20  21
ATOM     21  O   UNL     1      -5.293  -9.714   2.503  0.00  0.00    -0.395 OA
ATOM     22  H   UNL     1      -6.382  -9.868   2.543  0.00  0.00    +0.209 HD
ENDBRANCH  20  21
ENDBRANCH  16  20
ENDBRANCH   6   7
BRANCH   4  23
ATOM     23  C   UNL     1       5.911  -3.126   0.218  0.00  0.00    +0.418 C 
ATOM     24  F   UNL     1       6.699  -4.274   0.349  0.00  0.00    -0.166 F 
ATOM     25  F   UNL     1       6.225  -2.478  -0.981  0.00  0.00    -0.166 F 
ATOM     26  F   UNL     1       6.160  -2.264   1.293  0.00  0.00    -0.166 F 
ENDBRANCH   4  23
BRANCH   3  27
ATOM     27  S   UNL     1       3.936  -0.840  -0.051  0.00  0.00    -0.089 S 
BRANCH  27  28
ATOM     28  C   UNL     1       2.402   0.026  -0.006  0.00  0.00    +0.016 A 
ATOM     29  C   UNL     1       1.827   0.358   1.214  0.00  0.00    +0.019 A 
ATOM     30  C   UNL     1       0.624   1.036   1.250  0.00  0.00    +0.050 A 
ATOM     31  C   UNL     1      -0.013   1.386   0.069  0.00  0.00    +0.162 A 
ATOM     32  C   UNL     1       0.560   1.058  -1.154  0.00  0.00    +0.163 A 
ATOM     33  C   UNL     1       1.767   0.376  -1.190  0.00  0.00    +0.064 A 
ATOM     34  O   UNL     1      -0.047   1.401  -2.323  0.00  0.00    -0.485 OA
ATOM     35  C   UNL     1      -1.433   1.750  -2.250  0.00  0.00    +0.270 C 
ATOM     36  C   UNL     1      -1.625   2.714  -1.071  0.00  0.00    +0.270 C 
ATOM     37  O   UNL     1      -1.204   2.047   0.124  0.00  0.00    -0.485 OA
ENDBRANCH  27  28
ENDBRANCH   3  27
TORSDOF 6
