REMARK  Name = ZINC10217117
REMARK  6 active torsions:
REMARK  status: ('A' for Active; 'I' for Inactive)
REMARK    1  A    between atoms: C_3  and  N_15
REMARK    2  A    between atoms: C_5  and  S_6
REMARK    3  A    between atoms: S_6  and  N_9
REMARK    4  A    between atoms: N_9  and  C_10
REMARK    5  A    between atoms: N_18  and  S_21
REMARK    6  A    between atoms: S_21  and  C_24
REMARK                            x       y       z     vdW  Elec       q    Type
REMARK                         _______ _______ _______ _____ _____    ______ ____
ROOT
ATOM      1  C   UNL     1       3.085  -1.252  -7.793  0.00  0.00    +0.033 A 
ATOM      2  C   UNL     1       3.628  -1.447  -6.536  0.00  0.00    +0.043 A 
ATOM      3  C   UNL     1       3.743  -0.363  -5.672  0.00  0.00    +0.099 A 
ATOM      4  C   UNL     1       2.816   1.057  -7.238  0.00  0.00    +0.112 A 
ATOM      5  C   UNL     1       2.673   0.026  -8.145  0.00  0.00    +0.121 A 
ATOM      6  N   UNL     1       3.340   0.901  -5.993  0.00  0.00    -0.348 N 
ATOM      7  H   UNL     1       3.427   1.685  -5.336  0.00  0.00    +0.167 HD
ENDROOT
BRANCH   3   8
ATOM      8  N   UNL     1       4.286  -0.545  -4.406  0.00  0.00    -0.314 N 
ATOM      9  C   UNL     1       4.316   0.720  -3.659  0.00  0.00    +0.123 C 
ATOM     10  C   UNL     1       5.082   0.517  -2.348  0.00  0.00    +0.128 C 
ATOM     11  N   UNL     1       4.483  -0.617  -1.627  0.00  0.00    -0.173 NA
ATOM     12  C   UNL     1       4.300  -1.883  -2.352  0.00  0.00    +0.128 C 
ATOM     13  C   UNL     1       3.559  -1.584  -3.665  0.00  0.00    +0.123 C 
BRANCH  11  14
ATOM     14  S   UNL     1       4.034  -0.473  -0.040  0.00  0.00    +0.067 S 
ATOM     15  O   UNL     1       4.814   0.580   0.509  0.00  0.00    -0.152 OA
ATOM     16  O   UNL     1       4.036  -1.786   0.503  0.00  0.00    -0.152 OA
BRANCH  14  17
ATOM     17  C   UNL     1       2.360   0.077  -0.020  0.00  0.00    +0.144 A 
ATOM     18  C   UNL     1       1.221  -0.657  -0.013  0.00  0.00    +0.038 A 
ATOM     19  C   UNL     1       0.002  -0.004   0.002  0.00  0.00    +0.030 A 
ATOM     20  C   UNL     1      -0.016   1.352   0.009  0.00  0.00    +0.080 A 
ATOM     21  S   UNL     1       1.725   1.745  -0.005  0.00  0.00    -0.057 S 
ATOM     22 CL   UNL     1      -1.379   2.427   0.022  0.00  0.00    -0.076 Cl
ENDBRANCH  14  17
ENDBRANCH  11  14
ENDBRANCH   3   8
BRANCH   5  23
ATOM     23  S   UNL     1       1.974   0.329  -9.734  0.00  0.00    +0.060 S 
ATOM     24  O   UNL     1       2.175   1.708 -10.010  0.00  0.00    -0.153 OA
ATOM     25  O   UNL     1       2.454  -0.698 -10.591  0.00  0.00    -0.153 OA
BRANCH  23  26
ATOM     26  N   UNL     1       0.338   0.108  -9.600  0.00  0.00    -0.187 NA
ATOM     27  H   UNL     1      -0.095  -0.614 -10.082  0.00  0.00    +0.148 HD
BRANCH  26  28
ATOM     28  C   UNL     1      -0.455   1.002  -8.752  0.00  0.00    +0.077 C 
ATOM     29  C   UNL     1      -0.694   0.350  -7.375  0.00  0.00    +0.020 C 
ATOM     30  C   UNL     1      -2.136   0.772  -7.000  0.00  0.00    +0.002 C 
ATOM     31  C   UNL     1      -2.876   0.706  -8.359  0.00  0.00    +0.002 C 
ATOM     32  C   UNL     1      -1.842   1.228  -9.378  0.00  0.00    +0.020 C 
ENDBRANCH  26  28
ENDBRANCH  23  26
ENDBRANCH   5  23
TORSDOF 6
