REMARK  Name = ZINC52636207
REMARK  10 active torsions:
REMARK  status: ('A' for Active; 'I' for Inactive)
REMARK    1  A    between atoms: C_1  and  C_2
REMARK    2  A    between atoms: C_7  and  N_12
REMARK    3  A    between atoms: C_9  and  C_11
REMARK    4  A    between atoms: N_12  and  C_13
REMARK    5  A    between atoms: C_13  and  C_15
REMARK    6  A    between atoms: C_13  and  C_16
REMARK    7  A    between atoms: N_21  and  C_22
REMARK    8  A    between atoms: C_22  and  C_23
REMARK    9  A    between atoms: C_22  and  C_24
REMARK   10  A    between atoms: C_22  and  C_25
REMARK                            x       y       z     vdW  Elec       q    Type
REMARK                         _______ _______ _______ _____ _____    ______ ____
ROOT
ATOM      1  C   UNL     1       0.171  -0.024   4.958  0.00  0.00    +0.014 C 
ATOM      2  C   UNL     1      -1.213  -0.643   5.167  0.00  0.00    -0.004 C 
ENDROOT
BRANCH   1   3
ATOM      3  C   UNL     1       1.076  -0.422   6.095  0.00  0.00    +0.206 C 
ATOM      4  O   UNL     1       2.092  -1.045   5.872  0.00  0.00    -0.277 OA
ATOM      5  N   UNL     1       0.756  -0.087   7.361  0.00  0.00    -0.242 N 
ATOM      6  C   UNL     1       1.566  -0.444   8.377  0.00  0.00    +0.306 C 
ATOM      7  O   UNL     1       2.584  -1.068   8.153  0.00  0.00    -0.252 OA
ATOM      8  N   UNL     1       1.246  -0.108   9.643  0.00  0.00    -0.294 N 
ATOM      9  H   UNL     1      -0.057   0.411   7.540  0.00  0.00    +0.159 HD
ATOM     10  H   UNL     1       0.433   0.390   9.822  0.00  0.00    +0.151 HD
BRANCH   8  11
ATOM     11  C   UNL     1       2.126  -0.495  10.748  0.00  0.00    +0.028 C 
ATOM     12  C   UNL     1       3.509   0.124  10.540  0.00  0.00    +0.031 C 
ATOM     13  C   UNL     1       1.537   0.005  12.069  0.00  0.00    +0.031 C 
ATOM     14  C   UNL     1       2.251  -2.020  10.790  0.00  0.00    +0.031 C 
ENDBRANCH   8  11
ENDBRANCH   1   3
BRANCH   1  15
ATOM     15  N   UNL     1       0.736  -0.504   3.690  0.00  0.00    +0.388 N 
ATOM     16  H   UNL     1       0.077  -0.339   2.944  0.00  0.00    -0.084 HD
ATOM     17  H   UNL     1       0.926  -1.493   3.760  0.00  0.00    -0.084 HD
BRANCH  15  23
ATOM     18  C   UNL     1       4.896   0.236   3.069  0.00  0.00    +0.008 C 
ATOM     19  C   UNL     1       3.951   0.366   1.873  0.00  0.00    -0.013 C 
ATOM     20  C   UNL     1       3.643   1.843   1.623  0.00  0.00    +0.003 C 
ATOM     21  C   UNL     1       2.979   2.442   2.865  0.00  0.00    -0.001 C 
ATOM     22  C   UNL     1       1.678   1.693   3.159  0.00  0.00    -0.015 C 
ATOM     23  C   UNL     1       1.986   0.215   3.408  0.00  0.00    -0.068 C 
ATOM     24  C   UNL     1       2.650  -0.384   2.167  0.00  0.00    -0.025 C 
ATOM     25  C   UNL     1       2.957  -1.862   2.416  0.00  0.00    +0.006 C 
ENDBRANCH  15  23
ENDBRANCH   1  15
TORSDOF 4
