REMARK  Name = ZINC06606226
REMARK  4 active torsions:
REMARK  status: ('A' for Active; 'I' for Inactive)
REMARK    1  A    between atoms: C_6  and  C_7
REMARK    2  A    between atoms: N_11  and  C_15
REMARK    3  A    between atoms: C_18  and  S_21
REMARK    4  A    between atoms: S_21  and  N_24
REMARK                            x       y       z     vdW  Elec       q    Type
REMARK                         _______ _______ _______ _____ _____    ______ ____
ROOT
ATOM      1  C   UNL     1       4.919   2.782  -0.199  0.00  0.00    +0.028 C 
ATOM      2  C   UNL     1       3.654   2.627  -0.660  0.00  0.00    +0.078 C 
ATOM      3  C   UNL     1       2.595   3.639  -0.848  0.00  0.00    +0.263 C 
ATOM      4  O   UNL     1       2.782   4.811  -0.581  0.00  0.00    -0.269 OA
ATOM      5  N   UNL     1       1.435   3.213  -1.319  0.00  0.00    -0.215 N 
ATOM      6  C   UNL     1       1.245   1.877  -1.615  0.00  0.00    +0.165 C 
ATOM      7  N   UNL     1       0.175   1.293  -2.081  0.00  0.00    -0.279 NA
ATOM      8  S   UNL     1       2.817   1.141  -1.196  0.00  0.00    -0.049 S 
ATOM      9  H   UNL     1       0.177   0.338  -2.246  0.00  0.00    +0.189 HD
ENDROOT
BRANCH   1  15
ATOM     10  C   UNL     1       7.125   1.764   0.335  0.00  0.00    +0.009 A 
ATOM     11  C   UNL     1       8.014   0.714   0.252  0.00  0.00    +0.020 A 
ATOM     12  C   UNL     1       7.677  -0.429  -0.455  0.00  0.00    +0.041 A 
ATOM     13  C   UNL     1       6.444  -0.529  -1.078  0.00  0.00    +0.020 A 
ATOM     14  C   UNL     1       5.542   0.510  -0.999  0.00  0.00    +0.009 A 
ATOM     15  C   UNL     1       5.875   1.668  -0.287  0.00  0.00    -0.024 A 
ATOM     16 CL   UNL     1       8.806  -1.744  -0.559  0.00  0.00    -0.084 Cl
ENDBRANCH   1  15
BRANCH   5  17
ATOM     17  C   UNL     1       0.390   4.125  -1.519  0.00  0.00    +0.044 A 
ATOM     18  C   UNL     1      -0.236   4.716  -0.430  0.00  0.00    +0.026 A 
ATOM     19  C   UNL     1      -1.263   5.617  -0.630  0.00  0.00    +0.030 A 
ATOM     20  C   UNL     1      -1.675   5.924  -1.914  0.00  0.00    +0.105 A 
ATOM     21  C   UNL     1      -1.057   5.333  -3.001  0.00  0.00    +0.030 A 
ATOM     22  C   UNL     1      -0.026   4.435  -2.807  0.00  0.00    +0.026 A 
BRANCH  20  23
ATOM     23  S   UNL     1      -2.990   7.070  -2.166  0.00  0.00    +0.056 S 
ATOM     24  O   UNL     1      -3.036   7.895  -1.010  0.00  0.00    -0.153 OA
ATOM     25  O   UNL     1      -2.822   7.599  -3.474  0.00  0.00    -0.153 OA
BRANCH  23  26
ATOM     26  N   UNL     1      -4.399   6.201  -2.184  0.00  0.00    -0.204 NA
ATOM     27  H   UNL     1      -5.225   6.609  -1.880  0.00  0.00    +0.144 HD
ATOM     28  H   UNL     1      -4.399   5.283  -2.499  0.00  0.00    +0.144 HD
ENDBRANCH  23  26
ENDBRANCH  20  23
ENDBRANCH   5  17
TORSDOF 4
