REMARK  Name = ZINC38989718
REMARK  10 active torsions:
REMARK  status: ('A' for Active; 'I' for Inactive)
REMARK    1  A    between atoms: C_1  and  C_2
REMARK    2  A    between atoms: C_2  and  O_3
REMARK    3  A    between atoms: O_3  and  C_4
REMARK    4  A    between atoms: C_7  and  N_10
REMARK    5  A    between atoms: C_11  and  C_13
REMARK    6  A    between atoms: C_13  and  S_14
REMARK    7  A    between atoms: S_14  and  C_15
REMARK    8  A    between atoms: C_19  and  C_23
REMARK    9  A    between atoms: N_21  and  N_22
REMARK   10  A    between atoms: C_26  and  C_29
REMARK                            x       y       z     vdW  Elec       q    Type
REMARK                         _______ _______ _______ _____ _____    ______ ____
ROOT
ATOM      1  C   UNL     1      -5.186 -10.228   0.446  0.00  0.00    +0.214 C 
ATOM      2  N   UNL     1      -4.523 -10.826  -0.735  0.00  0.00    -0.228 NA
ATOM      3  N   UNL     1      -3.811 -11.998  -0.203  0.00  0.00    -0.234 NA
ATOM      4  C   UNL     1      -3.319 -11.522   1.116  0.00  0.00    +0.185 C 
ATOM      5  N   UNL     1      -4.418 -10.671   1.629  0.00  0.00    -0.197 NA
ATOM      6  H   UNL     1      -3.880 -10.173  -1.158  0.00  0.00    +0.143 HD
ATOM      7  H   UNL     1      -4.436 -12.783  -0.094  0.00  0.00    +0.143 HD
ENDROOT
BRANCH   4   8
ATOM      8  C   UNL     1      -3.072 -12.705   2.054  0.00  0.00    +0.187 C 
ATOM      9  C   UNL     1      -1.964 -13.593   1.518  0.00  0.00    +0.034 C 
ATOM     10  C   UNL     1      -2.569 -14.780   1.317  0.00  0.00    +0.091 C 
ATOM     11  N   UNL     1      -3.881 -14.707   1.662  0.00  0.00    -0.154 NA
ATOM     12  N   UNL     1      -4.241 -13.600   2.080  0.00  0.00    -0.176 NA
BRANCH  10  13
ATOM     13  C   UNL     1      -1.898 -15.994   0.791  0.00  0.00    +0.002 A 
ATOM     14  C   UNL     1      -0.541 -15.960   0.472  0.00  0.00    +0.013 A 
ATOM     15  C   UNL     1       0.079 -17.092  -0.015  0.00  0.00    +0.039 A 
ATOM     16  C   UNL     1      -0.645 -18.261  -0.189  0.00  0.00    +0.123 A 
ATOM     17  C   UNL     1      -1.994 -18.299   0.127  0.00  0.00    +0.039 A 
ATOM     18  C   UNL     1      -2.620 -17.173   0.621  0.00  0.00    +0.013 A 
ATOM     19  F   UNL     1      -0.034 -19.367  -0.667  0.00  0.00    -0.205 F 
ENDBRANCH  10  13
ENDBRANCH   4   8
BRANCH   5  20
ATOM     20  N   UNL     1      -5.264 -11.410   2.552  0.00  0.00    -0.264 NA
ATOM     21  H   UNL     1      -6.032 -10.841   2.874  0.00  0.00    +0.137 HD
ATOM     22  H   UNL     1      -5.599 -12.264   2.131  0.00  0.00    +0.137 HD
ENDBRANCH   5  20
BRANCH   1  23
ATOM     23  S   UNL     1      -5.155  -8.418   0.327  0.00  0.00    -0.115 S 
BRANCH  23  24
ATOM     24  C   UNL     1      -3.391  -8.017   0.200  0.00  0.00    +0.168 C 
BRANCH  24  26
ATOM     25  N   UNL     1      -1.989  -5.990  -0.012  0.00  0.00    -0.285 N 
ATOM     26  C   UNL     1      -3.222  -6.523   0.093  0.00  0.00    +0.227 C 
ATOM     27  O   UNL     1      -4.196  -5.800   0.102  0.00  0.00    -0.275 OA
ATOM     28  H   UNL     1      -1.215  -6.569  -0.096  0.00  0.00    +0.155 HD
BRANCH  25  32
ATOM     29  C   UNL     1      -1.496  -1.849   0.025  0.00  0.00    +0.121 A 
ATOM     30  C   UNL     1      -2.510  -2.434   0.771  0.00  0.00    +0.047 A 
ATOM     31  C   UNL     1      -2.673  -3.805   0.759  0.00  0.00    +0.027 A 
ATOM     32  C   UNL     1      -1.823  -4.598   0.001  0.00  0.00    +0.034 A 
ATOM     33  C   UNL     1      -0.809  -4.013  -0.746  0.00  0.00    +0.027 A 
ATOM     34  C   UNL     1      -0.650  -2.641  -0.737  0.00  0.00    +0.047 A 
BRANCH  29  35
ATOM     35  O   UNL     1      -1.336  -0.499   0.037  0.00  0.00    -0.492 OA
BRANCH  35  37
ATOM     36  C   UNL     1      -1.908   1.744   0.732  0.00  0.00    +0.048 C 
ATOM     37  C   UNL     1      -2.242   0.255   0.845  0.00  0.00    +0.225 C 
ENDBRANCH  35  37
ENDBRANCH  29  35
ENDBRANCH  25  32
ENDBRANCH  24  26
ENDBRANCH  23  24
ENDBRANCH   1  23
TORSDOF 9
