REMARK  Name = ZINC56624087
REMARK  10 active torsions:
REMARK  status: ('A' for Active; 'I' for Inactive)
REMARK    1  A    between atoms: C_1  and  C_2
REMARK    2  A    between atoms: C_2  and  N_3
REMARK    3  A    between atoms: N_3  and  C_4
REMARK    4  A    between atoms: N_3  and  C_6
REMARK    5  A    between atoms: C_4  and  C_5
REMARK    6  A    between atoms: C_6  and  C_8
REMARK    7  A    between atoms: C_6  and  C_9
REMARK    8  A    between atoms: C_9  and  N_10
REMARK    9  A    between atoms: N_13  and  N_14
REMARK   10  A    between atoms: N_17  and  C_18
REMARK                            x       y       z     vdW  Elec       q    Type
REMARK                         _______ _______ _______ _____ _____    ______ ____
ROOT
ATOM      1  N   UNL     1      -1.506  -1.757   0.517  0.00  0.00    -0.300 N 
ATOM      2  C   UNL     1      -2.697  -2.062   1.069  0.00  0.00    +0.316 C 
ATOM      3  O   UNL     1      -3.356  -2.981   0.623  0.00  0.00    -0.251 OA
ATOM      4  N   UNL     1      -3.157  -1.348   2.115  0.00  0.00    -0.217 N 
ATOM      5  H   UNL     1      -0.980  -1.023   0.873  0.00  0.00    +0.150 HD
ATOM      6  H   UNL     1      -4.014  -1.567   2.513  0.00  0.00    +0.174 HD
ENDROOT
BRANCH   4   7
ATOM      7  N   UNL     1      -2.397  -0.289   2.629  0.00  0.00    -0.217 N 
ATOM      8  C   UNL     1      -2.858   0.425   3.676  0.00  0.00    +0.320 C 
ATOM      9  O   UNL     1      -2.198   1.344   4.122  0.00  0.00    -0.251 OA
ATOM     10  N   UNL     1      -4.049   0.120   4.228  0.00  0.00    -0.268 N 
ATOM     11  H   UNL     1      -1.540  -0.069   2.232  0.00  0.00    +0.174 HD
ATOM     12  H   UNL     1      -4.543  -0.654   3.917  0.00  0.00    +0.156 HD
BRANCH  10  13
ATOM     13  C   UNL     1      -4.572   0.921   5.250  0.00  0.00    +0.035 A 
ATOM     14  C   UNL     1      -5.314   0.346   6.273  0.00  0.00    +0.024 A 
ATOM     15  C   UNL     1      -5.829   1.138   7.280  0.00  0.00    +0.017 A 
ATOM     16  C   UNL     1      -5.606   2.504   7.271  0.00  0.00    +0.018 A 
ATOM     17  C   UNL     1      -4.867   3.079   6.252  0.00  0.00    +0.017 A 
ATOM     18  C   UNL     1      -4.345   2.291   5.245  0.00  0.00    +0.024 A 
ATOM     19 BR   UNL     1      -6.312   3.585   8.652  0.00  0.00    -0.050 Br
ENDBRANCH  10  13
ENDBRANCH   4   7
BRANCH   1  20
ATOM     20  C   UNL     1      -1.006  -2.533  -0.621  0.00  0.00    +0.090 C 
BRANCH  20  21
ATOM     21  C   UNL     1       0.406  -2.062  -0.978  0.00  0.00    -0.054 C 
ATOM     22  C   UNL     1       0.910  -2.840  -2.195  0.00  0.00    -0.012 C 
BRANCH  21  23
ATOM     23  N   UNL     1       0.379  -0.627  -1.291  0.00  0.00    +0.382 N 
ATOM     24  H   UNL     1      -0.026  -0.121  -0.518  0.00  0.00    -0.081 HD
BRANCH  23  26
ATOM     25  C   UNL     1       2.559  -0.278  -0.232  0.00  0.00    -0.017 C 
ATOM     26  C   UNL     1       1.749  -0.151  -1.523  0.00  0.00    -0.082 C 
ENDBRANCH  23  26
BRANCH  23  27
ATOM     27  C   UNL     1      -0.428  -0.405  -2.499  0.00  0.00    -0.082 C 
ATOM     28  C   UNL     1      -0.556   1.098  -2.756  0.00  0.00    -0.017 C 
ENDBRANCH  23  27
ENDBRANCH  21  23
ENDBRANCH  20  21
ENDBRANCH   1  20
TORSDOF 7
