REMARK  Name = ZINC35666533
REMARK  13 active torsions:
REMARK  status: ('A' for Active; 'I' for Inactive)
REMARK    1  A    between atoms: C_1  and  C_2
REMARK    2  A    between atoms: C_2  and  C_3
REMARK    3  A    between atoms: C_2  and  C_4
REMARK    4  A    between atoms: C_4  and  C_6
REMARK    5  A    between atoms: C_4  and  N_28
REMARK    6  A    between atoms: C_10  and  O_26
REMARK    7  A    between atoms: C_11  and  O_24
REMARK    8  A    between atoms: N_19  and  C_20
REMARK    9  A    between atoms: C_20  and  C_21
REMARK   10  A    between atoms: C_20  and  C_22
REMARK   11  A    between atoms: C_20  and  C_23
REMARK   12  A    between atoms: O_24  and  C_25
REMARK   13  A    between atoms: O_26  and  C_27
REMARK                            x       y       z     vdW  Elec       q    Type
REMARK                         _______ _______ _______ _____ _____    ______ ____
ROOT
ATOM      1  C   UNL     1       0.606  -2.003  -1.284  0.00  0.00    +0.094 C 
ATOM      2  C   UNL     1       1.424  -2.487  -2.455  0.00  0.00    -0.022 A 
ATOM      3  C   UNL     1       2.806  -2.395  -2.359  0.00  0.00    +0.055 A 
ATOM      4  C   UNL     1       3.612  -2.812  -3.402  0.00  0.00    +0.162 A 
ATOM      5  C   UNL     1       3.029  -3.326  -4.557  0.00  0.00    +0.162 A 
ATOM      6  C   UNL     1       1.653  -3.420  -4.646  0.00  0.00    +0.053 A 
ATOM      7  C   UNL     1       0.846  -3.005  -3.593  0.00  0.00    -0.037 A 
ATOM      8  C   UNL     1      -0.643  -3.164  -3.753  0.00  0.00    +0.054 C 
ATOM      9  C   UNL     1      -1.395  -2.258  -2.779  0.00  0.00    +0.114 C 
ATOM     10  N   UNL     1      -0.789  -2.426  -1.448  0.00  0.00    -0.280 N 
ATOM     11  C   UNL     1      -1.490  -2.946  -0.421  0.00  0.00    +0.303 C 
ATOM     12  O   UNL     1      -0.939  -3.167   0.640  0.00  0.00    -0.253 OA
ATOM     13  N   UNL     1      -2.801  -3.221  -0.571  0.00  0.00    -0.294 N 
ATOM     14  H   UNL     1      -3.224  -3.112  -1.437  0.00  0.00    +0.151 HD
ENDROOT
BRANCH  13  15
ATOM     15  C   UNL     1      -3.587  -3.684   0.575  0.00  0.00    +0.028 C 
ATOM     16  C   UNL     1      -3.555  -2.624   1.678  0.00  0.00    +0.031 C 
ATOM     17  C   UNL     1      -5.034  -3.922   0.139  0.00  0.00    +0.031 C 
ATOM     18  C   UNL     1      -2.994  -4.991   1.107  0.00  0.00    +0.031 C 
ENDBRANCH  13  15
BRANCH   5  19
ATOM     19  O   UNL     1       3.810  -3.735  -5.593  0.00  0.00    -0.491 OA
ATOM     20  C   UNL     1       3.142  -4.251  -6.745  0.00  0.00    +0.277 C 
ENDBRANCH   5  19
BRANCH   4  21
ATOM     21  O   UNL     1       4.965  -2.720  -3.301  0.00  0.00    -0.491 OA
ATOM     22  C   UNL     1       5.489  -2.181  -2.086  0.00  0.00    +0.277 C 
ENDBRANCH   4  21
BRANCH   1  23
ATOM     23  C   UNL     1       0.670  -0.476  -1.214  0.00  0.00    -0.047 C 
BRANCH  23  24
ATOM     24  N   UNL     1       2.073  -0.049  -1.127  0.00  0.00    +0.382 N 
ATOM     25  H   UNL     1       2.494  -0.442  -0.298  0.00  0.00    -0.090 HD
ATOM     26  H   UNL     1       2.574  -0.370  -1.942  0.00  0.00    -0.090 HD
ATOM     27  H   UNL     1       2.116   0.958  -1.081  0.00  0.00    -0.090 HD
ENDBRANCH  23  24
BRANCH  23  29
ATOM     28  C   UNL     1       0.632  -0.469   1.284  0.00  0.00    +0.005 C 
ATOM     29  C   UNL     1      -0.088   0.010   0.022  0.00  0.00    -0.030 C 
ATOM     30  C   UNL     1      -0.145   1.539   0.017  0.00  0.00    +0.005 C 
ENDBRANCH  23  29
ENDBRANCH   1  23
TORSDOF 6
