REMARK  Name = ZINC42824748
REMARK  5 active torsions:
REMARK  status: ('A' for Active; 'I' for Inactive)
REMARK    1  A    between atoms: C_7  and  N_14
REMARK    2  A    between atoms: C_8  and  C_11
REMARK    3  A    between atoms: C_11  and  N_13
REMARK    4  A    between atoms: N_14  and  C_15
REMARK    5  A    between atoms: C_15  and  C_16
REMARK                            x       y       z     vdW  Elec       q    Type
REMARK                         _______ _______ _______ _____ _____    ______ ____
ROOT
ATOM      1  C   UNL     1       3.191   0.652   0.812  0.00  0.00    +0.001 A 
ATOM      2  C   UNL     1       4.319   0.473   1.609  0.00  0.00    +0.002 A 
ATOM      3  C   UNL     1       4.682  -0.766   2.043  0.00  0.00    +0.026 A 
ATOM      4  C   UNL     1       3.912  -1.885   1.686  0.00  0.00    +0.048 A 
ATOM      5  C   UNL     1       2.767  -1.700   0.876  0.00  0.00    +0.020 A 
ATOM      6  C   UNL     1       2.421  -0.411   0.445  0.00  0.00    +0.012 A 
ATOM      7  C   UNL     1       1.990  -2.826   0.515  0.00  0.00    +0.047 A 
ATOM      8  C   UNL     1       2.403  -4.082   0.986  0.00  0.00    +0.040 A 
ATOM      9  C   UNL     1       3.554  -4.171   1.786  0.00  0.00    +0.095 A 
ATOM     10  N   UNL     1       4.253  -3.112   2.104  0.00  0.00    -0.360 N 
ATOM     11  H   UNL     1       5.041  -3.218   2.659  0.00  0.00    +0.165 HD
ENDROOT
BRANCH   8  12
ATOM     12  C   UNL     1       1.638  -5.291   0.646  0.00  0.00    +0.080 C 
ATOM     13  S   UNL     1       0.338  -5.198  -0.463  0.00  0.00    -0.035 S 
BRANCH  12  14
ATOM     14  N   UNL     1       1.961  -6.473   1.209  0.00  0.00    -0.352 N 
ATOM     15  H   UNL     1       2.697  -6.526   1.837  0.00  0.00    +0.143 HD
ATOM     16  H   UNL     1       1.456  -7.271   0.985  0.00  0.00    +0.143 HD
ENDBRANCH  12  14
ENDBRANCH   8  12
BRANCH   7  17
ATOM     17  N   UNL     1       0.867  -2.695  -0.272  0.00  0.00    -0.340 N 
ATOM     18  H   UNL     1       0.866  -3.041  -1.178  0.00  0.00    +0.146 HD
BRANCH  17  19
ATOM     19  C   UNL     1      -0.326  -2.030   0.260  0.00  0.00    +0.133 C 
BRANCH  19  20
ATOM     20  C   UNL     1      -1.552  -2.914   0.019  0.00  0.00    +0.135 C 
ATOM     21  C   UNL     1      -2.798  -2.220   0.574  0.00  0.00    +0.033 C 
ATOM     22  C   UNL     1      -4.029  -3.083   0.276  0.00  0.00    +0.005 C 
ATOM     23  C   UNL     1      -4.119  -3.320  -1.234  0.00  0.00    +0.028 C 
ATOM     24  C   UNL     1      -2.821  -3.971  -1.720  0.00  0.00    +0.160 C 
ATOM     25  O   UNL     1      -1.714  -3.132  -1.384  0.00  0.00    -0.375 OA
ENDBRANCH  19  20
ENDBRANCH  17  19
ENDBRANCH   7  17
TORSDOF 5
