REMARK  Name = ZINC36586941
REMARK  15 active torsions:
REMARK  status: ('A' for Active; 'I' for Inactive)
REMARK    1  A    between atoms: C_1  and  C_2
REMARK    2  A    between atoms: C_5  and  S_8
REMARK    3  A    between atoms: S_8  and  C_11
REMARK    4  A    between atoms: C_11  and  N_12
REMARK    5  A    between atoms: C_13  and  C_15
REMARK    6  A    between atoms: C_15  and  C_17
REMARK    7  A    between atoms: C_15  and  N_24
REMARK    8  A    between atoms: C_22  and  O_23
REMARK    9  A    between atoms: N_24  and  C_35
REMARK   10  A    between atoms: C_25  and  C_27
REMARK   11  A    between atoms: C_31  and  O_34
REMARK   12  A    between atoms: C_32  and  O_33
REMARK   13  A    between atoms: C_35  and  C_36
REMARK   14  A    between atoms: C_35  and  C_37
REMARK   15  A    between atoms: C_35  and  C_38
REMARK                            x       y       z     vdW  Elec       q    Type
REMARK                         _______ _______ _______ _____ _____    ______ ____
ROOT
ATOM      1  C   UNL     1       1.770  -6.706   2.748  0.00  0.00    +0.196 C 
ENDROOT
BRANCH   1   2
ATOM      2  C   UNL     1       0.945  -5.447   2.817  0.00  0.00    +0.023 A 
ATOM      3  C   UNL     1      -0.434  -5.524   2.820  0.00  0.00    +0.009 A 
ATOM      4  C   UNL     1      -1.192  -4.369   2.883  0.00  0.00    +0.001 A 
ATOM      5  C   UNL     1      -0.571  -3.135   2.944  0.00  0.00    +0.004 A 
ATOM      6  C   UNL     1       0.808  -3.053   2.942  0.00  0.00    +0.046 A 
ATOM      7  C   UNL     1       1.570  -4.210   2.884  0.00  0.00    +0.122 A 
BRANCH   7   8
ATOM      8  O   UNL     1       2.927  -4.133   2.888  0.00  0.00    -0.506 OA
ATOM      9  H   UNL     1       3.315  -3.986   2.014  0.00  0.00    +0.292 HD
ENDBRANCH   7   8
ENDBRANCH   1   2
BRANCH   1  11
ATOM     10  N   UNL     1       0.949  -7.632   0.606  0.00  0.00    -0.294 N 
ATOM     11  C   UNL     1       1.032  -7.747   1.946  0.00  0.00    +0.239 C 
ATOM     12  O   UNL     1       0.513  -8.689   2.507  0.00  0.00    -0.273 OA
ATOM     13  H   UNL     1       1.310  -6.848   0.164  0.00  0.00    +0.150 HD
BRANCH  10  14
ATOM     14  C   UNL     1       0.313  -8.690  -0.182  0.00  0.00    +0.278 C 
BRANCH  14  15
ATOM     15  S   UNL     1      -1.427  -8.266  -0.471  0.00  0.00    +0.013 S 
ATOM     16  O   UNL     1      -2.037  -7.848   0.742  0.00  0.00    -0.168 OA
ATOM     17  O   UNL     1      -2.042  -9.253  -1.288  0.00  0.00    -0.168 OA
BRANCH  15  22
ATOM     18  C   UNL     1      -1.269  -3.307  -3.904  0.00  0.00    +0.044 C 
ATOM     19  C   UNL     1      -1.308  -4.545  -3.046  0.00  0.00    -0.050 A 
ATOM     20  C   UNL     1      -1.328  -5.795  -3.638  0.00  0.00    +0.005 A 
ATOM     21  C   UNL     1      -1.364  -6.931  -2.851  0.00  0.00    +0.027 A 
ATOM     22  C   UNL     1      -1.380  -6.818  -1.474  0.00  0.00    +0.090 A 
ATOM     23  C   UNL     1      -1.360  -5.569  -0.882  0.00  0.00    +0.027 A 
ATOM     24  C   UNL     1      -1.319  -4.433  -1.669  0.00  0.00    +0.005 A 
ENDBRANCH  15  22
ENDBRANCH  14  15
ENDBRANCH  10  14
ENDBRANCH   1  11
BRANCH   1  25
ATOM     25  N   UNL     1       2.007  -7.210   4.103  0.00  0.00    -0.277 N 
ATOM     26  C   UNL     1       2.330  -8.505   4.294  0.00  0.00    +0.252 C 
ATOM     27  O   UNL     1       2.436  -8.945   5.422  0.00  0.00    -0.270 OA
BRANCH  26  28
ATOM     28  C   UNL     1       2.556  -9.387   3.133  0.00  0.00    +0.082 A 
ATOM     29  C   UNL     1       2.927  -8.844   1.899  0.00  0.00    +0.017 A 
ATOM     30  C   UNL     1       3.137  -9.671   0.818  0.00  0.00    +0.005 A 
ATOM     31  C   UNL     1       2.984 -11.043   0.945  0.00  0.00    +0.049 A 
ATOM     32  C   UNL     1       2.617 -11.595   2.160  0.00  0.00    +0.159 A 
ATOM     33  C   UNL     1       2.406 -10.773   3.263  0.00  0.00    +0.171 A 
BRANCH  33  34
ATOM     34  O   UNL     1       2.052 -11.311   4.458  0.00  0.00    -0.503 OA
ATOM     35  H   UNL     1       1.097 -11.396   4.584  0.00  0.00    +0.292 HD
ENDBRANCH  33  34
BRANCH  32  36
ATOM     36  O   UNL     1       2.468 -12.942   2.278  0.00  0.00    -0.503 OA
ATOM     37  H   UNL     1       3.276 -13.406   2.535  0.00  0.00    +0.292 HD
ENDBRANCH  32  36
ENDBRANCH  26  28
BRANCH  25  38
ATOM     38  C   UNL     1       1.891  -6.307   5.251  0.00  0.00    +0.030 C 
ATOM     39  C   UNL     1       0.649  -5.430   5.087  0.00  0.00    +0.031 C 
ATOM     40  C   UNL     1       1.770  -7.129   6.536  0.00  0.00    +0.031 C 
ATOM     41  C   UNL     1       3.136  -5.420   5.329  0.00  0.00    +0.031 C 
ENDBRANCH  25  38
ENDBRANCH   1  25
TORSDOF 11
