REMARK  Name = ZINC38035591
REMARK  9 active torsions:
REMARK  status: ('A' for Active; 'I' for Inactive)
REMARK    1  A    between atoms: C_1  and  C_2
REMARK    2  A    between atoms: C_2  and  N_3
REMARK    3  A    between atoms: N_3  and  C_4
REMARK    4  A    between atoms: N_3  and  S_17
REMARK    5  A    between atoms: C_4  and  C_5
REMARK    6  A    between atoms: C_5  and  C_6
REMARK    7  A    between atoms: C_6  and  N_7
REMARK    8  A    between atoms: N_7  and  C_8
REMARK    9  A    between atoms: S_17  and  C_20
REMARK                            x       y       z     vdW  Elec       q    Type
REMARK                         _______ _______ _______ _____ _____    ______ ____
ROOT
ATOM      1  N   UNL     1      -2.227  -3.445  -3.805  0.00  0.00    +0.381 N 
ATOM      2  H   UNL     1      -1.235  -3.494  -3.986  0.00  0.00    -0.086 HD
ATOM      3  H   UNL     1      -2.491  -4.188  -3.175  0.00  0.00    -0.086 HD
ENDROOT
BRANCH   1   4
ATOM      4  C   UNL     1      -2.962  -3.590  -5.068  0.00  0.00    -0.069 C 
ATOM      5  C   UNL     1      -4.465  -3.640  -4.780  0.00  0.00    +0.003 C 
ATOM      6  C   UNL     1      -5.230  -3.756  -6.102  0.00  0.00    +0.108 C 
ATOM      7  N   UNL     1      -4.719  -4.917  -6.844  0.00  0.00    -0.286 N 
ATOM      8  C   UNL     1      -3.275  -5.014  -7.096  0.00  0.00    +0.108 C 
ATOM      9  C   UNL     1      -2.531  -4.884  -5.763  0.00  0.00    +0.003 C 
ATOM     10  C   UNL     1      -5.559  -5.875  -7.284  0.00  0.00    +0.300 C 
ATOM     11  O   UNL     1      -6.738  -5.833  -6.987  0.00  0.00    -0.253 OA
ATOM     12  N   UNL     1      -5.093  -6.879  -8.052  0.00  0.00    -0.313 N 
ATOM     13  H   UNL     1      -4.142  -6.953  -8.229  0.00  0.00    +0.146 HD
ATOM     14  H   UNL     1      -5.708  -7.528  -8.428  0.00  0.00    +0.146 HD
ENDBRANCH   1   4
BRANCH   1  15
ATOM     15  C   UNL     1      -2.550  -2.148  -3.196  0.00  0.00    -0.081 C 
BRANCH  15  16
ATOM     16  C   UNL     1      -1.784  -1.997  -1.880  0.00  0.00    -0.002 C 
BRANCH  16  17
ATOM     17  C   UNL     1      -2.121  -0.646  -1.246  0.00  0.00    +0.107 C 
BRANCH  17  18
ATOM     18  N   UNL     1      -1.387  -0.501   0.013  0.00  0.00    -0.182 NA
BRANCH  18  19
ATOM     19  S   UNL     1      -2.112  -0.908   1.446  0.00  0.00    +0.029 S 
ATOM     20  O   UNL     1      -3.091  -1.877   1.094  0.00  0.00    -0.158 OA
ATOM     21  O   UNL     1      -1.038  -1.245   2.313  0.00  0.00    -0.158 OA
ATOM     22  C   UNL     1      -2.917   0.616   2.010  0.00  0.00    +0.215 C 
ENDBRANCH  18  19
BRANCH  18  24
ATOM     23  C   UNL     1      -0.030   1.534   0.011  0.00  0.00    +0.022 C 
ATOM     24  C   UNL     1      -0.012   0.004   0.006  0.00  0.00    +0.105 C 
ENDBRANCH  18  24
ENDBRANCH  17  18
ENDBRANCH  16  17
ENDBRANCH  15  16
ENDBRANCH   1  15
TORSDOF 7
