REMARK  Name = ZINC02255186
REMARK  16 active torsions:
REMARK  status: ('A' for Active; 'I' for Inactive)
REMARK    1  A    between atoms: C_1  and  C_2
REMARK    2  A    between atoms: C_2  and  N_65
REMARK    3  A    between atoms: C_3  and  C_4
REMARK    4  A    between atoms: C_3  and  N_65
REMARK    5  A    between atoms: C_5  and  C_6
REMARK    6  A    between atoms: C_5  and  N_65
REMARK    7  A    between atoms: C_6  and  C_7
REMARK    8  A    between atoms: C_7  and  N_8
REMARK    9  A    between atoms: C_9  and  C_33
REMARK   10  A    between atoms: C_15  and  C_23
REMARK   11  A    between atoms: C_17  and  C_21
REMARK   12  A    between atoms: C_18  and  N_20
REMARK   13  A    between atoms: C_25  and  O_31
REMARK   14  A    between atoms: C_28  and  O_29
REMARK   15  A    between atoms: O_29  and  C_30
REMARK   16  A    between atoms: O_31  and  C_32
REMARK                            x       y       z     vdW  Elec       q    Type
REMARK                         _______ _______ _______ _____ _____    ______ ____
ROOT
ATOM      1  N   UNL     1      -0.192   2.006   0.420  0.00  0.00    -0.312 N 
ATOM      2  C   UNL     1       0.870   1.190   0.187  0.00  0.00    +0.022 A 
ATOM      3  C   UNL     1       0.746  -0.151   0.279  0.00  0.00    +0.068 A 
ATOM      4  C   UNL     1      -0.499  -0.718   0.621  0.00  0.00    +0.141 A 
ATOM      5  C   UNL     1      -1.571   0.117   0.855  0.00  0.00    +0.072 A 
ATOM      6  C   UNL     1      -1.396   1.502   0.748  0.00  0.00    +0.259 A 
ATOM      7  O   UNL     1      -2.338   2.253   0.948  0.00  0.00    -0.267 OA
ATOM      8  C   UNL     1      -2.917  -0.446   1.220  0.00  0.00    +0.107 C 
ATOM      9  C   UNL     1      -2.778  -1.876   1.662  0.00  0.00    +0.098 C 
ATOM     10  C   UNL     1      -1.660  -2.589   1.389  0.00  0.00    +0.199 C 
ATOM     11  O   UNL     1      -0.625  -2.059   0.715  0.00  0.00    -0.441 OA
ATOM     12  C   UNL     1       2.202   1.791  -0.178  0.00  0.00    +0.064 C 
ENDROOT
BRANCH   8  13
ATOM     13  C   UNL     1      -3.829  -0.379   0.022  0.00  0.00    +0.011 A 
ATOM     14  C   UNL     1      -3.489  -1.041  -1.142  0.00  0.00    +0.053 A 
ATOM     15  C   UNL     1      -4.330  -0.983  -2.244  0.00  0.00    +0.121 A 
ATOM     16  C   UNL     1      -5.507  -0.252  -2.180  0.00  0.00    +0.049 A 
ATOM     17  C   UNL     1      -5.845   0.413  -1.018  0.00  0.00    +0.049 A 
ATOM     18  C   UNL     1      -5.006   0.351   0.086  0.00  0.00    +0.124 A 
BRANCH  18  19
ATOM     19  O   UNL     1      -5.338   1.006   1.230  0.00  0.00    -0.495 OA
ATOM     20  C   UNL     1      -6.565   1.739   1.225  0.00  0.00    +0.277 C 
ENDBRANCH  18  19
BRANCH  15  21
ATOM     21  O   UNL     1      -3.998  -1.639  -3.388  0.00  0.00    -0.495 OA
ATOM     22  C   UNL     1      -4.907  -1.531  -4.484  0.00  0.00    +0.277 C 
ENDBRANCH  15  21
ENDBRANCH   8  13
BRANCH  10  23
ATOM     23  N   UNL     1      -1.581  -3.892   1.813  0.00  0.00    -0.328 N 
ATOM     24  H   UNL     1      -2.320  -4.289   2.301  0.00  0.00    +0.145 HD
ATOM     25  H   UNL     1      -0.786  -4.416   1.626  0.00  0.00    +0.145 HD
ENDBRANCH  10  23
BRANCH   9  26
ATOM     26  C   UNL     1      -3.848  -2.496   2.384  0.00  0.00    +0.101 C 
ATOM     27  N   UNL     1      -4.697  -2.987   2.958  0.00  0.00    -0.191 NA
ENDBRANCH   9  26
BRANCH   1  28
ATOM     28  C   UNL     1      -0.023   3.458   0.313  0.00  0.00    +0.123 C 
BRANCH  28  29
ATOM     29  C   UNL     1       0.390   4.025   1.673  0.00  0.00    +0.003 C 
BRANCH  29  30
ATOM     30  C   UNL     1       0.567   5.541   1.560  0.00  0.00    -0.077 C 
BRANCH  30  31
ATOM     31  N   UNL     1       0.944   6.076   2.885  0.00  0.00    +0.379 N 
ATOM     32  H   UNL     1       0.272   5.739   3.585  0.00  0.00    -0.082 HD
BRANCH  31  34
ATOM     33  C   UNL     1       3.325   6.068   2.219  0.00  0.00    -0.017 C 
ATOM     34  C   UNL     1       2.296   5.606   3.253  0.00  0.00    -0.082 C 
ENDBRANCH  31  34
BRANCH  31  35
ATOM     35  C   UNL     1       0.912   7.554   2.861  0.00  0.00    -0.082 C 
ATOM     36  C   UNL     1       0.942   8.070   4.301  0.00  0.00    -0.017 C 
ENDBRANCH  31  35
ENDBRANCH  30  31
ENDBRANCH  29  30
ENDBRANCH  28  29
ENDBRANCH   1  28
TORSDOF 11
