REMARK  Name = ZINC01768216
REMARK  11 active torsions:
REMARK  status: ('A' for Active; 'I' for Inactive)
REMARK    1  A    between atoms: C_1  and  N_63
REMARK    2  A    between atoms: C_2  and  C_3
REMARK    3  A    between atoms: C_2  and  N_63
REMARK    4  A    between atoms: C_4  and  O_28
REMARK    5  A    between atoms: C_10  and  C_24
REMARK    6  A    between atoms: C_11  and  C_14
REMARK    7  A    between atoms: C_17  and  O_22
REMARK    8  A    between atoms: C_18  and  O_20
REMARK    9  A    between atoms: O_20  and  C_21
REMARK   10  A    between atoms: O_22  and  C_23
REMARK   11  A    between atoms: C_29  and  N_63
REMARK                            x       y       z     vdW  Elec       q    Type
REMARK                         _______ _______ _______ _____ _____    ______ ____
ROOT
ATOM      1  C   UNL     1       6.093  -1.059   0.144  0.00  0.00    +0.020 A 
ATOM      2  C   UNL     1       7.002  -1.014  -0.899  0.00  0.00    +0.122 A 
ATOM      3  C   UNL     1       6.739  -0.256  -2.038  0.00  0.00    +0.046 A 
ATOM      4  C   UNL     1       5.576   0.454  -2.140  0.00  0.00    +0.019 A 
ATOM      5  C   UNL     1       4.650   0.419  -1.097  0.00  0.00    +0.065 A 
ATOM      6  C   UNL     1       4.906  -0.343   0.057  0.00  0.00    +0.144 A 
ATOM      7  O   UNL     1       4.010  -0.375   1.063  0.00  0.00    -0.450 OA
ATOM      8  C   UNL     1       2.856   0.296   1.039  0.00  0.00    +0.219 A 
ATOM      9  C   UNL     1       2.480   1.066  -0.015  0.00  0.00    +0.077 A 
ATOM     10  C   UNL     1       3.386   1.173  -1.172  0.00  0.00    +0.201 A 
ATOM     11  O   UNL     1       3.103   1.853  -2.144  0.00  0.00    -0.286 OA
ENDROOT
BRANCH   9  12
ATOM     12  C   UNL     1       1.185   1.789   0.000  0.00  0.00    -0.007 A 
ATOM     13  C   UNL     1      -0.013   1.076   0.008  0.00  0.00    +0.012 A 
ATOM     14  C   UNL     1      -1.217   1.749   0.017  0.00  0.00    +0.050 A 
ATOM     15  C   UNL     1      -1.239   3.136   0.031  0.00  0.00    +0.162 A 
ATOM     16  C   UNL     1      -0.046   3.853   0.023  0.00  0.00    +0.162 A 
ATOM     17  C   UNL     1       1.164   3.182   0.008  0.00  0.00    +0.058 A 
BRANCH  16  18
ATOM     18  O   UNL     1      -0.070   5.213   0.031  0.00  0.00    -0.491 OA
ATOM     19  C   UNL     1       1.192   5.884   0.023  0.00  0.00    +0.277 C 
ENDBRANCH  16  18
BRANCH  15  20
ATOM     20  O   UNL     1      -2.428   3.796   0.045  0.00  0.00    -0.491 OA
ATOM     21  C   UNL     1      -3.614   2.997   0.052  0.00  0.00    +0.277 C 
ENDBRANCH  15  20
ENDBRANCH   9  12
BRANCH   8  22
ATOM     22  C   UNL     1       1.932   0.191   2.224  0.00  0.00    +0.451 C 
ATOM     23  F   UNL     1       1.057  -0.885   2.040  0.00  0.00    -0.163 F 
ATOM     24  F   UNL     1       2.685  -0.014   3.385  0.00  0.00    -0.163 F 
ATOM     25  F   UNL     1       1.196   1.374   2.349  0.00  0.00    -0.163 F 
ENDBRANCH   8  22
BRANCH   2  26
ATOM     26  O   UNL     1       8.161  -1.715  -0.811  0.00  0.00    -0.506 OA
ATOM     27  H   UNL     1       8.103  -2.616  -1.159  0.00  0.00    +0.292 HD
ENDBRANCH   2  26
BRANCH   1  28
ATOM     28  C   UNL     1       6.389  -1.883   1.370  0.00  0.00    -0.036 C 
BRANCH  28  30
ATOM     29  C   UNL     1       6.591  -3.941   0.111  0.00  0.00    -0.095 C 
ATOM     30  N   UNL     1       5.841  -3.242   1.176  0.00  0.00    +0.383 N 
ATOM     31  H   UNL     1       4.856  -3.167   0.896  0.00  0.00    -0.081 HD
BRANCH  30  32
ATOM     32  C   UNL     1       5.925  -4.006   2.438  0.00  0.00    -0.069 C 
ATOM     33  C   UNL     1       7.386  -4.204   2.849  0.00  0.00    -0.015 C 
ATOM     34  C   UNL     1       7.445  -4.998   4.155  0.00  0.00    -0.002 C 
ATOM     35  C   UNL     1       6.782  -6.362   3.954  0.00  0.00    -0.000 C 
ATOM     36  C   UNL     1       5.322  -6.164   3.543  0.00  0.00    -0.002 C 
ATOM     37  C   UNL     1       5.263  -5.370   2.236  0.00  0.00    -0.015 C 
ENDBRANCH  30  32
ENDBRANCH  28  30
ENDBRANCH   1  28
TORSDOF 8
