REMARK  Name = ZINC63511713
REMARK  7 active torsions:
REMARK  status: ('A' for Active; 'I' for Inactive)
REMARK    1  A    between atoms: C_1  and  C_2
REMARK    2  A    between atoms: C_4  and  C_7
REMARK    3  A    between atoms: C_7  and  N_14
REMARK    4  A    between atoms: N_14  and  C_15
REMARK    5  A    between atoms: C_15  and  C_16
REMARK    6  A    between atoms: N_18  and  C_19
REMARK    7  A    between atoms: C_24  and  C_25
REMARK                            x       y       z     vdW  Elec       q    Type
REMARK                         _______ _______ _______ _____ _____    ______ ____
ROOT
ATOM      1  N   UNL     1      -2.459  -3.191   1.158  0.00  0.00    +0.393 N 
ATOM      2  H   UNL     1      -3.100  -2.414   1.216  0.00  0.00    -0.084 HD
ATOM      3  H   UNL     1      -2.978  -4.047   1.032  0.00  0.00    -0.084 HD
ENDROOT
BRANCH   1   4
ATOM      4  C   UNL     1      -1.555  -2.995   0.017  0.00  0.00    -0.003 C 
ATOM      5  C   UNL     1      -2.353  -3.088  -1.256  0.00  0.00    -0.005 C 
ATOM      6  C   UNL     1      -3.588  -3.974  -0.996  0.00  0.00    -0.001 C 
ATOM      7  C   UNL     1      -3.271  -5.394  -1.037  0.00  0.00    -0.000 C 
ATOM      8  C   UNL     1      -2.255  -5.801   0.050  0.00  0.00    -0.000 C 
ATOM      9  C   UNL     1      -0.875  -5.431  -0.422  0.00  0.00    -0.001 C 
ATOM     10  C   UNL     1      -0.430  -4.046   0.085  0.00  0.00    -0.005 C 
BRANCH   4  14
ATOM     11  C   UNL     1      -1.179   1.990   0.339  0.00  0.00    +0.112 C 
ATOM     12  C   UNL     1      -0.796   0.535   0.249  0.00  0.00    +0.224 A 
ATOM     13  N   UNL     1      -1.624  -0.470   0.178  0.00  0.00    -0.198 NA
ATOM     14  C   UNL     1      -0.944  -1.621   0.109  0.00  0.00    +0.161 A 
ATOM     15  N   UNL     1       0.331  -1.359   0.137  0.00  0.00    -0.063 NA
ATOM     16  O   UNL     1       0.453   0.053   0.222  0.00  0.00    -0.338 OA
ENDBRANCH   4  14
ENDBRANCH   1   4
BRANCH   1  17
ATOM     17  C   UNL     1      -1.673  -3.272   2.396  0.00  0.00    +0.017 C 
BRANCH  17  18
ATOM     18  C   UNL     1      -2.605  -3.323   3.580  0.00  0.00    +0.200 C 
ATOM     19  O   UNL     1      -3.805  -3.294   3.408  0.00  0.00    -0.278 OA
ATOM     20  N   UNL     1      -2.105  -3.400   4.829  0.00  0.00    -0.286 N 
ATOM     21  H   UNL     1      -1.146  -3.359   4.970  0.00  0.00    +0.155 HD
BRANCH  20  22
ATOM     22  C   UNL     1      -2.964  -3.538   5.916  0.00  0.00    +0.045 A 
ATOM     23  C   UNL     1      -4.191  -2.888   5.923  0.00  0.00    +0.024 A 
ATOM     24  C   UNL     1      -5.041  -3.026   7.002  0.00  0.00    +0.002 A 
ATOM     25  C   UNL     1      -4.679  -3.812   8.084  0.00  0.00    +0.001 A 
ATOM     26  C   UNL     1      -3.466  -4.465   8.094  0.00  0.00    +0.015 A 
ATOM     27  C   UNL     1      -2.597  -4.340   7.007  0.00  0.00    +0.058 A 
BRANCH  27  28
ATOM     28  C   UNL     1      -1.299  -5.041   7.009  0.00  0.00    +0.243 C 
ATOM     29  O   UNL     1      -0.508  -4.859   6.104  0.00  0.00    -0.270 OA
ATOM     30  N   UNL     1      -0.991  -5.884   8.014  0.00  0.00    -0.325 N 
ATOM     31  H   UNL     1      -1.622  -6.029   8.737  0.00  0.00    +0.145 HD
ATOM     32  H   UNL     1      -0.137  -6.345   8.016  0.00  0.00    +0.145 HD
ENDBRANCH  27  28
ENDBRANCH  20  22
ENDBRANCH  17  18
ENDBRANCH   1  17
TORSDOF 6
