REMARK  Name = ZINC13747857
REMARK  6 active torsions:
REMARK  status: ('A' for Active; 'I' for Inactive)
REMARK    1  A    between atoms: C_1  and  C_2
REMARK    2  A    between atoms: C_2  and  N_3
REMARK    3  A    between atoms: C_5  and  C_8
REMARK    4  A    between atoms: C_10  and  C_21
REMARK    5  A    between atoms: C_14  and  N_20
REMARK    6  A    between atoms: C_15  and  C_17
REMARK                            x       y       z     vdW  Elec       q    Type
REMARK                         _______ _______ _______ _____ _____    ______ ____
ROOT
ATOM      1  C   UNL     1      -1.307   3.724   2.686  0.00  0.00    -0.001 A 
ATOM      2  C   UNL     1      -0.762   3.253   1.499  0.00  0.00    +0.041 A 
ATOM      3  C   UNL     1      -0.564   1.897   1.314  0.00  0.00    +0.145 A 
ATOM      4  N   UNL     1      -0.878   1.036   2.264  0.00  0.00    -0.235 NA
ATOM      5  C   UNL     1      -1.392   1.427   3.411  0.00  0.00    +0.112 A 
ATOM      6  C   UNL     1      -1.644   2.785   3.707  0.00  0.00    +0.037 A 
ATOM      7  C   UNL     1      -2.214   3.037   5.019  0.00  0.00    +0.054 A 
ATOM      8  C   UNL     1      -2.457   1.959   5.845  0.00  0.00    +0.097 A 
ATOM      9  S   UNL     1      -1.920   0.566   4.872  0.00  0.00    -0.062 S 
ENDROOT
BRANCH   1  12
ATOM     10  N   UNL     1      -1.191   7.330   3.065  0.00  0.00    -0.271 N 
ATOM     11  C   UNL     1      -0.582   6.155   2.815  0.00  0.00    +0.116 A 
ATOM     12  C   UNL     1      -1.529   5.174   2.891  0.00  0.00    +0.020 A 
ATOM     13  C   UNL     1      -2.758   5.794   3.196  0.00  0.00    +0.142 A 
ATOM     14  N   UNL     1      -2.548   7.079   3.303  0.00  0.00    -0.179 NA
BRANCH  10  16
ATOM     15  C   UNL     1      -1.272   9.584   2.119  0.00  0.00    +0.029 C 
ATOM     16  C   UNL     1      -0.545   8.645   3.084  0.00  0.00    +0.140 C 
ENDBRANCH  10  16
ENDBRANCH   1  12
BRANCH   8  17
ATOM     17  C   UNL     1      -3.001   1.960   7.152  0.00  0.00    +0.250 C 
ATOM     18  O   UNL     1      -3.319   3.011   7.679  0.00  0.00    -0.270 OA
ATOM     19  N   UNL     1      -3.167   0.798   7.814  0.00  0.00    -0.325 N 
ATOM     20  H   UNL     1      -2.914  -0.040   7.394  0.00  0.00    +0.145 HD
ATOM     21  H   UNL     1      -3.540   0.798   8.709  0.00  0.00    +0.145 HD
ENDBRANCH   8  17
BRANCH   3  22
ATOM     22  C   UNL     1       0.023   1.398   0.018  0.00  0.00    +0.434 C 
ATOM     23  F   UNL     1       0.030  -0.001   0.018  0.00  0.00    -0.164 F 
ATOM     24  F   UNL     1       1.333   1.871  -0.113  0.00  0.00    -0.164 F 
ATOM     25  F   UNL     1      -0.750   1.861  -1.052  0.00  0.00    -0.164 F 
ENDBRANCH   3  22
BRANCH   7  26
ATOM     26  N   UNL     1      -2.507   4.329   5.431  0.00  0.00    -0.356 N 
ATOM     27  H   UNL     1      -2.005   5.078   5.073  0.00  0.00    +0.142 HD
ATOM     28  H   UNL     1      -3.215   4.484   6.076  0.00  0.00    +0.142 HD
ENDBRANCH   7  26
TORSDOF 5
