REMARK  Name = ZINC12490042
REMARK  8 active torsions:
REMARK  status: ('A' for Active; 'I' for Inactive)
REMARK    1  A    between atoms: C_1  and  N_62
REMARK    2  A    between atoms: C_12  and  O_16
REMARK    3  A    between atoms: O_16  and  C_17
REMARK    4  A    between atoms: C_17  and  C_19
REMARK    5  A    between atoms: C_22  and  S_25
REMARK    6  A    between atoms: S_25  and  N_28
REMARK    7  A    between atoms: N_28  and  C_29
REMARK    8  A    between atoms: N_28  and  C_30
REMARK                            x       y       z     vdW  Elec       q    Type
REMARK                         _______ _______ _______ _____ _____    ______ ____
ROOT
ATOM      1  C   UNL     1      -4.678   1.505   0.002  0.00  0.00    +0.344 C 
ATOM      2  O   UNL     1      -4.633   0.291   0.004  0.00  0.00    -0.245 OA
ENDROOT
BRANCH   1   3
ATOM      3  C   UNL     1      -5.979   2.195  -0.110  0.00  0.00    +0.060 A 
ATOM      4  C   UNL     1      -6.036   3.590  -0.107  0.00  0.00    +0.017 A 
ATOM      5  C   UNL     1      -7.254   4.228  -0.217  0.00  0.00    +0.029 A 
ATOM      6  C   UNL     1      -8.419   3.488  -0.318  0.00  0.00    +0.109 A 
ATOM      7  C   UNL     1      -8.371   2.106  -0.316  0.00  0.00    +0.029 A 
ATOM      8  C   UNL     1      -7.159   1.455  -0.212  0.00  0.00    +0.017 A 
BRANCH   6   9
ATOM      9  S   UNL     1      -9.972   4.311  -0.450  0.00  0.00    +0.074 S 
ATOM     10  O   UNL     1      -9.703   5.603  -0.979  0.00  0.00    -0.150 OA
ATOM     11  O   UNL     1     -10.862   3.401  -1.081  0.00  0.00    -0.150 OA
BRANCH   9  12
ATOM     12  N   UNL     1     -10.538   4.538   1.089  0.00  0.00    -0.206 N 
ATOM     13  C   UNL     1     -10.286   5.803   1.783  0.00  0.00    +0.157 C 
BRANCH  12  14
ATOM     14  C   UNL     1     -11.256   3.523   1.726  0.00  0.00    +0.051 A 
ATOM     15  C   UNL     1     -12.450   3.068   1.181  0.00  0.00    +0.025 A 
ATOM     16  C   UNL     1     -13.155   2.061   1.810  0.00  0.00    +0.002 A 
ATOM     17  C   UNL     1     -12.678   1.513   2.987  0.00  0.00    +0.000 A 
ATOM     18  C   UNL     1     -11.493   1.968   3.536  0.00  0.00    +0.002 A 
ATOM     19  C   UNL     1     -10.781   2.971   2.909  0.00  0.00    +0.025 A 
ENDBRANCH  12  14
ENDBRANCH   9  12
ENDBRANCH   6   9
ENDBRANCH   1   3
BRANCH   1  20
ATOM     20  O   UNL     1      -3.542   2.221   0.100  0.00  0.00    -0.422 OA
BRANCH  20  32
ATOM     21  C   UNL     1       5.577  -4.955  -1.661  0.00  0.00    -0.096 C 
ATOM     22  C   UNL     1       4.776  -2.836  -0.805  0.00  0.00    -0.060 C 
ATOM     23  C   UNL     1       3.517  -2.065  -0.398  0.00  0.00    +0.088 C 
ATOM     24  N   UNL     1       2.632  -1.928  -1.563  0.00  0.00    -0.313 N 
ATOM     25  C   UNL     1       2.248  -3.246  -2.087  0.00  0.00    +0.088 C 
ATOM     26  C   UNL     1       3.506  -4.017  -2.494  0.00  0.00    -0.060 C 
ATOM     27  C   UNL     1       1.518  -1.175  -1.252  0.00  0.00    +0.162 A 
ATOM     28  N   UNL     1       1.196  -0.615  -0.108  0.00  0.00    -0.225 NA
ATOM     29  C   UNL     1       0.060   0.101   0.055  0.00  0.00    +0.081 A 
ATOM     30  C   UNL     1      -0.400   0.751   1.223  0.00  0.00    +0.032 A 
ATOM     31  C   UNL     1      -1.583   1.442   1.222  0.00  0.00    +0.048 A 
ATOM     32  C   UNL     1      -2.372   1.530   0.078  0.00  0.00    +0.133 A 
ATOM     33  C   UNL     1      -1.946   0.906  -1.086  0.00  0.00    +0.063 A 
ATOM     34  C   UNL     1      -0.764   0.210  -1.088  0.00  0.00    +0.044 A 
ATOM     35  S   UNL     1       0.146  -0.716  -2.301  0.00  0.00    -0.052 S 
ATOM     36  N   UNL     1       4.376  -4.167  -1.309  0.00  0.00    +0.380 N 
ATOM     37  H   UNL     1       3.857  -4.661  -0.574  0.00  0.00    -0.082 HD
ENDBRANCH  20  32
ENDBRANCH   1  20
TORSDOF 6
