REMARK  Name = ZINC02075413
REMARK  10 active torsions:
REMARK  status: ('A' for Active; 'I' for Inactive)
REMARK    1  A    between atoms: C_1  and  C_2
REMARK    2  A    between atoms: C_2  and  O_3
REMARK    3  A    between atoms: O_3  and  C_4
REMARK    4  A    between atoms: C_4  and  C_6
REMARK    5  A    between atoms: C_7  and  C_38
REMARK    6  A    between atoms: C_8  and  C_37
REMARK    7  A    between atoms: C_10  and  N_11
REMARK    8  A    between atoms: C_12  and  C_14
REMARK    9  A    between atoms: C_14  and  N_77
REMARK   10  A    between atoms: C_21  and  C_31
REMARK                            x       y       z     vdW  Elec       q    Type
REMARK                         _______ _______ _______ _____ _____    ______ ____
ROOT
ATOM      1  C   UNL     1      -3.604   4.435   6.556  0.00  0.00    -0.055 C 
ATOM      2  C   UNL     1      -2.709   3.331   5.981  0.00  0.00    +0.103 C 
ATOM      3  N   UNL     1      -2.767   3.414   4.513  0.00  0.00    -0.347 N 
ATOM      4  C   UNL     1      -1.955   2.859   3.569  0.00  0.00    +0.049 A 
ATOM      5  C   UNL     1      -0.810   2.073   3.671  0.00  0.00    +0.027 A 
ATOM      6  C   UNL     1      -0.219   1.659   2.491  0.00  0.00    +0.006 A 
ATOM      7  C   UNL     1      -0.724   2.012   1.250  0.00  0.00    -0.044 A 
ATOM      8  C   UNL     1      -1.849   2.785   1.115  0.00  0.00    +0.014 A 
ATOM      9  C   UNL     1      -2.475   3.216   2.289  0.00  0.00    +0.003 A 
ATOM     10  C   UNL     1      -3.641   4.019   2.542  0.00  0.00    -0.020 A 
ATOM     11  C   UNL     1      -3.748   4.126   3.882  0.00  0.00    +0.009 A 
ATOM     12  C   UNL     1      -4.859   4.916   4.536  0.00  0.00    -0.020 C 
ATOM     13  C   UNL     1      -6.152   4.620   3.793  0.00  0.00    -0.009 C 
ATOM     14  C   UNL     1      -6.048   4.494   2.294  0.00  0.00    +0.003 C 
ATOM     15  C   UNL     1      -4.671   4.686   1.675  0.00  0.00    +0.037 C 
ATOM     16  N   UNL     1      -4.941   4.399   5.926  0.00  0.00    +0.392 N 
ATOM     17  H   UNL     1      -5.272   3.428   5.902  0.00  0.00    -0.080 HD
ENDROOT
BRANCH   7  18
ATOM     18  C   UNL     1      -0.019   1.526   0.010  0.00  0.00    +0.019 C 
ATOM     19  C   UNL     1       1.417   2.055  -0.000  0.00  0.00    +0.008 C 
ATOM     20  C   UNL     1       2.133   1.562  -1.259  0.00  0.00    +0.001 C 
ATOM     21  C   UNL     1       2.154   0.032  -1.268  0.00  0.00    +0.000 C 
ATOM     22  C   UNL     1       0.718  -0.497  -1.257  0.00  0.00    +0.001 C 
ATOM     23  C   UNL     1       0.002  -0.004   0.002  0.00  0.00    +0.008 C 
ENDBRANCH   7  18
BRANCH  16  24
ATOM     24  C   UNL     1      -5.893   5.213   6.713  0.00  0.00    +0.020 C 
BRANCH  24  26
ATOM     25  N   UNL     1      -6.975   5.087   8.933  0.00  0.00    -0.281 N 
ATOM     26  C   UNL     1      -6.126   4.540   8.041  0.00  0.00    +0.201 C 
ATOM     27  O   UNL     1      -5.549   3.507   8.307  0.00  0.00    -0.278 OA
ATOM     28  H   UNL     1      -7.437   5.914   8.720  0.00  0.00    +0.155 HD
BRANCH  25  33
ATOM     29  C   UNL     1      -8.019   4.875  11.195  0.00  0.00    +0.091 A 
ATOM     30  C   UNL     1      -8.051   4.032  12.367  0.00  0.00    -0.025 A 
ATOM     31  C   UNL     1      -7.279   2.931  12.352  0.00  0.00    -0.008 A 
ATOM     32  S   UNL     1      -6.496   3.000  10.754  0.00  0.00    -0.078 S 
ATOM     33  C   UNL     1      -7.190   4.469  10.155  0.00  0.00    +0.086 A 
ATOM     34  C   UNL     1      -7.119   1.886  13.426  0.00  0.00    +0.052 C 
ATOM     35  C   UNL     1      -8.912   4.371  13.556  0.00  0.00    +0.045 C 
BRANCH  29  36
ATOM     36  C   UNL     1      -8.821   6.097  11.106  0.00  0.00    +0.342 C 
ATOM     37  O   UNL     1      -9.948   6.053  10.651  0.00  0.00    -0.245 OA
BRANCH  36  38
ATOM     38  O   UNL     1      -8.310   7.271  11.529  0.00  0.00    -0.461 OA
BRANCH  38  40
ATOM     39  C   UNL     1      -8.416   9.670  11.937  0.00  0.00    +0.048 C 
ATOM     40  C   UNL     1      -9.162   8.442  11.411  0.00  0.00    +0.229 C 
ENDBRANCH  38  40
ENDBRANCH  36  38
ENDBRANCH  29  36
ENDBRANCH  25  33
ENDBRANCH  24  26
ENDBRANCH  16  24
TORSDOF 7
