REMARK  Name = ZINC29037880
REMARK  7 active torsions:
REMARK  status: ('A' for Active; 'I' for Inactive)
REMARK    1  A    between atoms: C_1  and  C_2
REMARK    2  A    between atoms: C_2  and  C_3
REMARK    3  A    between atoms: C_2  and  C_4
REMARK    4  A    between atoms: C_8  and  C_10
REMARK    5  A    between atoms: C_16  and  C_18
REMARK    6  A    between atoms: C_20  and  C_28
REMARK    7  A    between atoms: N_30  and  O_31
REMARK                            x       y       z     vdW  Elec       q    Type
REMARK                         _______ _______ _______ _____ _____    ______ ____
ROOT
ATOM      1  C   UNL     1      -3.567   1.092   3.465  0.00  0.00    -0.041 C 
ATOM      2  C   UNL     1      -4.707   0.581   3.863  0.00  0.00    -0.004 C 
ATOM      3  C   UNL     1      -5.714  -0.027   2.927  0.00  0.00    +0.135 C 
ATOM      4  N   UNL     1      -5.331   0.278   1.541  0.00  0.00    -0.299 N 
ATOM      5  C   UNL     1      -3.907   0.146   1.188  0.00  0.00    +0.112 C 
ATOM      6  C   UNL     1      -3.116   1.146   2.035  0.00  0.00    +0.054 C 
ATOM      7  C   UNL     1      -6.246   0.663   0.630  0.00  0.00    +0.203 C 
ATOM      8  O   UNL     1      -5.894   0.984  -0.486  0.00  0.00    -0.277 OA
ENDROOT
BRANCH   7   9
ATOM      9  C   UNL     1      -7.707   0.695   0.996  0.00  0.00    +0.028 C 
ATOM     10  C   UNL     1      -8.349  -0.649   0.646  0.00  0.00    +0.072 C 
ATOM     11  C   UNL     1      -9.821  -0.632   1.076  0.00  0.00    +0.016 C 
ATOM     12  C   UNL     1     -10.499   0.587   0.442  0.00  0.00    -0.044 C 
ATOM     13  C   UNL     1     -11.219   0.387  -0.891  0.00  0.00    +0.005 C 
ATOM     14  C   UNL     1     -12.026   0.605   0.391  0.00  0.00    +0.005 C 
ATOM     15  C   UNL     1      -9.776   1.917   0.671  0.00  0.00    -0.075 C 
ATOM     16  N   UNL     1      -8.373   1.774   0.256  0.00  0.00    +0.387 N 
ATOM     17  H   UNL     1      -7.852   2.724   0.445  0.00  0.00    -0.085 HD
ATOM     18  H   UNL     1      -8.346   1.550  -0.821  0.00  0.00    -0.085 HD
BRANCH  10  19
ATOM     19  C   UNL     1      -7.626  -1.756   1.368  0.00  0.00    +0.237 C 
ATOM     20  O   UNL     1      -7.993  -2.102   2.471  0.00  0.00    -0.273 OA
ATOM     21  N   UNL     1      -6.570  -2.361   0.789  0.00  0.00    -0.197 N 
ATOM     22  H   UNL     1      -6.268  -2.083  -0.231  0.00  0.00    +0.182 HD
BRANCH  21  23
ATOM     23  O   UNL     1      -5.849  -3.355   1.495  0.00  0.00    -0.295 OA
ATOM     24  H   UNL     1      -4.987  -3.849   1.022  0.00  0.00    +0.241 HD
ENDBRANCH  21  23
ENDBRANCH  10  19
ENDBRANCH   7   9
BRANCH   1  29
ATOM     25  C   UNL     1      -2.196   3.281   6.191  0.00  0.00    -0.044 A 
ATOM     26  C   UNL     1      -0.966   2.690   6.418  0.00  0.00    +0.004 A 
ATOM     27  C   UNL     1      -0.581   1.579   5.690  0.00  0.00    +0.001 A 
ATOM     28  C   UNL     1      -1.423   1.052   4.732  0.00  0.00    +0.008 A 
ATOM     29  C   UNL     1      -2.663   1.647   4.494  0.00  0.00    -0.022 A 
ATOM     30  C   UNL     1      -3.048   2.765   5.236  0.00  0.00    +0.012 A 
BRANCH  25  32
ATOM     31  C   UNL     1      -2.636   4.138   8.476  0.00  0.00    +0.012 C 
ATOM     32  C   UNL     1      -2.607   4.492   6.988  0.00  0.00    +0.013 C 
ATOM     33  C   UNL     1      -1.604   5.623   6.753  0.00  0.00    +0.012 C 
ENDBRANCH  25  32
ENDBRANCH   1  29
TORSDOF 5
