REMARK  Name = ZINC15974020
REMARK  8 active torsions:
REMARK  status: ('A' for Active; 'I' for Inactive)
REMARK    1  A    between atoms: C_1  and  C_2
REMARK    2  A    between atoms: C_2  and  C_3
REMARK    3  A    between atoms: C_2  and  C_4
REMARK    4  A    between atoms: C_4  and  O_5
REMARK    5  A    between atoms: O_5  and  C_6
REMARK    6  A    between atoms: C_9  and  C_13
REMARK    7  A    between atoms: C_13  and  N_14
REMARK    8  A    between atoms: C_15  and  N_17
REMARK                            x       y       z     vdW  Elec       q    Type
REMARK                         _______ _______ _______ _____ _____    ______ ____
ROOT
ATOM      1  N   UNL     1      -7.000  -5.300  -1.288  0.00  0.00    -0.352 N 
ATOM      2  C   UNL     1      -8.165  -5.700  -1.736  0.00  0.00    +0.198 C 
ATOM      3  N   UNL     1      -9.052  -6.329  -0.887  0.00  0.00    -0.370 N 
ATOM      4  H   UNL     1      -8.797  -6.515   0.030  0.00  0.00    +0.159 HD
ATOM      5  H   UNL     1      -9.931  -6.585  -1.208  0.00  0.00    +0.159 HD
ATOM      6  H   UNL     1      -6.376  -4.858  -1.884  0.00  0.00    +0.163 HD
ENDROOT
BRANCH   2   7
ATOM      7  N   UNL     1      -8.495  -5.496  -3.027  0.00  0.00    -0.182 NA
ATOM      8  C   UNL     1      -9.712  -5.093  -3.341  0.00  0.00    +0.196 C 
ATOM      9  N   UNL     1     -10.603  -4.777  -2.354  0.00  0.00    -0.370 N 
ATOM     10  N   UNL     1     -10.081  -4.990  -4.653  0.00  0.00    -0.370 N 
ATOM     11  H   UNL     1     -10.316  -4.765  -1.427  0.00  0.00    +0.159 HD
ATOM     12  H   UNL     1     -11.522  -4.566  -2.580  0.00  0.00    +0.159 HD
ATOM     13  H   UNL     1      -9.448  -5.214  -5.354  0.00  0.00    +0.159 HD
ATOM     14  H   UNL     1     -10.975  -4.693  -4.884  0.00  0.00    +0.159 HD
ENDBRANCH   2   7
BRANCH   1  15
ATOM     15  C   UNL     1      -6.641  -5.521   0.115  0.00  0.00    +0.151 C 
BRANCH  15  19
ATOM     16  C   UNL     1      -2.728  -3.966   0.846  0.00  0.00    +0.139 A 
ATOM     17  C   UNL     1      -3.841  -3.156   1.016  0.00  0.00    +0.047 A 
ATOM     18  C   UNL     1      -5.104  -3.661   0.779  0.00  0.00    +0.009 A 
ATOM     19  C   UNL     1      -5.261  -4.973   0.372  0.00  0.00    -0.027 A 
ATOM     20  C   UNL     1      -4.154  -5.783   0.202  0.00  0.00    +0.029 A 
ATOM     21  C   UNL     1      -2.886  -5.281   0.432  0.00  0.00    +0.083 A 
ATOM     22 CL   UNL     1      -1.496  -6.296   0.210  0.00  0.00    -0.080 Cl
BRANCH  16  23
ATOM     23  O   UNL     1      -1.483  -3.470   1.078  0.00  0.00    -0.490 OA
BRANCH  23  24
ATOM     24  C   UNL     1      -1.395  -2.108   1.502  0.00  0.00    +0.232 C 
BRANCH  24  26
ATOM     25  C   UNL     1       0.176  -0.243   2.044  0.00  0.00    +0.010 C 
ATOM     26  C   UNL     1       0.073  -1.733   1.712  0.00  0.00    +0.020 C 
ATOM     27  C   UNL     1       0.649  -2.554   2.867  0.00  0.00    +0.010 C 
ENDBRANCH  24  26
ENDBRANCH  23  24
ENDBRANCH  16  23
ENDBRANCH  15  19
ENDBRANCH   1  15
TORSDOF 6
