REMARK  Name = ZINC22123731
REMARK  7 active torsions:
REMARK  status: ('A' for Active; 'I' for Inactive)
REMARK    1  A    between atoms: C_1  and  C_2
REMARK    2  A    between atoms: C_2  and  C_3
REMARK    3  A    between atoms: C_3  and  C_4
REMARK    4  A    between atoms: C_3  and  C_5
REMARK    5  A    between atoms: C_3  and  N_9
REMARK    6  A    between atoms: N_7  and  N_8
REMARK    7  A    between atoms: C_14  and  C_16
REMARK                            x       y       z     vdW  Elec       q    Type
REMARK                         _______ _______ _______ _____ _____    ______ ____
ROOT
ATOM      1  C   UNL     1      -3.093  -0.303  -0.122  0.00  0.00    +0.011 C 
ATOM      2  C   UNL     1      -4.583  -0.242  -0.467  0.00  0.00    -0.000 C 
ENDROOT
BRANCH   1   3
ATOM      3  N   UNL     1      -2.494  -1.487  -0.750  0.00  0.00    +0.391 N 
ATOM      4  C   UNL     1      -2.393  -1.318  -2.205  0.00  0.00    -0.077 C 
ATOM      5  C   UNL     1      -1.901  -2.621  -2.840  0.00  0.00    -0.019 C 
ATOM      6  C   UNL     1      -0.534  -2.984  -2.253  0.00  0.00    -0.003 C 
ATOM      7  C   UNL     1      -0.656  -3.107  -0.732  0.00  0.00    -0.016 C 
ATOM      8  C   UNL     1      -1.184  -1.790  -0.159  0.00  0.00    -0.070 C 
ATOM      9  C   UNL     1      -1.326  -1.915   1.359  0.00  0.00    -0.013 C 
ATOM     10  H   UNL     1      -3.155  -2.345  -0.558  0.00  0.00    -0.080 HD
ENDBRANCH   1   3
BRANCH   1  11
ATOM     11  C   UNL     1      -2.927  -0.388   1.373  0.00  0.00    +0.216 C 
ATOM     12  O   UNL     1      -2.308   0.471   1.964  0.00  0.00    -0.276 OA
ATOM     13  N   UNL     1      -3.466  -1.419   2.053  0.00  0.00    -0.255 N 
ATOM     14  H   UNL     1      -4.089  -2.158   1.529  0.00  0.00    +0.169 HD
BRANCH  13  15
ATOM     15  N   UNL     1      -3.238  -1.546   3.394  0.00  0.00    -0.254 NA
ATOM     16  H   UNL     1      -3.755  -2.440   3.771  0.00  0.00    +0.140 HD
ATOM     17  H   UNL     1      -2.157  -1.644   3.575  0.00  0.00    +0.140 HD
ENDBRANCH  13  15
ENDBRANCH   1  11
BRANCH   1  19
ATOM     18  C   UNL     1      -0.890   0.713  -0.717  0.00  0.00    +0.003 C 
ATOM     19  C   UNL     1      -2.398   0.957  -0.642  0.00  0.00    -0.006 C 
ENDBRANCH   1  19
TORSDOF 4
