REMARK  Name = ZINC64612370
REMARK  6 active torsions:
REMARK  status: ('A' for Active; 'I' for Inactive)
REMARK    1  A    between atoms: C_1  and  C_2
REMARK    2  A    between atoms: C_3  and  N_9
REMARK    3  A    between atoms: C_10  and  C_12
REMARK    4  A    between atoms: N_15  and  C_18
REMARK    5  A    between atoms: C_19  and  C_28
REMARK    6  A    between atoms: C_24  and  C_27
REMARK                            x       y       z     vdW  Elec       q    Type
REMARK                         _______ _______ _______ _____ _____    ______ ____
ROOT
ATOM      1  C   UNL     1      -0.027  -0.193  -4.922  0.00  0.00    +0.078 C 
ATOM      2  C   UNL     1      -1.259   0.700  -5.091  0.00  0.00    +0.031 C 
ATOM      3  C   UNL     1      -1.095   1.555  -6.352  0.00  0.00    +0.106 C 
ATOM      4  N   UNL     1      -0.831   0.668  -7.493  0.00  0.00    -0.329 N 
ATOM      5  C   UNL     1       0.276  -0.293  -7.399  0.00  0.00    +0.106 C 
ATOM      6  C   UNL     1       0.097  -1.128  -6.127  0.00  0.00    +0.031 C 
ENDROOT
BRANCH   4   7
ATOM      7  C   UNL     1      -1.607   0.738  -8.632  0.00  0.00    +0.055 A 
ATOM      8  C   UNL     1      -2.827   0.051  -8.712  0.00  0.00    +0.074 A 
ATOM      9  C   UNL     1      -3.601   0.134  -9.876  0.00  0.00    +0.098 A 
ATOM     10  N   UNL     1      -3.192   0.853 -10.900  0.00  0.00    -0.353 N 
ATOM     11  C   UNL     1      -2.054   1.514 -10.870  0.00  0.00    +0.107 A 
ATOM     12  C   UNL     1      -1.193   1.511  -9.748  0.00  0.00    +0.050 A 
ATOM     13  C   UNL     1      -0.041   2.292  -9.941  0.00  0.00    +0.058 A 
ATOM     14  N   UNL     1       0.149   2.929 -11.055  0.00  0.00    -0.213 NA
ATOM     15  S   UNL     1      -1.180   2.560 -12.007  0.00  0.00    +0.030 S 
ATOM     16  C   UNL     1       0.986   2.391  -8.842  0.00  0.00    +0.067 C 
ATOM     17  H   UNL     1      -3.743   0.897 -11.697  0.00  0.00    +0.166 HD
BRANCH   8  18
ATOM     18  C   UNL     1      -3.294  -0.756  -7.573  0.00  0.00    +0.250 C 
ATOM     19  O   UNL     1      -2.656  -1.728  -7.215  0.00  0.00    -0.270 OA
ATOM     20  N   UNL     1      -4.428  -0.419  -6.928  0.00  0.00    -0.297 N 
ATOM     21  C   UNL     1      -5.350   0.657  -7.320  0.00  0.00    +0.108 C 
ATOM     22  C   UNL     1      -6.487   0.689  -6.278  0.00  0.00    +0.020 C 
ATOM     23  C   UNL     1      -5.846   0.002  -5.043  0.00  0.00    +0.020 C 
ATOM     24  C   UNL     1      -4.954  -1.073  -5.716  0.00  0.00    +0.108 C 
ENDBRANCH   8  18
ENDBRANCH   4   7
BRANCH   1  26
ATOM     25  N   UNL     1      -0.294  -0.397  -2.471  0.00  0.00    -0.285 N 
ATOM     26  C   UNL     1      -0.169  -1.011  -3.664  0.00  0.00    +0.220 C 
ATOM     27  O   UNL     1      -0.170  -2.223  -3.726  0.00  0.00    -0.275 OA
ATOM     28  H   UNL     1      -0.381   0.568  -2.429  0.00  0.00    +0.155 HD
BRANCH  25  31
ATOM     29  C   UNL     1      -1.580   0.696  -0.180  0.00  0.00    +0.047 C 
ATOM     30  C   UNL     1      -0.915  -0.656  -0.152  0.00  0.00    -0.011 A 
ATOM     31  C   UNL     1      -0.298  -1.151  -1.293  0.00  0.00    +0.038 A 
ATOM     32  C   UNL     1       0.314  -2.398  -1.263  0.00  0.00    +0.023 A 
ATOM     33  C   UNL     1       0.308  -3.141  -0.098  0.00  0.00    +0.003 A 
ATOM     34  C   UNL     1      -0.307  -2.646   1.037  0.00  0.00    +0.020 A 
ATOM     35  C   UNL     1      -0.912  -1.401   1.012  0.00  0.00    +0.046 A 
ATOM     36 CL   UNL     1      -1.676  -0.780   2.442  0.00  0.00    -0.083 Cl
ENDBRANCH  25  31
ENDBRANCH   1  26
TORSDOF 4
