REMARK  Name = ZINC40145678
REMARK  10 active torsions:
REMARK  status: ('A' for Active; 'I' for Inactive)
REMARK    1  A    between atoms: C_1  and  C_2
REMARK    2  A    between atoms: C_2  and  C_3
REMARK    3  A    between atoms: C_2  and  C_4
REMARK    4  A    between atoms: C_2  and  C_5
REMARK    5  A    between atoms: C_5  and  C_7
REMARK    6  A    between atoms: C_5  and  N_13
REMARK    7  A    between atoms: C_7  and  N_8
REMARK    8  A    between atoms: N_16  and  C_17
REMARK    9  A    between atoms: C_20  and  N_23
REMARK   10  A    between atoms: C_24  and  C_26
REMARK                            x       y       z     vdW  Elec       q    Type
REMARK                         _______ _______ _______ _____ _____    ______ ____
ROOT
ATOM      1  N   UNL     1      -0.119   0.079  -2.333  0.00  0.00    -0.294 N 
ATOM      2  C   UNL     1      -1.169  -0.603  -2.830  0.00  0.00    +0.304 C 
ATOM      3  O   UNL     1      -1.625  -1.550  -2.217  0.00  0.00    -0.252 OA
ATOM      4  N   UNL     1      -1.715  -0.237  -4.007  0.00  0.00    -0.269 N 
ATOM      5  H   UNL     1       0.245   0.834  -2.822  0.00  0.00    +0.151 HD
ATOM      6  H   UNL     1      -1.401   0.561  -4.460  0.00  0.00    +0.156 HD
ENDROOT
BRANCH   4   7
ATOM      7  C   UNL     1      -2.736  -1.009  -4.577  0.00  0.00    +0.035 A 
ATOM      8  C   UNL     1      -3.737  -0.398  -5.319  0.00  0.00    +0.025 A 
ATOM      9  C   UNL     1      -4.743  -1.159  -5.880  0.00  0.00    +0.025 A 
ATOM     10  C   UNL     1      -4.753  -2.536  -5.703  0.00  0.00    +0.034 A 
ATOM     11  C   UNL     1      -3.751  -3.148  -4.961  0.00  0.00    +0.025 A 
ATOM     12  C   UNL     1      -2.742  -2.387  -4.404  0.00  0.00    +0.025 A 
BRANCH  10  13
ATOM     13  N   UNL     1      -5.774  -3.308  -6.272  0.00  0.00    -0.283 N 
ATOM     14  C   UNL     1      -6.285  -2.970  -7.472  0.00  0.00    +0.246 C 
ATOM     15  O   UNL     1      -5.922  -1.952  -8.021  0.00  0.00    -0.273 OA
ATOM     16  H   UNL     1      -6.113  -4.086  -5.802  0.00  0.00    +0.155 HD
BRANCH  14  17
ATOM     17  C   UNL     1      -7.309  -3.858  -8.132  0.00  0.00    +0.204 C 
ATOM     18  C   UNL     1      -6.671  -5.218  -8.488  0.00  0.00    +0.043 C 
ATOM     19  C   UNL     1      -7.305  -5.528  -9.871  0.00  0.00    +0.031 C 
ATOM     20  C   UNL     1      -7.425  -4.102 -10.466  0.00  0.00    +0.161 C 
ATOM     21  O   UNL     1      -7.759  -3.257  -9.351  0.00  0.00    -0.367 OA
ENDBRANCH  14  17
ENDBRANCH  10  13
ENDBRANCH   4   7
BRANCH   1  22
ATOM     22  C   UNL     1       0.474  -0.319  -1.054  0.00  0.00    +0.099 C 
BRANCH  22  24
ATOM     23  C   UNL     1      -0.240   1.853  -0.046  0.00  0.00    +0.012 C 
ATOM     24  C   UNL     1      -0.303   0.330   0.093  0.00  0.00    -0.018 C 
ATOM     25  C   UNL     1       0.316  -0.086   1.429  0.00  0.00    +0.012 C 
ATOM     26  C   UNL     1      -1.763  -0.127   0.043  0.00  0.00    +0.012 C 
ENDBRANCH  22  24
BRANCH  22  27
ATOM     27  C   UNL     1       1.933   0.138  -1.004  0.00  0.00    +0.145 C 
BRANCH  27  28
ATOM     28  N   UNL     1       2.703  -0.575  -2.027  0.00  0.00    -0.337 N 
ATOM     29  C   UNL     1       3.350  -1.771  -1.870  0.00  0.00    +0.104 A 
ATOM     30  C   UNL     1       3.926  -2.060  -3.052  0.00  0.00    +0.101 A 
ATOM     31  N   UNL     1       3.639  -1.068  -3.908  0.00  0.00    -0.352 N 
ATOM     32  C   UNL     1       2.902  -0.177  -3.302  0.00  0.00    +0.173 A 
ATOM     33  H   UNL     1       3.930  -1.022  -4.832  0.00  0.00    +0.166 HD
ENDBRANCH  27  28
ENDBRANCH  22  27
ENDBRANCH   1  22
TORSDOF 7
