REMARK  Name = ZINC09463419
REMARK  4 active torsions:
REMARK  status: ('A' for Active; 'I' for Inactive)
REMARK    1  A    between atoms: C_1  and  C_15
REMARK    2  A    between atoms: N_2  and  N_3
REMARK    3  A    between atoms: C_4  and  C_6
REMARK    4  A    between atoms: C_8  and  N_13
REMARK                            x       y       z     vdW  Elec       q    Type
REMARK                         _______ _______ _______ _____ _____    ______ ____
ROOT
ATOM      1  N   UNL     1      -1.191   1.870   0.018  0.00  0.00    -0.202 N 
ATOM      2  C   UNL     1      -0.014   1.212   0.009  0.00  0.00    +0.281 C 
ATOM      3  O   UNL     1       0.002  -0.004   0.002  0.00  0.00    -0.267 OA
ATOM      4  H   UNL     1      -1.204   2.840   0.023  0.00  0.00    +0.178 HD
ENDROOT
BRANCH   2   5
ATOM      5  C   UNL     1       1.257   1.969   0.001  0.00  0.00    +0.125 A 
ATOM      6  C   UNL     1       2.468   1.283  -0.009  0.00  0.00    +0.091 A 
ATOM      7  C   UNL     1       3.658   2.011  -0.022  0.00  0.00    +0.067 A 
ATOM      8  C   UNL     1       3.581   3.403  -0.014  0.00  0.00    +0.098 A 
ATOM      9  C   UNL     1       2.337   4.013   0.001  0.00  0.00    +0.128 A 
ATOM     10 CL   UNL     1       2.235   5.746   0.011  0.00  0.00    -0.062 Cl
ATOM     11 CL   UNL     1       5.029   4.362  -0.022  0.00  0.00    -0.079 Cl
ATOM     12 CL   UNL     1       2.498  -0.453  -0.011  0.00  0.00    -0.079 Cl
ATOM     13  N   UNL     1       1.161   3.336   0.009  0.00  0.00    -0.339 N 
ATOM     14  H   UNL     1       0.254   3.818   0.020  0.00  0.00    +0.167 HD
BRANCH   7  15
ATOM     15  N   UNL     1       4.892   1.364  -0.037  0.00  0.00    -0.356 N 
ATOM     16  H   UNL     1       5.711   1.883  -0.042  0.00  0.00    +0.142 HD
ATOM     17  H   UNL     1       4.931   0.395  -0.043  0.00  0.00    +0.142 HD
ENDBRANCH   7  15
ENDBRANCH   2   5
BRANCH   1  19
ATOM     18  C   UNL     1      -3.527   1.787   0.029  0.00  0.00    +0.144 C 
ATOM     19  N   UNL     1      -2.394   1.153   0.020  0.00  0.00    -0.187 NA
BRANCH  18  20
ATOM     20  C   UNL     1      -4.793   1.032   0.030  0.00  0.00    +0.071 A 
ATOM     21  C   UNL     1      -4.778  -0.366   0.017  0.00  0.00    +0.173 A 
ATOM     22  C   UNL     1      -5.970  -1.068   0.024  0.00  0.00    +0.197 A 
ATOM     23  C   UNL     1      -7.178  -0.388   0.034  0.00  0.00    +0.199 A 
ATOM     24  C   UNL     1      -7.201   0.999   0.041  0.00  0.00    +0.197 A 
ATOM     25  C   UNL     1      -6.016   1.712   0.040  0.00  0.00    +0.173 A 
ATOM     26  F   UNL     1      -6.040   3.063   0.047  0.00  0.00    -0.202 F 
ATOM     27  F   UNL     1      -8.382   1.654   0.050  0.00  0.00    -0.199 F 
ATOM     28  F   UNL     1      -8.339  -1.079   0.035  0.00  0.00    -0.199 F 
ATOM     29  F   UNL     1      -5.956  -2.419   0.016  0.00  0.00    -0.199 F 
ATOM     30  F   UNL     1      -3.601  -1.030   0.002  0.00  0.00    -0.202 F 
ENDBRANCH  18  20
ENDBRANCH   1  19
TORSDOF 4
