REMARK  Name = ZINC23548701
REMARK  14 active torsions:
REMARK  status: ('A' for Active; 'I' for Inactive)
REMARK    1  A    between atoms: C_1  and  C_2
REMARK    2  A    between atoms: C_2  and  C_3
REMARK    3  A    between atoms: C_6  and  C_9
REMARK    4  A    between atoms: C_9  and  C_11
REMARK    5  A    between atoms: C_9  and  N_33
REMARK    6  A    between atoms: C_11  and  N_12
REMARK    7  A    between atoms: C_13  and  C_15
REMARK    8  A    between atoms: N_18  and  S_21
REMARK    9  A    between atoms: S_21  and  C_24
REMARK   10  A    between atoms: C_27  and  C_30
REMARK   11  A    between atoms: C_30  and  C_31
REMARK   12  A    between atoms: C_30  and  C_32
REMARK   13  A    between atoms: N_33  and  C_34
REMARK   14  A    between atoms: N_33  and  C_35
REMARK                            x       y       z     vdW  Elec       q    Type
REMARK                         _______ _______ _______ _____ _____    ______ ____
ROOT
ATOM      1  N   UNL     1      -0.226   7.312   6.009  0.00  0.00    -0.316 N 
ATOM      2  C   UNL     1       0.720   6.655   5.310  0.00  0.00    +0.216 C 
ATOM      3  O   UNL     1       1.676   7.257   4.868  0.00  0.00    -0.276 OA
ATOM      4  H   UNL     1      -1.092   6.766   6.410  0.00  0.00    +0.149 HD
ENDROOT
BRANCH   2   5
ATOM      5  C   UNL     1       0.591   5.172   5.076  0.00  0.00    +0.077 C 
ATOM      6  C   UNL     1       1.788   4.677   4.261  0.00  0.00    +0.030 C 
ATOM      7  C   UNL     1       1.671   3.164   4.056  0.00  0.00    +0.110 C 
ATOM      8  N   UNL     1       0.365   2.869   3.450  0.00  0.00    -0.177 NA
ATOM      9  C   UNL     1      -0.848   3.381   4.101  0.00  0.00    +0.110 C 
ATOM     10  C   UNL     1      -0.703   4.887   4.309  0.00  0.00    +0.030 C 
BRANCH   8  11
ATOM     11  S   UNL     1       0.264   1.981   2.055  0.00  0.00    +0.061 S 
ATOM     12  O   UNL     1       1.512   2.122   1.393  0.00  0.00    -0.153 OA
ATOM     13  O   UNL     1      -0.969   2.331   1.441  0.00  0.00    -0.153 OA
BRANCH  11  14
ATOM     14  C   UNL     1       0.130   0.288   2.524  0.00  0.00    +0.105 A 
ATOM     15  C   UNL     1      -1.115  -0.276   2.731  0.00  0.00    +0.029 A 
ATOM     16  C   UNL     1      -1.220  -1.604   3.098  0.00  0.00    +0.006 A 
ATOM     17  C   UNL     1      -0.079  -2.369   3.258  0.00  0.00    -0.045 A 
ATOM     18  C   UNL     1       1.166  -1.805   3.051  0.00  0.00    +0.006 A 
ATOM     19  C   UNL     1       1.270  -0.477   2.683  0.00  0.00    +0.029 A 
BRANCH  17  20
ATOM     20  C   UNL     1      -0.193  -3.817   3.659  0.00  0.00    +0.013 C 
ATOM     21  C   UNL     1       0.435  -4.697   2.577  0.00  0.00    +0.012 C 
ATOM     22  C   UNL     1       0.538  -4.038   4.985  0.00  0.00    +0.012 C 
ENDBRANCH  17  20
ENDBRANCH  11  14
ENDBRANCH   8  11
ENDBRANCH   2   5
BRANCH   1  23
ATOM     23  C   UNL     1      -0.100   8.754   6.236  0.00  0.00    +0.093 C 
BRANCH  23  24
ATOM     24  C   UNL     1      -1.357   9.272   6.937  0.00  0.00    -0.021 C 
BRANCH  24  28
ATOM     25  C   UNL     1      -4.738   8.724   4.384  0.00  0.00    -0.048 A 
ATOM     26  C   UNL     1      -4.494   7.829   5.409  0.00  0.00    +0.004 A 
ATOM     27  C   UNL     1      -3.399   8.006   6.235  0.00  0.00    +0.002 A 
ATOM     28  C   UNL     1      -2.550   9.078   6.036  0.00  0.00    -0.059 A 
ATOM     29  C   UNL     1      -2.798   9.976   5.015  0.00  0.00    +0.002 A 
ATOM     30  C   UNL     1      -3.889   9.796   4.185  0.00  0.00    +0.004 A 
BRANCH  25  32
ATOM     31  C   UNL     1      -7.138   9.267   4.071  0.00  0.00    +0.009 C 
ATOM     32  C   UNL     1      -5.931   8.531   3.484  0.00  0.00    +0.032 C 
ENDBRANCH  25  32
ENDBRANCH  24  28
BRANCH  24  33
ATOM     33  N   UNL     1      -1.197  10.701   7.237  0.00  0.00    +0.382 N 
ATOM     34  C   UNL     1      -2.367  11.222   7.958  0.00  0.00    -0.096 C 
ATOM     35  C   UNL     1       0.038  10.945   7.993  0.00  0.00    -0.096 C 
ATOM     36  H   UNL     1      -1.121  11.241   6.282  0.00  0.00    -0.082 HD
ENDBRANCH  24  33
ENDBRANCH  23  24
ENDBRANCH   1  23
TORSDOF 9
