REMARK  Name = ZINC54616682
REMARK  15 active torsions:
REMARK  status: ('A' for Active; 'I' for Inactive)
REMARK    1  A    between atoms: C_1  and  C_2
REMARK    2  A    between atoms: C_2  and  C_3
REMARK    3  A    between atoms: C_3  and  C_4
REMARK    4  A    between atoms: C_4  and  S_5
REMARK    5  A    between atoms: S_5  and  C_6
REMARK    6  A    between atoms: C_11  and  C_28
REMARK    7  A    between atoms: C_13  and  C_17
REMARK    8  A    between atoms: C_14  and  C_16
REMARK    9  A    between atoms: N_19  and  C_20
REMARK   10  A    between atoms: C_24  and  C_27
REMARK   11  A    between atoms: C_25  and  C_26
REMARK   12  A    between atoms: C_33  and  O_34
REMARK   13  A    between atoms: O_34  and  C_35
REMARK   14  A    between atoms: C_35  and  C_36
REMARK   15  A    between atoms: C_36  and  C_37
REMARK                            x       y       z     vdW  Elec       q    Type
REMARK                         _______ _______ _______ _____ _____    ______ ____
ROOT
ATOM      1  C   UNL     1       3.380  -4.597   2.518  0.00  0.00    +0.210 A 
ATOM      2  N   UNL     1       2.310  -5.079   1.868  0.00  0.00    -0.187 NA
ATOM      3  C   UNL     1       2.174  -6.349   2.135  0.00  0.00    +0.219 A 
ATOM      4  N   UNL     1       3.176  -6.714   2.973  0.00  0.00    -0.220 N 
ATOM      5  N   UNL     1       3.940  -5.571   3.203  0.00  0.00    -0.141 NA
ATOM      6  C   UNL     1       3.351  -8.072   3.480  0.00  0.00    +0.181 C 
ATOM      7  C   UNL     1       2.118  -8.882   3.180  0.00  0.00    +0.060 C 
ATOM      8  C   UNL     1       1.155  -8.468   2.343  0.00  0.00    +0.018 C 
ATOM      9  N   UNL     1       1.217  -7.256   1.700  0.00  0.00    -0.287 N 
ATOM     10  C   UNL     1      -0.034  -9.361   2.101  0.00  0.00    +0.061 C 
ATOM     11  H   UNL     1       0.615  -7.042   0.970  0.00  0.00    +0.155 HD
ENDROOT
BRANCH   6  12
ATOM     12  C   UNL     1       4.544  -8.708   2.813  0.00  0.00    +0.023 A 
ATOM     13  C   UNL     1       4.554  -8.893   1.444  0.00  0.00    +0.009 A 
ATOM     14  C   UNL     1       5.648  -9.476   0.832  0.00  0.00    +0.001 A 
ATOM     15  C   UNL     1       6.735  -9.875   1.589  0.00  0.00    +0.004 A 
ATOM     16  C   UNL     1       6.730  -9.692   2.958  0.00  0.00    +0.046 A 
ATOM     17  C   UNL     1       5.635  -9.102   3.573  0.00  0.00    +0.126 A 
BRANCH  17  18
ATOM     18  O   UNL     1       5.630  -8.915   4.920  0.00  0.00    -0.492 OA
BRANCH  18  19
ATOM     19  C   UNL     1       6.819  -9.271   5.628  0.00  0.00    +0.229 C 
BRANCH  19  20
ATOM     20  C   UNL     1       6.611  -9.034   7.125  0.00  0.00    +0.038 C 
ATOM     21  C   UNL     1       7.920  -9.302   7.871  0.00  0.00    +0.007 C 
ENDBRANCH  19  20
ENDBRANCH  18  19
ENDBRANCH  17  18
ENDBRANCH   6  12
BRANCH   7  22
ATOM     22  C   UNL     1       1.968 -10.140   3.809  0.00  0.00    +0.248 C 
ATOM     23  O   UNL     1       1.611 -10.201   4.972  0.00  0.00    -0.270 OA
ATOM     24  N   UNL     1       2.219 -11.272   3.122  0.00  0.00    -0.281 N 
ATOM     25  H   UNL     1       2.429 -11.229   2.176  0.00  0.00    +0.155 HD
BRANCH  24  26
ATOM     26  C   UNL     1       2.179 -12.509   3.773  0.00  0.00    +0.037 A 
ATOM     27  C   UNL     1       1.158 -12.789   4.673  0.00  0.00    +0.023 A 
ATOM     28  C   UNL     1       1.120 -14.012   5.314  0.00  0.00    +0.002 A 
ATOM     29  C   UNL     1       2.098 -14.957   5.062  0.00  0.00    +0.004 A 
ATOM     30  C   UNL     1       3.116 -14.681   4.167  0.00  0.00    -0.046 A 
ATOM     31  C   UNL     1       3.156 -13.462   3.518  0.00  0.00    -0.026 A 
ATOM     32  C   UNL     1       4.262 -13.165   2.539  0.00  0.00    +0.046 C 
ATOM     33  C   UNL     1       4.179 -15.714   3.896  0.00  0.00    +0.044 C 
ENDBRANCH  24  26
ENDBRANCH   7  22
BRANCH   1  34
ATOM     34  S   UNL     1       3.949  -2.931   2.457  0.00  0.00    -0.084 S 
BRANCH  34  35
ATOM     35  C   UNL     1       2.766  -2.103   1.359  0.00  0.00    +0.077 C 
BRANCH  35  36
ATOM     36  C   UNL     1       3.148  -0.628   1.217  0.00  0.00    +0.011 C 
BRANCH  36  38
ATOM     37  C   UNL     1       2.532   1.545   0.149  0.00  0.00    +0.004 C 
ATOM     38  C   UNL     1       2.150   0.070   0.291  0.00  0.00    -0.003 C 
ENDBRANCH  36  38
ENDBRANCH  35  36
ENDBRANCH  34  35
ENDBRANCH   1  34
TORSDOF 10
