REMARK  Name = ZINC09015076
REMARK  12 active torsions:
REMARK  status: ('A' for Active; 'I' for Inactive)
REMARK    1  A    between atoms: C_1  and  C_2
REMARK    2  A    between atoms: C_2  and  C_3
REMARK    3  A    between atoms: C_3  and  C_4
REMARK    4  A    between atoms: C_4  and  N_5
REMARK    5  A    between atoms: C_16  and  C_17
REMARK    6  A    between atoms: C_16  and  O_27
REMARK    7  A    between atoms: N_32  and  C_33
REMARK    8  A    between atoms: C_33  and  C_34
REMARK    9  A    between atoms: C_34  and  C_35
REMARK   10  A    between atoms: C_35  and  N_71
REMARK   11  A    between atoms: C_36  and  N_71
REMARK   12  A    between atoms: C_37  and  N_71
REMARK                            x       y       z     vdW  Elec       q    Type
REMARK                         _______ _______ _______ _____ _____    ______ ____
ROOT
ATOM      1  N   UNL     1      -1.142   1.869  -0.020  0.00  0.00    -0.269 N 
ATOM      2  C   UNL     1       0.013   1.119   0.207  0.00  0.00    +0.042 A 
ATOM      3  C   UNL     1       1.335   1.518   0.401  0.00  0.00    +0.024 A 
ATOM      4  C   UNL     1       2.318   0.575   0.617  0.00  0.00    +0.002 A 
ATOM      5  C   UNL     1       2.003  -0.771   0.642  0.00  0.00    +0.000 A 
ATOM      6  C   UNL     1       0.693  -1.175   0.450  0.00  0.00    +0.008 A 
ATOM      7  C   UNL     1      -0.292  -0.237   0.235  0.00  0.00    +0.011 A 
ATOM      8  C   UNL     1      -1.775  -0.335  -0.003  0.00  0.00    +0.174 C 
ATOM      9  C   UNL     1      -2.232   1.093  -0.160  0.00  0.00    +0.253 C 
ATOM     10  O   UNL     1      -3.366   1.471  -0.367  0.00  0.00    -0.272 OA
ATOM     11  C   UNL     1      -2.075  -1.137  -1.241  0.00  0.00    +0.083 C 
ATOM     12  C   UNL     1      -1.638  -0.880  -2.526  0.00  0.00    +0.134 C 
ATOM     13  C   UNL     1      -2.891  -2.201  -0.821  0.00  0.00    +0.250 C 
ATOM     14  O   UNL     1      -3.347  -3.076  -1.535  0.00  0.00    -0.282 OA
ATOM     15  C   UNL     1      -3.101  -2.072   0.647  0.00  0.00    +0.288 C 
ATOM     16  O   UNL     1      -3.761  -2.833   1.325  0.00  0.00    -0.266 OA
ATOM     17  N   UNL     1      -2.452  -0.989   1.112  0.00  0.00    -0.273 N 
ENDROOT
BRANCH  12  18
ATOM     18  C   UNL     1      -1.902  -1.849  -3.601  0.00  0.00    +0.021 A 
ATOM     19  C   UNL     1      -1.567  -3.197  -3.429  0.00  0.00    +0.015 A 
ATOM     20  C   UNL     1      -1.819  -4.101  -4.436  0.00  0.00    +0.050 A 
ATOM     21  C   UNL     1      -2.397  -3.680  -5.629  0.00  0.00    +0.162 A 
ATOM     22  C   UNL     1      -2.731  -2.339  -5.808  0.00  0.00    +0.163 A 
ATOM     23  C   UNL     1      -2.485  -1.425  -4.801  0.00  0.00    +0.061 A 
ATOM     24  O   UNL     1      -3.306  -1.914  -6.967  0.00  0.00    -0.485 OA
ATOM     25  C   UNL     1      -3.200  -2.788  -8.096  0.00  0.00    +0.270 C 
ATOM     26  C   UNL     1      -3.551  -4.209  -7.638  0.00  0.00    +0.270 C 
ATOM     27  O   UNL     1      -2.629  -4.591  -6.611  0.00  0.00    -0.485 OA
ENDBRANCH  12  18
BRANCH  12  28
ATOM     28  O   UNL     1      -0.968   0.261  -2.796  0.00  0.00    -0.506 OA
ATOM     29  H   UNL     1      -0.728   0.285  -3.766  0.00  0.00    +0.292 HD
ENDBRANCH  12  28
BRANCH   1  30
ATOM     30  C   UNL     1      -1.163   3.332  -0.105  0.00  0.00    +0.114 C 
BRANCH  30  31
ATOM     31  C   UNL     1      -0.943   3.761  -1.557  0.00  0.00    +0.019 C 
BRANCH  31  33
ATOM     32  C   UNL     1      -0.745   5.718  -3.098  0.00  0.00    +0.004 C 
ATOM     33  C   UNL     1      -0.965   5.288  -1.646  0.00  0.00    -0.002 C 
ENDBRANCH  31  33
ENDBRANCH  30  31
ENDBRANCH   1  30
BRANCH  17  34
ATOM     34  C   UNL     1      -2.429  -0.541   2.507  0.00  0.00    +0.108 C 
BRANCH  34  35
ATOM     35  C   UNL     1      -3.594   0.420   2.753  0.00  0.00    +0.000 C 
BRANCH  35  36
ATOM     36  C   UNL     1      -3.570   0.888   4.210  0.00  0.00    -0.078 C 
BRANCH  36  39
ATOM     37  C   UNL     1      -4.841   2.096   5.879  0.00  0.00    -0.097 C 
ATOM     38  C   UNL     1      -4.519   3.051   3.678  0.00  0.00    -0.097 C 
ATOM     39  N   UNL     1      -4.712   1.798   4.437  0.00  0.00    +0.376 N 
ATOM     40  H   UNL     1      -5.572   1.341   4.112  0.00  0.00    -0.083 HD
ENDBRANCH  36  39
ENDBRANCH  35  36
ENDBRANCH  34  35
ENDBRANCH  17  34
TORSDOF 9
