REMARK  Name = ZINC43465494
REMARK  11 active torsions:
REMARK  status: ('A' for Active; 'I' for Inactive)
REMARK    1  A    between atoms: C_1  and  O_2
REMARK    2  A    between atoms: O_2  and  C_3
REMARK    3  A    between atoms: C_6  and  C_9
REMARK    4  A    between atoms: C_14  and  O_21
REMARK    5  A    between atoms: C_16  and  O_20
REMARK    6  A    between atoms: O_21  and  C_22
REMARK    7  A    between atoms: C_24  and  O_37
REMARK    8  A    between atoms: C_26  and  O_36
REMARK    9  A    between atoms: C_28  and  O_35
REMARK   10  A    between atoms: C_30  and  C_33
REMARK   11  A    between atoms: C_33  and  O_34
REMARK                            x       y       z     vdW  Elec       q    Type
REMARK                         _______ _______ _______ _____ _____    ______ ____
ROOT
ATOM      1  C   UNL     1       2.577  -2.541   4.295  0.00  0.00    +0.064 A 
ATOM      2  C   UNL     1       2.090  -2.442   5.559  0.00  0.00    +0.208 A 
ATOM      3  O   UNL     1       2.664  -3.042   6.604  0.00  0.00    -0.462 OA
ATOM      4  C   UNL     1       3.920  -3.526   6.541  0.00  0.00    +0.145 A 
ATOM      5  C   UNL     1       4.611  -3.850   7.700  0.00  0.00    +0.093 A 
ATOM      6  C   UNL     1       5.899  -4.356   7.624  0.00  0.00    +0.131 A 
ATOM      7  C   UNL     1       6.516  -4.547   6.392  0.00  0.00    +0.092 A 
ATOM      8  C   UNL     1       5.847  -4.228   5.225  0.00  0.00    +0.135 A 
ATOM      9  C   UNL     1       4.548  -3.710   5.296  0.00  0.00    +0.106 A 
ATOM     10  C   UNL     1       3.800  -3.340   4.081  0.00  0.00    +0.204 A 
ATOM     11  O   UNL     1       4.169  -3.670   2.967  0.00  0.00    -0.286 OA
ENDROOT
BRANCH   1  15
ATOM     12  C   UNL     1       0.626  -0.618   1.042  0.00  0.00    +0.120 A 
ATOM     13  C   UNL     1       1.202   0.141   2.050  0.00  0.00    +0.046 A 
ATOM     14  C   UNL     1       1.835  -0.479   3.107  0.00  0.00    +0.012 A 
ATOM     15  C   UNL     1       1.897  -1.871   3.161  0.00  0.00    -0.011 A 
ATOM     16  C   UNL     1       1.317  -2.631   2.146  0.00  0.00    +0.012 A 
ATOM     17  C   UNL     1       0.681  -2.004   1.095  0.00  0.00    +0.046 A 
BRANCH  12  19
ATOM     18  C   UNL     1      -0.017   1.425   0.010  0.00  0.00    +0.277 C 
ATOM     19  O   UNL     1       0.002  -0.004   0.002  0.00  0.00    -0.495 OA
ENDBRANCH  12  19
ENDBRANCH   1  15
BRANCH   8  20
ATOM     20  O   UNL     1       6.444  -4.416   4.021  0.00  0.00    -0.506 OA
ATOM     21  H   UNL     1       6.289  -5.289   3.636  0.00  0.00    +0.292 HD
ENDBRANCH   8  20
BRANCH   6  22
ATOM     22  O   UNL     1       6.566  -4.667   8.764  0.00  0.00    -0.461 OA
BRANCH  22  23
ATOM     23  C   UNL     1       7.891  -5.184   8.620  0.00  0.00    +0.339 C 
ATOM     24  C   UNL     1       8.385  -5.705   9.973  0.00  0.00    +0.214 C 
ATOM     25  C   UNL     1       8.445  -4.542  10.968  0.00  0.00    +0.180 C 
ATOM     26  C   UNL     1       9.352  -3.445  10.400  0.00  0.00    +0.177 C 
ATOM     27  C   UNL     1       8.820  -3.012   9.032  0.00  0.00    +0.179 C 
ATOM     28  O   UNL     1       8.760  -4.146   8.164  0.00  0.00    -0.331 OA
BRANCH  26  29
ATOM     29  O   UNL     1      10.681  -3.950  10.259  0.00  0.00    -0.386 OA
ATOM     30  H   UNL     1      11.079  -4.248  11.089  0.00  0.00    +0.210 HD
ENDBRANCH  26  29
BRANCH  25  31
ATOM     31  O   UNL     1       7.131  -4.019  11.173  0.00  0.00    -0.386 OA
ATOM     32  H   UNL     1       6.502  -4.664  11.526  0.00  0.00    +0.210 HD
ENDBRANCH  25  31
BRANCH  24  33
ATOM     33  O   UNL     1       7.485  -6.704  10.457  0.00  0.00    -0.383 OA
ATOM     34  H   UNL     1       7.395  -7.469   9.873  0.00  0.00    +0.210 HD
ENDBRANCH  24  33
BRANCH  27  35
ATOM     35  C   UNL     1       9.754  -1.959   8.432  0.00  0.00    +0.190 C 
BRANCH  35  36
ATOM     36  O   UNL     1       9.198  -1.470   7.210  0.00  0.00    -0.392 OA
ATOM     37  H   UNL     1       9.738  -0.797   6.773  0.00  0.00    +0.210 HD
ENDBRANCH  35  36
ENDBRANCH  27  35
ENDBRANCH  22  23
ENDBRANCH   6  22
TORSDOF 10
