REMARK  Name = ZINC50953266
REMARK  6 active torsions:
REMARK  status: ('A' for Active; 'I' for Inactive)
REMARK    1  A    between atoms: C_1  and  C_2
REMARK    2  A    between atoms: C_5  and  C_11
REMARK    3  A    between atoms: C_6  and  C_10
REMARK    4  A    between atoms: C_7  and  O_8
REMARK    5  A    between atoms: O_8  and  C_9
REMARK    6  A    between atoms: C_11  and  N_12
REMARK                            x       y       z     vdW  Elec       q    Type
REMARK                         _______ _______ _______ _____ _____    ______ ____
ROOT
ATOM      1  C   UNL     1       0.059  -4.231  -0.172  0.00  0.00    +0.156 C 
ENDROOT
BRANCH   1   2
ATOM      2  N   UNL     1      -1.294  -4.749   0.049  0.00  0.00    -0.323 N 
ATOM      3  C   UNL     1      -1.525  -6.115   0.023  0.00  0.00    +0.125 A 
ATOM      4  C   UNL     1      -0.476  -7.006  -0.206  0.00  0.00    +0.083 A 
ATOM      5  C   UNL     1      -0.753  -8.361  -0.222  0.00  0.00    +0.136 A 
ATOM      6  N   UNL     1      -1.999  -8.770  -0.021  0.00  0.00    -0.203 NA
ATOM      7  C   UNL     1      -2.974  -7.900   0.195  0.00  0.00    +0.216 A 
ATOM      8  N   UNL     1      -2.748  -6.595   0.223  0.00  0.00    -0.200 NA
ATOM      9  N   UNL     1      -4.261  -8.367   0.400  0.00  0.00    -0.327 N 
ATOM     10 CL   UNL     1       0.514  -9.513  -0.503  0.00  0.00    -0.062 Cl
ATOM     11  H   UNL     1      -2.027  -4.136   0.212  0.00  0.00    +0.148 HD
ATOM     12  H   UNL     1      -4.439  -9.320   0.386  0.00  0.00    +0.145 HD
ATOM     13  H   UNL     1      -4.984  -7.740   0.559  0.00  0.00    +0.145 HD
ENDBRANCH   1   2
BRANCH   1  18
ATOM     14  C   UNL     1      -0.018   1.503   0.010  0.00  0.00    +0.049 C 
ATOM     15  C   UNL     1       0.002  -0.004   0.002  0.00  0.00    +0.007 A 
ATOM     16  C   UNL     1       0.006  -0.697  -1.191  0.00  0.00    +0.089 A 
ATOM     17  N   UNL     1       0.024  -2.016  -1.207  0.00  0.00    -0.362 N 
ATOM     18  C   UNL     1       0.039  -2.726  -0.095  0.00  0.00    +0.040 A 
ATOM     19  C   UNL     1       0.036  -2.108   1.139  0.00  0.00    +0.012 A 
ATOM     20  C   UNL     1       0.023  -0.716   1.198  0.00  0.00    +0.129 A 
ATOM     21  C   UNL     1       0.053  -2.926   2.404  0.00  0.00    +0.049 C 
ATOM     22  H   UNL     1       0.027  -2.477  -2.060  0.00  0.00    +0.165 HD
BRANCH  20  23
ATOM     23  O   UNL     1       0.025  -0.071   2.393  0.00  0.00    -0.494 OA
ATOM     24  C   UNL     1      -1.247   0.220   2.975  0.00  0.00    +0.277 C 
ENDBRANCH  20  23
ENDBRANCH   1  18
TORSDOF 3
