REMARK  Name = ZINC39467526
REMARK  5 active torsions:
REMARK  status: ('A' for Active; 'I' for Inactive)
REMARK    1  A    between atoms: C_1  and  C_2
REMARK    2  A    between atoms: C_2  and  O_3
REMARK    3  A    between atoms: O_3  and  C_4
REMARK    4  A    between atoms: P_13  and  C_23
REMARK    5  A    between atoms: C_28  and  O_29
REMARK                            x       y       z     vdW  Elec       q    Type
REMARK                         _______ _______ _______ _____ _____    ______ ____
ROOT
ATOM      1  C   UNL     1      -1.498  -1.848   0.006  0.00  0.00    +0.130 C 
ATOM      2  C   UNL     1      -0.428  -2.653  -0.003  0.00  0.00    +0.023 C 
ATOM      3  C   UNL     1      -0.643  -4.141   0.005  0.00  0.00    +0.019 C 
ATOM      4  C   UNL     1       0.575  -4.882   0.546  0.00  0.00    -0.002 C 
ATOM      5  C   UNL     1       0.288  -6.390   0.568  0.00  0.00    -0.020 C 
ATOM      6  C   UNL     1       1.532  -7.082   1.140  0.00  0.00    +0.157 C 
ATOM      7  O   UNL     1       1.345  -8.509   1.099  0.00  0.00    -0.316 OA
ATOM      8  P   UNL     1      -0.036  -9.109   1.715  0.00  0.00    +0.291 P 
ATOM      9  O   UNL     1       0.058  -9.203   3.189  0.00  0.00    -0.269 OA
ATOM     10  N   UNL     1      -1.209  -8.031   1.284  0.00  0.00    -0.288 NA
ATOM     11  N   UNL     1      -0.891  -6.691   1.380  0.00  0.00    +0.398 N 
ATOM     12  C   UNL     1      -2.079  -5.967   0.894  0.00  0.00    -0.046 C 
ATOM     13  C   UNL     1      -1.835  -4.464   0.916  0.00  0.00    +0.005 C 
ATOM     14  C   UNL     1      -3.031  -3.683   0.448  0.00  0.00    -0.007 C 
ATOM     15  C   UNL     1      -2.853  -2.435   0.016  0.00  0.00    +0.051 C 
ATOM     16  I   UNL     1      -4.491  -1.314  -0.654  0.00  0.00    -0.040 I 
ATOM     17  H   UNL     1      -2.083  -8.331   0.987  0.00  0.00    +0.111 HD
ATOM     18  H   UNL     1      -0.711  -6.441   2.341  0.00  0.00    -0.055 HD
ENDROOT
BRANCH   8  19
ATOM     19  C   UNL     1      -0.385 -10.741   1.004  0.00  0.00    +0.091 A 
ATOM     20  C   UNL     1      -1.132 -10.845  -0.154  0.00  0.00    +0.018 A 
ATOM     21  C   UNL     1      -1.399 -12.089  -0.696  0.00  0.00    +0.001 A 
ATOM     22  C   UNL     1      -0.918 -13.231  -0.083  0.00  0.00    +0.004 A 
ATOM     23  C   UNL     1      -0.170 -13.132   1.074  0.00  0.00    +0.046 A 
ATOM     24  C   UNL     1       0.104 -11.885   1.618  0.00  0.00    +0.131 A 
BRANCH  24  25
ATOM     25  O   UNL     1       0.844 -11.785   2.753  0.00  0.00    -0.506 OA
ATOM     26  H   UNL     1       0.322 -11.809   3.567  0.00  0.00    +0.292 HD
ENDBRANCH  24  25
ENDBRANCH   8  19
BRANCH   1  27
ATOM     27  O   UNL     1      -1.339  -0.499   0.012  0.00  0.00    -0.492 OA
BRANCH  27  29
ATOM     28  C   UNL     1      -0.019   1.526   0.010  0.00  0.00    +0.048 C 
ATOM     29  C   UNL     1       0.002  -0.004   0.002  0.00  0.00    +0.226 C 
ENDBRANCH  27  29
ENDBRANCH   1  27
TORSDOF 4
