REMARK  Name = ZINC17107037
REMARK  12 active torsions:
REMARK  status: ('A' for Active; 'I' for Inactive)
REMARK    1  A    between atoms: C_1  and  N_2
REMARK    2  A    between atoms: N_7  and  C_10
REMARK    3  A    between atoms: N_11  and  C_20
REMARK    4  A    between atoms: C_20  and  C_21
REMARK    5  A    between atoms: C_21  and  C_22
REMARK    6  A    between atoms: C_22  and  N_63
REMARK    7  A    between atoms: C_23  and  C_24
REMARK    8  A    between atoms: C_23  and  N_63
REMARK    9  A    between atoms: C_24  and  C_26
REMARK   10  A    between atoms: C_24  and  O_34
REMARK   11  A    between atoms: C_29  and  O_33
REMARK   12  A    between atoms: C_30  and  O_32
REMARK                            x       y       z     vdW  Elec       q    Type
REMARK                         _______ _______ _______ _____ _____    ______ ____
ROOT
ATOM      1  C   UNL     1       9.255   4.662  -6.508  0.00  0.00    +0.123 C 
ENDROOT
BRANCH   1  12
ATOM      2  C   UNL     1      10.321   8.098  -1.555  0.00  0.00    +0.155 C 
ATOM      3  N   UNL     1       9.790   7.936  -2.911  0.00  0.00    -0.280 N 
ATOM      4  C   UNL     1       9.891   6.712  -3.552  0.00  0.00    +0.170 A 
ATOM      5  C   UNL     1       9.384   6.587  -4.841  0.00  0.00    +0.153 A 
ATOM      6  C   UNL     1       8.787   7.702  -5.455  0.00  0.00    +0.282 A 
ATOM      7  O   UNL     1       8.333   7.615  -6.583  0.00  0.00    -0.265 OA
ATOM      8  N   UNL     1       8.722   8.870  -4.783  0.00  0.00    -0.262 N 
ATOM      9  C   UNL     1       9.218   8.981  -3.538  0.00  0.00    +0.333 A 
ATOM     10  O   UNL     1       9.142  10.049  -2.963  0.00  0.00    -0.246 OA
ATOM     11  C   UNL     1       8.101  10.035  -5.418  0.00  0.00    +0.157 C 
ATOM     12  N   UNL     1       9.615   5.273  -5.227  0.00  0.00    -0.306 N 
ATOM     13  C   UNL     1      10.247   4.666  -4.188  0.00  0.00    +0.201 A 
ATOM     14  N   UNL     1      10.402   5.530  -3.205  0.00  0.00    -0.196 NA
ATOM     15  N   UNL     1      10.659   3.353  -4.165  0.00  0.00    -0.297 N 
ATOM     16  C   UNL     1       9.975   2.605  -3.100  0.00  0.00    +0.136 C 
ATOM     17  C   UNL     1      10.418   1.140  -3.150  0.00  0.00    +0.179 C 
ATOM     18  O   UNL     1      11.841   1.073  -3.030  0.00  0.00    -0.377 OA
ATOM     19  C   UNL     1      12.539   1.791  -4.052  0.00  0.00    +0.179 C 
ATOM     20  C   UNL     1      12.118   3.262  -4.012  0.00  0.00    +0.136 C 
ENDBRANCH   1  12
BRANCH   1  21
ATOM     21  C   UNL     1       7.844   4.078  -6.416  0.00  0.00    +0.003 C 
BRANCH  21  22
ATOM     22  C   UNL     1       7.515   3.331  -7.710  0.00  0.00    -0.081 C 
BRANCH  22  23
ATOM     23  N   UNL     1       6.154   2.771  -7.612  0.00  0.00    +0.381 N 
ATOM     24  H   UNL     1       5.483   3.536  -7.471  0.00  0.00    -0.086 HD
ATOM     25  H   UNL     1       6.109   2.125  -6.816  0.00  0.00    -0.086 HD
BRANCH  23  26
ATOM     26  C   UNL     1       5.809   2.044  -8.848  0.00  0.00    -0.046 C 
BRANCH  26  27
ATOM     27  C   UNL     1       4.395   1.476  -8.719  0.00  0.00    +0.128 C 
BRANCH  27  28
ATOM     28  C   UNL     1       4.035   0.730  -9.978  0.00  0.00    -0.017 A 
ATOM     29  C   UNL     1       4.410  -0.592 -10.128  0.00  0.00    +0.010 A 
ATOM     30  C   UNL     1       4.083  -1.280 -11.281  0.00  0.00    +0.049 A 
ATOM     31  C   UNL     1       3.378  -0.644 -12.291  0.00  0.00    +0.158 A 
ATOM     32  C   UNL     1       3.000   0.687 -12.140  0.00  0.00    +0.159 A 
ATOM     33  C   UNL     1       3.331   1.370 -10.981  0.00  0.00    +0.055 A 
BRANCH  32  34
ATOM     34  O   UNL     1       2.313   1.316 -13.130  0.00  0.00    -0.503 OA
ATOM     35  H   UNL     1       1.352   1.241 -13.051  0.00  0.00    +0.292 HD
ENDBRANCH  32  34
BRANCH  31  36
ATOM     36  O   UNL     1       3.056  -1.319 -13.427  0.00  0.00    -0.503 OA
ATOM     37  H   UNL     1       3.723  -1.257 -14.124  0.00  0.00    +0.292 HD
ENDBRANCH  31  36
ENDBRANCH  27  28
BRANCH  27  38
ATOM     38  O   UNL     1       4.341   0.583  -7.604  0.00  0.00    -0.389 OA
ATOM     39  H   UNL     1       4.945  -0.170  -7.673  0.00  0.00    +0.210 HD
ENDBRANCH  27  38
ENDBRANCH  26  27
ENDBRANCH  23  26
ENDBRANCH  22  23
ENDBRANCH  21  22
ENDBRANCH   1  21
TORSDOF 10
