REMARK  Name = ZINC41585843
REMARK  11 active torsions:
REMARK  status: ('A' for Active; 'I' for Inactive)
REMARK    1  A    between atoms: C_1  and  C_2
REMARK    2  A    between atoms: C_4  and  O_38
REMARK    3  A    between atoms: C_5  and  C_25
REMARK    4  A    between atoms: C_11  and  C_12
REMARK    5  A    between atoms: C_14  and  O_22
REMARK    6  A    between atoms: C_15  and  O_20
REMARK    7  A    between atoms: C_17  and  O_18
REMARK    8  A    between atoms: O_18  and  C_19
REMARK    9  A    between atoms: O_20  and  C_21
REMARK   10  A    between atoms: O_22  and  C_23
REMARK   11  A    between atoms: C_25  and  N_26
REMARK                            x       y       z     vdW  Elec       q    Type
REMARK                         _______ _______ _______ _____ _____    ______ ____
ROOT
ATOM      1  C   UNL     1      -0.537   1.526  -0.363  0.00  0.00    +0.045 C 
ATOM      2  C   UNL     1      -0.545   0.020  -0.309  0.00  0.00    -0.033 A 
ATOM      3  C   UNL     1      -0.714  -0.705  -1.455  0.00  0.00    +0.050 A 
ATOM      4  C   UNL     1      -0.722  -2.096  -1.408  0.00  0.00    +0.125 A 
ATOM      5  C   UNL     1      -0.559  -2.761  -0.203  0.00  0.00    +0.051 A 
ATOM      6  C   UNL     1      -0.386  -2.039   0.971  0.00  0.00    +0.148 A 
ATOM      7  C   UNL     1      -0.374  -0.636   0.910  0.00  0.00    +0.071 A 
ATOM      8  C   UNL     1      -0.170  -0.162   2.291  0.00  0.00    +0.232 C 
ATOM      9  O   UNL     1      -0.102   0.991   2.681  0.00  0.00    -0.283 OA
ATOM     10  C   UNL     1      -0.066  -1.388   3.090  0.00  0.00    +0.176 C 
ATOM     11  C   UNL     1       0.128  -1.456   4.435  0.00  0.00    +0.062 C 
ATOM     12  O   UNL     1      -0.210  -2.440   2.249  0.00  0.00    -0.451 OA
ENDROOT
BRANCH  11  13
ATOM     13  C   UNL     1       0.255  -2.760   5.091  0.00  0.00    +0.024 A 
ATOM     14  C   UNL     1      -0.158  -3.925   4.429  0.00  0.00    +0.061 A 
ATOM     15  C   UNL     1      -0.036  -5.149   5.052  0.00  0.00    +0.162 A 
ATOM     16  C   UNL     1       0.497  -5.230   6.341  0.00  0.00    +0.165 A 
ATOM     17  C   UNL     1       0.906  -4.083   7.002  0.00  0.00    +0.095 A 
ATOM     18  C   UNL     1       0.796  -2.849   6.386  0.00  0.00    +0.131 A 
BRANCH  18  19
ATOM     19  O   UNL     1       1.204  -1.726   7.031  0.00  0.00    -0.494 OA
ATOM     20  C   UNL     1       1.744  -1.893   8.344  0.00  0.00    +0.277 C 
ENDBRANCH  18  19
BRANCH  16  21
ATOM     21  O   UNL     1       0.613  -6.439   6.949  0.00  0.00    -0.491 OA
ATOM     22  C   UNL     1       1.166  -6.452   8.266  0.00  0.00    +0.277 C 
ENDBRANCH  16  21
BRANCH  15  23
ATOM     23  O   UNL     1      -0.436  -6.280   4.411  0.00  0.00    -0.491 OA
ATOM     24  C   UNL     1      -1.085  -6.115   3.148  0.00  0.00    +0.277 C 
ENDBRANCH  15  23
ENDBRANCH  11  13
BRANCH   4  25
ATOM     25  O   UNL     1      -0.891  -2.808  -2.551  0.00  0.00    -0.506 OA
ATOM     26  H   UNL     1      -0.065  -3.023  -3.006  0.00  0.00    +0.292 HD
ENDBRANCH   4  25
BRANCH   5  27
ATOM     27  C   UNL     1      -0.571  -4.268  -0.167  0.00  0.00    +0.127 C 
BRANCH  27  28
ATOM     28  N   UNL     1       0.761  -4.777  -0.519  0.00  0.00    -0.295 NA
ATOM     29  C   UNL     1       1.719  -4.542   0.569  0.00  0.00    +0.103 C 
ATOM     30  C   UNL     1       3.127  -4.919   0.096  0.00  0.00    +0.122 C 
ATOM     31  N   UNL     1       3.094  -6.297  -0.417  0.00  0.00    -0.314 N 
ATOM     32  C   UNL     1       2.069  -6.644  -1.412  0.00  0.00    +0.122 C 
ATOM     33  C   UNL     1       0.703  -6.199  -0.880  0.00  0.00    +0.103 C 
ATOM     34  C   UNL     1       4.008  -7.245   0.028  0.00  0.00    +0.099 A 
ATOM     35  C   UNL     1       4.062  -8.492  -0.588  0.00  0.00    +0.042 A 
ATOM     36  C   UNL     1       4.975  -9.427  -0.135  0.00  0.00    +0.005 A 
ATOM     37  C   UNL     1       5.808  -9.082   0.922  0.00  0.00    +0.018 A 
ATOM     38  C   UNL     1       5.700  -7.827   1.485  0.00  0.00    +0.084 A 
ATOM     39  N   UNL     1       4.822  -6.953   1.030  0.00  0.00    -0.350 N 
ATOM     40  H   UNL     1       4.770  -6.076   1.441  0.00  0.00    +0.166 HD
ENDBRANCH  27  28
ENDBRANCH   5  27
TORSDOF 7
