REMARK  Name = ZINC39021591
REMARK  9 active torsions:
REMARK  status: ('A' for Active; 'I' for Inactive)
REMARK    1  A    between atoms: C_1  and  C_2
REMARK    2  A    between atoms: C_2  and  C_3
REMARK    3  A    between atoms: C_8  and  C_10
REMARK    4  A    between atoms: C_10  and  S_11
REMARK    5  A    between atoms: S_11  and  C_12
REMARK    6  A    between atoms: C_16  and  C_22
REMARK    7  A    between atoms: N_18  and  C_19
REMARK    8  A    between atoms: C_19  and  C_20
REMARK    9  A    between atoms: C_27  and  O_28
REMARK                            x       y       z     vdW  Elec       q    Type
REMARK                         _______ _______ _______ _____ _____    ______ ____
ROOT
ATOM      1  C   UNL     1       4.893  -3.518   8.722  0.00  0.00    +0.078 C 
ATOM      2  N   UNL     1       5.555  -4.668   8.067  0.00  0.00    -0.262 NA
ATOM      3  N   UNL     1       6.648  -4.068   7.285  0.00  0.00    -0.266 NA
ATOM      4  C   UNL     1       7.130  -2.974   8.169  0.00  0.00    +0.053 C 
ATOM      5  N   UNL     1       5.896  -2.436   8.790  0.00  0.00    +0.413 N 
ATOM      6  H   UNL     1       5.915  -5.316   8.752  0.00  0.00    +0.140 HD
ATOM      7  H   UNL     1       7.379  -4.740   7.110  0.00  0.00    +0.139 HD
ATOM      8  H   UNL     1       5.573  -1.630   8.275  0.00  0.00    -0.075 HD
ENDROOT
BRANCH   4   9
ATOM      9  C   UNL     1       7.825  -1.910   7.359  0.00  0.00    -0.005 A 
ATOM     10  C   UNL     1       7.697  -0.580   7.712  0.00  0.00    +0.007 A 
ATOM     11  C   UNL     1       8.334   0.397   6.969  0.00  0.00    +0.000 A 
ATOM     12  C   UNL     1       9.099   0.047   5.872  0.00  0.00    +0.004 A 
ATOM     13  C   UNL     1       9.230  -1.282   5.516  0.00  0.00    +0.045 A 
ATOM     14  C   UNL     1       8.597  -2.264   6.263  0.00  0.00    +0.120 A 
BRANCH  14  15
ATOM     15  O   UNL     1       8.729  -3.572   5.918  0.00  0.00    -0.507 OA
ATOM     16  H   UNL     1       8.057  -3.885   5.297  0.00  0.00    +0.292 HD
ENDBRANCH  14  15
ENDBRANCH   4   9
BRANCH   1  17
ATOM     17  S   UNL     1       3.465  -2.981   7.739  0.00  0.00    -0.150 S 
BRANCH  17  18
ATOM     18  C   UNL     1       4.173  -2.587   6.116  0.00  0.00    +0.164 C 
BRANCH  18  24
ATOM     19  C   UNL     1       0.731  -0.503   1.223  0.00  0.00    +0.103 A 
ATOM     20  N   UNL     1       0.268  -0.803   2.420  0.00  0.00    -0.145 NA
ATOM     21  N   UNL     1       1.072  -1.210   3.306  0.00  0.00    -0.126 NA
ATOM     22  C   UNL     1       2.362  -1.343   3.068  0.00  0.00    +0.188 A 
ATOM     23  N   UNL     1       3.372  -1.772   3.922  0.00  0.00    -0.263 N 
ATOM     24  C   UNL     1       3.079  -2.122   5.190  0.00  0.00    +0.229 C 
ATOM     25  O   UNL     1       1.934  -2.061   5.587  0.00  0.00    -0.275 OA
ATOM     26  S   UNL     1       2.466  -0.863   1.455  0.00  0.00    -0.035 S 
ATOM     27  H   UNL     1       4.287  -1.821   3.605  0.00  0.00    +0.157 HD
BRANCH  19  29
ATOM     28  C   UNL     1      -0.019   1.526   0.010  0.00  0.00    +0.011 C 
ATOM     29  C   UNL     1       0.002  -0.004   0.002  0.00  0.00    +0.061 C 
ENDBRANCH  19  29
ENDBRANCH  18  24
ENDBRANCH  17  18
ENDBRANCH   1  17
BRANCH   5  30
ATOM     30  C   UNL     1       6.152  -2.072  10.190  0.00  0.00    -0.045 C 
BRANCH  30  31
ATOM     31  C   UNL     1       4.913  -1.453  10.783  0.00  0.00    -0.053 C 
ATOM     32  C   UNL     1       4.394  -1.948  11.879  0.00  0.00    +0.002 C 
ENDBRANCH  30  31
ENDBRANCH   5  30
TORSDOF 8
