REMARK  Name = ZINC03520849
REMARK  9 active torsions:
REMARK  status: ('A' for Active; 'I' for Inactive)
REMARK    1  A    between atoms: C_1  and  C_2
REMARK    2  A    between atoms: C_2  and  C_4
REMARK    3  A    between atoms: C_2  and  O_17
REMARK    4  A    between atoms: N_6  and  C_7
REMARK    5  A    between atoms: C_10  and  S_13
REMARK    6  A    between atoms: S_13  and  N_16
REMARK    7  A    between atoms: O_17  and  C_18
REMARK    8  A    between atoms: C_18  and  C_20
REMARK    9  A    between atoms: C_25  and  N_26
REMARK                            x       y       z     vdW  Elec       q    Type
REMARK                         _______ _______ _______ _____ _____    ______ ____
ROOT
ATOM      1  C   UNL     1      -1.953  -0.808  -0.643  0.00  0.00    +0.258 C 
ATOM      2  O   UNL     1      -2.227  -1.416  -1.656  0.00  0.00    -0.271 OA
ATOM      3  N   UNL     1      -2.879  -0.660   0.325  0.00  0.00    -0.282 N 
ATOM      4  H   UNL     1      -2.642  -0.230   1.161  0.00  0.00    +0.155 HD
ENDROOT
BRANCH   3   5
ATOM      5  C   UNL     1      -4.183  -1.126   0.124  0.00  0.00    +0.034 A 
ATOM      6  C   UNL     1      -5.261  -0.427   0.651  0.00  0.00    +0.025 A 
ATOM      7  C   UNL     1      -6.547  -0.890   0.450  0.00  0.00    +0.030 A 
ATOM      8  C   UNL     1      -6.761  -2.048  -0.275  0.00  0.00    +0.105 A 
ATOM      9  C   UNL     1      -5.689  -2.747  -0.800  0.00  0.00    +0.030 A 
ATOM     10  C   UNL     1      -4.402  -2.286  -0.609  0.00  0.00    +0.025 A 
BRANCH   8  11
ATOM     11  S   UNL     1      -8.403  -2.636  -0.528  0.00  0.00    +0.056 S 
ATOM     12  O   UNL     1      -8.301  -4.032  -0.773  0.00  0.00    -0.153 OA
ATOM     13  O   UNL     1      -9.192  -2.103   0.526  0.00  0.00    -0.153 OA
BRANCH  11  14
ATOM     14  N   UNL     1      -8.958  -1.948  -1.929  0.00  0.00    -0.204 NA
ATOM     15  H   UNL     1      -8.388  -1.346  -2.432  0.00  0.00    +0.144 HD
ATOM     16  H   UNL     1      -9.852  -2.148  -2.246  0.00  0.00    +0.144 HD
ENDBRANCH  11  14
ENDBRANCH   8  11
ENDBRANCH   3   5
BRANCH   1  18
ATOM     17  C   UNL     1      -0.679   1.307  -0.418  0.00  0.00    +0.062 C 
ATOM     18  C   UNL     1      -0.578  -0.218  -0.467  0.00  0.00    +0.259 C 
BRANCH  18  19
ATOM     19  O   UNL     1       0.251  -0.606  -1.565  0.00  0.00    -0.449 OA
BRANCH  19  20
ATOM     20  C   UNL     1       1.571  -0.730  -1.322  0.00  0.00    +0.342 C 
ATOM     21  O   UNL     1       2.006  -0.515  -0.207  0.00  0.00    -0.245 OA
BRANCH  20  22
ATOM     22  C   UNL     1       2.485  -1.126  -2.405  0.00  0.00    +0.080 A 
ATOM     23  C   UNL     1       2.008  -1.264  -3.713  0.00  0.00    +0.018 A 
ATOM     24  C   UNL     1       2.868  -1.634  -4.722  0.00  0.00    +0.021 A 
ATOM     25  C   UNL     1       4.208  -1.871  -4.450  0.00  0.00    +0.043 A 
ATOM     26  C   UNL     1       4.694  -1.739  -3.164  0.00  0.00    +0.043 A 
ATOM     27  C   UNL     1       3.843  -1.361  -2.134  0.00  0.00    +0.040 A 
ATOM     28 CL   UNL     1       5.280  -2.337  -5.734  0.00  0.00    -0.083 Cl
BRANCH  27  29
ATOM     29  N   UNL     1       4.330  -1.222  -0.841  0.00  0.00    -0.357 N 
ATOM     30  H   UNL     1       3.752  -0.888  -0.138  0.00  0.00    +0.142 HD
ATOM     31  H   UNL     1       5.249  -1.459  -0.641  0.00  0.00    +0.142 HD
ENDBRANCH  27  29
ENDBRANCH  20  22
ENDBRANCH  19  20
ENDBRANCH  18  19
ENDBRANCH   1  18
TORSDOF 8
