REMARK  Name = ZINC39685774
REMARK  11 active torsions:
REMARK  status: ('A' for Active; 'I' for Inactive)
REMARK    1  A    between atoms: C_1  and  C_2
REMARK    2  A    between atoms: C_2  and  C_3
REMARK    3  A    between atoms: C_2  and  C_4
REMARK    4  A    between atoms: C_4  and  C_6
REMARK    5  A    between atoms: C_4  and  N_13
REMARK    6  A    between atoms: N_8  and  C_9
REMARK    7  A    between atoms: C_9  and  C_10
REMARK    8  A    between atoms: C_9  and  C_11
REMARK    9  A    between atoms: C_9  and  C_12
REMARK   10  A    between atoms: C_14  and  C_16
REMARK   11  A    between atoms: C_27  and  C_29
REMARK                            x       y       z     vdW  Elec       q    Type
REMARK                         _______ _______ _______ _____ _____    ______ ____
ROOT
ATOM      1  C   UNL     1      -3.382   1.745   2.437  0.00  0.00    +0.100 C 
ATOM      2  C   UNL     1      -4.577   0.866   2.868  0.00  0.00    +0.121 C 
ATOM      3  N   UNL     1      -5.612   1.830   3.309  0.00  0.00    -0.300 N 
ATOM      4  C   UNL     1      -5.514   2.946   2.338  0.00  0.00    +0.115 C 
ATOM      5  C   UNL     1      -4.001   3.109   2.089  0.00  0.00    -0.004 C 
ATOM      6  C   UNL     1      -3.431   4.195   2.998  0.00  0.00    -0.010 C 
ATOM      7  C   UNL     1      -4.018   5.551   2.595  0.00  0.00    -0.082 C 
ATOM      8  N   UNL     1      -3.686   5.833   1.194  0.00  0.00    +0.379 N 
ATOM      9  C   UNL     1      -4.316   4.836   0.319  0.00  0.00    -0.082 C 
ATOM     10  C   UNL     1      -3.741   3.450   0.625  0.00  0.00    -0.010 C 
ATOM     11  C   UNL     1      -6.454   1.719   4.356  0.00  0.00    +0.219 C 
ATOM     12  O   UNL     1      -7.252   2.601   4.589  0.00  0.00    -0.275 OA
ATOM     13  H   UNL     1      -4.022   6.753   0.949  0.00  0.00    -0.086 HD
ATOM     14  H   UNL     1      -2.685   5.800   1.073  0.00  0.00    -0.086 HD
ENDROOT
BRANCH   1  16
ATOM     15  N   UNL     1      -3.441   0.724   0.185  0.00  0.00    -0.303 N 
ATOM     16  C   UNL     1      -2.704   1.153   1.228  0.00  0.00    +0.219 C 
ATOM     17  O   UNL     1      -1.495   1.063   1.195  0.00  0.00    -0.275 OA
ATOM     18  H   UNL     1      -4.410   0.737   0.237  0.00  0.00    +0.149 HD
BRANCH  15  19
ATOM     19  C   UNL     1      -2.780   0.237  -1.028  0.00  0.00    +0.161 C 
BRANCH  19  20
ATOM     20  C   UNL     1      -3.706   0.400  -2.205  0.00  0.00    +0.234 C 
ATOM     21  O   UNL     1      -4.810   0.876  -2.047  0.00  0.00    -0.274 OA
ATOM     22  N   UNL     1      -3.307   0.016  -3.434  0.00  0.00    -0.309 N 
ATOM     23  H   UNL     1      -2.424  -0.365  -3.561  0.00  0.00    +0.149 HD
BRANCH  22  24
ATOM     24  C   UNL     1      -4.208   0.175  -4.579  0.00  0.00    +0.026 C 
ATOM     25  C   UNL     1      -4.561   1.654  -4.750  0.00  0.00    +0.031 C 
ATOM     26  C   UNL     1      -3.517  -0.334  -5.846  0.00  0.00    +0.031 C 
ATOM     27  C   UNL     1      -5.487  -0.630  -4.337  0.00  0.00    +0.031 C 
ENDBRANCH  22  24
ENDBRANCH  19  20
BRANCH  19  29
ATOM     28  C   UNL     1      -1.486  -1.408   0.338  0.00  0.00    +0.009 C 
ATOM     29  C   UNL     1      -2.427  -1.242  -0.858  0.00  0.00    +0.012 C 
ATOM     30  C   UNL     1      -3.705  -2.047  -0.616  0.00  0.00    +0.009 C 
ENDBRANCH  19  29
ENDBRANCH  15  19
ENDBRANCH   1  16
BRANCH  11  31
ATOM     31  C   UNL     1      -6.402   0.497   5.237  0.00  0.00    +0.075 C 
ATOM     32  C   UNL     1      -7.182  -0.702   4.674  0.00  0.00    +0.013 C 
ATOM     33  C   UNL     1      -7.649  -0.975   6.113  0.00  0.00    +0.001 C 
ATOM     34  C   UNL     1      -7.424   0.522   6.386  0.00  0.00    +0.013 C 
ENDBRANCH  11  31
TORSDOF 6
