REMARK  Name = ZINC35359600
REMARK  5 active torsions:
REMARK  status: ('A' for Active; 'I' for Inactive)
REMARK    1  A    between atoms: C_1  and  C_2
REMARK    2  A    between atoms: C_2  and  C_3
REMARK    3  A    between atoms: C_2  and  C_4
REMARK    4  A    between atoms: C_4  and  C_6
REMARK    5  A    between atoms: C_4  and  N_18
REMARK                            x       y       z     vdW  Elec       q    Type
REMARK                         _______ _______ _______ _____ _____    ______ ____
ROOT
ATOM      1  C   UNL     1       2.132   0.024  -1.268  0.00  0.00    -0.026 A 
ATOM      2  C   UNL     1       3.174  -0.797  -0.877  0.00  0.00    +0.010 A 
ATOM      3  C   UNL     1       4.470  -0.322  -0.887  0.00  0.00    -0.025 A 
ATOM      4  C   UNL     1       4.729   0.982  -1.288  0.00  0.00    +0.039 A 
ATOM      5  C   UNL     1       3.683   1.806  -1.679  0.00  0.00    +0.062 A 
ATOM      6  C   UNL     1       2.386   1.324  -1.673  0.00  0.00    +0.127 A 
ATOM      7  F   UNL     1       1.367   2.122  -2.059  0.00  0.00    -0.205 F 
ATOM      8  N   UNL     1       6.043   1.461  -1.297  0.00  0.00    -0.285 N 
ATOM      9  C   UNL     1       7.081   0.606  -1.287  0.00  0.00    +0.218 C 
ATOM     10  O   UNL     1       8.214   1.038  -1.280  0.00  0.00    -0.275 OA
ATOM     11  C   UNL     1       6.853  -0.882  -1.283  0.00  0.00    +0.101 C 
ATOM     12  C   UNL     1       5.607  -1.216  -0.463  0.00  0.00    +0.046 C 
ATOM     13  H   UNL     1       6.206   2.417  -1.311  0.00  0.00    +0.155 HD
ENDROOT
BRANCH   1  14
ATOM     14  C   UNL     1       0.718  -0.497  -1.257  0.00  0.00    -0.039 C 
BRANCH  14  15
ATOM     15  N   UNL     1       0.738  -1.966  -1.265  0.00  0.00    +0.383 N 
ATOM     16  H   UNL     1       1.210  -2.292  -2.095  0.00  0.00    -0.089 HD
ATOM     17  H   UNL     1       1.226  -2.301  -0.447  0.00  0.00    -0.089 HD
ATOM     18  H   UNL     1      -0.208  -2.316  -1.258  0.00  0.00    -0.089 HD
ENDBRANCH  14  15
BRANCH  14  20
ATOM     19  C   UNL     1      -0.019   1.526   0.010  0.00  0.00    +0.006 C 
ATOM     20  C   UNL     1       0.002  -0.004   0.002  0.00  0.00    -0.027 C 
ATOM     21  C   UNL     1      -1.433  -0.534   0.013  0.00  0.00    +0.006 C 
ENDBRANCH  14  20
ENDBRANCH   1  14
TORSDOF 3
