REMARK  Name = ZINC16556961
REMARK  13 active torsions:
REMARK  status: ('A' for Active; 'I' for Inactive)
REMARK    1  A    between atoms: C_1  and  C_2
REMARK    2  A    between atoms: C_2  and  N_3
REMARK    3  A    between atoms: N_3  and  C_4
REMARK    4  A    between atoms: N_3  and  C_18
REMARK    5  A    between atoms: C_4  and  C_5
REMARK    6  A    between atoms: N_7  and  C_8
REMARK    7  A    between atoms: C_11  and  N_14
REMARK    8  A    between atoms: C_15  and  C_17
REMARK    9  A    between atoms: C_18  and  C_20
REMARK   10  A    between atoms: C_18  and  C_21
REMARK   11  A    between atoms: N_23  and  C_24
REMARK   12  A    between atoms: C_24  and  C_26
REMARK   13  A    between atoms: C_24  and  C_27
REMARK                            x       y       z     vdW  Elec       q    Type
REMARK                         _______ _______ _______ _____ _____    ______ ____
ROOT
ATOM      1  N   UNL     1      -1.584  -0.516   0.657  0.00  0.00    +0.393 N 
ATOM      2  H   UNL     1      -1.994   0.003   1.420  0.00  0.00    -0.080 HD
ENDROOT
BRANCH   1   4
ATOM      3  C   UNL     1      -0.061   1.377   0.353  0.00  0.00    -0.017 C 
ATOM      4  C   UNL     1      -0.171  -0.140   0.513  0.00  0.00    -0.081 C 
ENDBRANCH   1   4
BRANCH   1   5
ATOM      5  C   UNL     1      -2.302  -0.208  -0.587  0.00  0.00    +0.017 C 
ATOM      6  C   UNL     1      -1.790  -1.114  -1.708  0.00  0.00    -0.004 C 
BRANCH   5   7
ATOM      7  C   UNL     1      -3.777  -0.441  -0.386  0.00  0.00    +0.200 C 
ATOM      8  O   UNL     1      -4.196  -0.775   0.702  0.00  0.00    -0.278 OA
ATOM      9  N   UNL     1      -4.631  -0.277  -1.416  0.00  0.00    -0.310 N 
ATOM     10  H   UNL     1      -4.296  -0.009  -2.286  0.00  0.00    +0.149 HD
BRANCH   9  11
ATOM     11  C   UNL     1      -6.066  -0.503  -1.220  0.00  0.00    +0.100 C 
ATOM     12  C   UNL     1      -6.713   0.770  -0.672  0.00  0.00    +0.033 C 
BRANCH  11  13
ATOM     13  C   UNL     1      -6.701  -0.862  -2.539  0.00  0.00    -0.027 A 
ATOM     14  C   UNL     1      -6.309  -0.213  -3.695  0.00  0.00    +0.008 A 
ATOM     15  C   UNL     1      -6.891  -0.542  -4.904  0.00  0.00    +0.038 A 
ATOM     16  C   UNL     1      -7.867  -1.522  -4.958  0.00  0.00    +0.123 A 
ATOM     17  C   UNL     1      -8.259  -2.172  -3.800  0.00  0.00    +0.038 A 
ATOM     18  C   UNL     1      -7.672  -1.845  -2.592  0.00  0.00    +0.008 A 
ATOM     19  F   UNL     1      -8.437  -1.844  -6.140  0.00  0.00    -0.205 F 
ENDBRANCH  11  13
ENDBRANCH   9  11
ENDBRANCH   5   7
ENDBRANCH   1   5
BRANCH   1  20
ATOM     20  C   UNL     1      -1.682  -1.955   0.936  0.00  0.00    +0.020 C 
BRANCH  20  21
ATOM     21  C   UNL     1      -1.052  -2.252   2.272  0.00  0.00    +0.201 C 
ATOM     22  O   UNL     1      -0.569  -1.354   2.928  0.00  0.00    -0.278 OA
ATOM     23  N   UNL     1      -1.025  -3.517   2.738  0.00  0.00    -0.287 N 
ATOM     24  H   UNL     1      -1.470  -4.224   2.246  0.00  0.00    +0.155 HD
BRANCH  23  25
ATOM     25  C   UNL     1      -0.355  -3.809   3.933  0.00  0.00    +0.033 A 
ATOM     26  C   UNL     1      -0.361  -2.890   4.975  0.00  0.00    +0.025 A 
ATOM     27  C   UNL     1       0.300  -3.178   6.152  0.00  0.00    +0.025 A 
ATOM     28  C   UNL     1       0.970  -4.386   6.295  0.00  0.00    +0.033 A 
ATOM     29  C   UNL     1       0.976  -5.304   5.253  0.00  0.00    +0.025 A 
ATOM     30  C   UNL     1       0.310  -5.019   4.078  0.00  0.00    +0.025 A 
BRANCH  28  31
ATOM     31  N   UNL     1       1.640  -4.678   7.490  0.00  0.00    -0.286 N 
ATOM     32  C   UNL     1       2.781  -5.395   7.465  0.00  0.00    +0.214 C 
ATOM     33  O   UNL     1       3.274  -5.713   6.403  0.00  0.00    -0.276 OA
ATOM     34  C   UNL     1       3.444  -5.803   8.755  0.00  0.00    +0.109 C 
ATOM     35  H   UNL     1       1.284  -4.363   8.335  0.00  0.00    +0.155 HD
ENDBRANCH  28  31
ENDBRANCH  23  25
ENDBRANCH  20  21
ENDBRANCH   1  20
TORSDOF 9
