REMARK  Name = ZINC34756610
REMARK  6 active torsions:
REMARK  status: ('A' for Active; 'I' for Inactive)
REMARK    1  A    between atoms: C_1  and  C_2
REMARK    2  A    between atoms: C_5  and  N_8
REMARK    3  A    between atoms: C_16  and  N_33
REMARK    4  A    between atoms: N_23  and  C_26
REMARK    5  A    between atoms: N_33  and  C_34
REMARK    6  A    between atoms: N_33  and  C_35
REMARK                            x       y       z     vdW  Elec       q    Type
REMARK                         _______ _______ _______ _____ _____    ______ ____
ROOT
ATOM      1  N   UNL     1      -0.179  -4.375  -0.111  0.00  0.00    -0.269 N 
ATOM      2  C   UNL     1       0.074  -4.954   1.080  0.00  0.00    +0.307 C 
ATOM      3  O   UNL     1       0.200  -4.267   2.075  0.00  0.00    -0.252 OA
ATOM      4  N   UNL     1       0.187  -6.294   1.168  0.00  0.00    -0.281 N 
ATOM      5  C   UNL     1       0.193  -7.142  -0.036  0.00  0.00    +0.116 C 
ATOM      6  C   UNL     1       1.556  -7.827  -0.126  0.00  0.00    +0.072 C 
ATOM      7  C   UNL     1       1.944  -8.418   1.202  0.00  0.00    +0.028 A 
ATOM      8  C   UNL     1       1.386  -8.016   2.390  0.00  0.00    +0.029 A 
ATOM      9  C   UNL     1       1.825  -8.616   3.577  0.00  0.00    +0.131 A 
ATOM     10  N   UNL     1       2.758  -9.559   3.519  0.00  0.00    -0.201 NA
ATOM     11  C   UNL     1       3.267  -9.927   2.353  0.00  0.00    +0.198 A 
ATOM     12  N   UNL     1       2.873  -9.372   1.219  0.00  0.00    -0.331 N 
ATOM     13  N   UNL     1       4.235 -10.916   2.321  0.00  0.00    -0.298 N 
ATOM     14  C   UNL     1       4.951 -11.221   1.075  0.00  0.00    +0.127 C 
ATOM     15  C   UNL     1       6.458 -11.101   1.334  0.00  0.00    +0.124 C 
ATOM     16  N   UNL     1       6.788 -11.865   2.545  0.00  0.00    -0.327 N 
ATOM     17  C   UNL     1       6.072 -11.560   3.792  0.00  0.00    +0.124 C 
ATOM     18  C   UNL     1       4.569 -11.675   3.534  0.00  0.00    +0.127 C 
ATOM     19  C   UNL     1       0.316  -6.965   2.467  0.00  0.00    +0.149 C 
ATOM     20  H   UNL     1      -0.397  -4.924  -0.880  0.00  0.00    +0.156 HD
ATOM     21  H   UNL     1       3.269  -9.666   0.383  0.00  0.00    +0.168 HD
ENDROOT
BRANCH   1  26
ATOM     22  C   UNL     1       0.031   1.271  -0.623  0.00  0.00    +0.044 C 
ATOM     23  C   UNL     1      -0.025  -0.229  -0.487  0.00  0.00    -0.050 A 
ATOM     24  C   UNL     1       0.160  -1.030  -1.599  0.00  0.00    +0.005 A 
ATOM     25  C   UNL     1       0.110  -2.405  -1.477  0.00  0.00    +0.023 A 
ATOM     26  C   UNL     1      -0.127  -2.982  -0.237  0.00  0.00    +0.035 A 
ATOM     27  C   UNL     1      -0.312  -2.175   0.878  0.00  0.00    +0.023 A 
ATOM     28  C   UNL     1      -0.255  -0.801   0.750  0.00  0.00    +0.005 A 
ENDBRANCH   1  26
BRANCH  16  29
ATOM     29  C   UNL     1       7.766 -12.864   2.513  0.00  0.00    +0.030 A 
ATOM     30  C   UNL     1       7.932 -13.710   3.601  0.00  0.00    +0.026 A 
ATOM     31  C   UNL     1       8.898 -14.697   3.567  0.00  0.00    +0.040 A 
ATOM     32  C   UNL     1       9.701 -14.843   2.448  0.00  0.00    +0.124 A 
ATOM     33  C   UNL     1       9.536 -14.000   1.361  0.00  0.00    +0.040 A 
ATOM     34  C   UNL     1       8.568 -13.016   1.389  0.00  0.00    +0.026 A 
ATOM     35  F   UNL     1      10.645 -15.808   2.416  0.00  0.00    -0.205 F 
ENDBRANCH  16  29
BRANCH   9  36
ATOM     36  N   UNL     1       1.292  -8.230   4.796  0.00  0.00    -0.321 N 
ATOM     37  C   UNL     1       0.054  -8.845   5.282  0.00  0.00    +0.130 C 
ATOM     38  C   UNL     1       1.967  -7.207   5.599  0.00  0.00    +0.130 C 
ENDBRANCH   9  36
TORSDOF 3
