REMARK  Name = ZINC63270105
REMARK  10 active torsions:
REMARK  status: ('A' for Active; 'I' for Inactive)
REMARK    1  A    between atoms: C_1  and  O_2
REMARK    2  A    between atoms: O_2  and  C_3
REMARK    3  A    between atoms: C_9  and  C_12
REMARK    4  A    between atoms: C_12  and  C_13
REMARK    5  A    between atoms: C_13  and  N_14
REMARK    6  A    between atoms: C_17  and  C_22
REMARK    7  A    between atoms: C_20  and  O_21
REMARK    8  A    between atoms: C_22  and  C_23
REMARK    9  A    between atoms: C_23  and  C_24
REMARK   10  A    between atoms: N_26  and  C_27
REMARK                            x       y       z     vdW  Elec       q    Type
REMARK                         _______ _______ _______ _____ _____    ______ ____
ROOT
ATOM      1  N   UNL     1      -0.752  -6.781  -1.509  0.00  0.00    -0.224 N 
ATOM      2  C   UNL     1      -0.453  -8.061  -1.815  0.00  0.00    +0.248 C 
ATOM      3  O   UNL     1       0.204  -8.462  -2.752  0.00  0.00    -0.273 OA
ATOM      4  C   UNL     1      -1.116  -8.890  -0.733  0.00  0.00    +0.197 C 
ATOM      5  N   UNL     1      -1.766  -7.889   0.129  0.00  0.00    -0.224 NA
ATOM      6  C   UNL     1      -1.512  -6.721  -0.369  0.00  0.00    +0.285 C 
ENDROOT
BRANCH   6   7
ATOM      7  O   UNL     1      -1.953  -5.566   0.175  0.00  0.00    -0.481 OA
ATOM      8  H   UNL     1      -2.477  -5.685   0.979  0.00  0.00    +0.295 HD
ENDBRANCH   6   7
BRANCH   1   9
ATOM      9  C   UNL     1      -0.319  -5.616  -2.284  0.00  0.00    +0.122 C 
BRANCH   9  10
ATOM     10  C   UNL     1       1.031  -5.126  -1.758  0.00  0.00    +0.052 C 
BRANCH  10  17
ATOM     11  C   UNL     1       0.606  -0.607  -1.056  0.00  0.00    +0.121 A 
ATOM     12  C   UNL     1       1.172   0.195  -2.062  0.00  0.00    +0.047 A 
ATOM     13  C   UNL     1       1.790  -0.325  -3.144  0.00  0.00    +0.029 A 
ATOM     14  C   UNL     1       1.886  -1.780  -3.299  0.00  0.00    +0.043 A 
ATOM     15  N   UNL     1       2.419  -2.528  -4.232  0.00  0.00    -0.380 N 
ATOM     16  C   UNL     1       2.222  -3.937  -3.871  0.00  0.00    +0.144 C 
ATOM     17  C   UNL     1       1.476  -3.927  -2.555  0.00  0.00    -0.040 C 
ATOM     18  C   UNL     1       1.290  -2.626  -2.239  0.00  0.00    +0.002 A 
ATOM     19  C   UNL     1       0.646  -1.960  -1.102  0.00  0.00    +0.055 A 
ATOM     20  H   UNL     1       2.869  -2.205  -5.029  0.00  0.00    +0.160 HD
BRANCH  11  22
ATOM     21  C   UNL     1      -0.017   1.425   0.010  0.00  0.00    +0.277 C 
ATOM     22  O   UNL     1       0.002  -0.004   0.002  0.00  0.00    -0.495 OA
ENDBRANCH  11  22
ENDBRANCH  10  17
ENDBRANCH   9  10
ENDBRANCH   1   9
BRANCH   4  23
ATOM     23  C   UNL     1      -2.154  -9.835  -1.340  0.00  0.00    +0.045 C 
BRANCH  23  24
ATOM     24  C   UNL     1      -2.717 -10.745  -0.246  0.00  0.00    +0.098 C 
BRANCH  24  25
ATOM     25  C   UNL     1      -3.740 -11.676  -0.844  0.00  0.00    +0.213 C 
ATOM     26  O   UNL     1      -3.993 -11.618  -2.029  0.00  0.00    -0.276 OA
ATOM     27  N   UNL     1      -4.373 -12.573  -0.063  0.00  0.00    -0.312 N 
ATOM     28  H   UNL     1      -4.171 -12.620   0.884  0.00  0.00    +0.149 HD
BRANCH  27  29
ATOM     29  C   UNL     1      -5.367 -13.479  -0.645  0.00  0.00    +0.073 C 
ATOM     30  C   UNL     1      -6.728 -12.780  -0.692  0.00  0.00    +0.022 C 
ATOM     31  C   UNL     1      -7.659 -13.541  -1.638  0.00  0.00    +0.002 C 
ATOM     32  C   UNL     1      -6.898 -13.915  -2.912  0.00  0.00    +0.000 C 
ATOM     33  C   UNL     1      -6.736 -15.435  -2.981  0.00  0.00    +0.000 C 
ATOM     34  C   UNL     1      -5.643 -15.876  -2.006  0.00  0.00    +0.000 C 
ATOM     35  C   UNL     1      -6.188 -15.838  -0.577  0.00  0.00    +0.002 C 
ATOM     36  C   UNL     1      -5.472 -14.741   0.214  0.00  0.00    +0.022 C 
ENDBRANCH  27  29
ENDBRANCH  24  25
ENDBRANCH  23  24
ENDBRANCH   4  23
TORSDOF 9
