REMARK  Name = ZINC10658655
REMARK  8 active torsions:
REMARK  status: ('A' for Active; 'I' for Inactive)
REMARK    1  A    between atoms: C_1  and  C_2
REMARK    2  A    between atoms: C_3  and  C_24
REMARK    3  A    between atoms: C_7  and  N_23
REMARK    4  A    between atoms: C_9  and  C_11
REMARK    5  A    between atoms: C_11  and  C_13
REMARK    6  A    between atoms: C_11  and  S_14
REMARK    7  A    between atoms: S_14  and  C_15
REMARK    8  A    between atoms: C_19  and  N_21
REMARK                            x       y       z     vdW  Elec       q    Type
REMARK                         _______ _______ _______ _____ _____    ______ ____
ROOT
ATOM      1  C   UNL     1      -2.429   4.996   1.162  0.00  0.00    +0.119 C 
ATOM      2  C   UNL     1      -2.284   5.149   2.677  0.00  0.00    +0.028 C 
ENDROOT
BRANCH   1  11
ATOM      3  C   UNL     1      -1.520  -1.464  -0.249  0.00  0.00    +0.045 C 
ATOM      4  C   UNL     1      -2.679  -0.501  -0.213  0.00  0.00    -0.028 A 
ATOM      5  C   UNL     1      -3.915  -0.915  -0.526  0.00  0.00    -0.008 A 
ATOM      6  S   UNL     1      -4.907   0.555  -0.340  0.00  0.00    -0.074 S 
ATOM      7  C   UNL     1      -3.634   1.686   0.152  0.00  0.00    +0.114 A 
ATOM      8  C   UNL     1      -2.469   0.887   0.159  0.00  0.00    +0.050 A 
ATOM      9  C   UNL     1      -1.271   1.559   0.527  0.00  0.00    +0.128 A 
ATOM     10  N   UNL     1      -1.321   2.845   0.836  0.00  0.00    -0.216 NA
ATOM     11  C   UNL     1      -2.449   3.533   0.804  0.00  0.00    +0.145 A 
ATOM     12  N   UNL     1      -3.591   2.965   0.470  0.00  0.00    -0.224 NA
ATOM     13  C   UNL     1      -4.361  -2.296  -0.936  0.00  0.00    +0.052 C 
BRANCH   9  14
ATOM     14  N   UNL     1      -0.069   0.876   0.568  0.00  0.00    -0.343 N 
ATOM     15  H   UNL     1       0.768   1.362   0.498  0.00  0.00    +0.144 HD
ATOM     16  H   UNL     1      -0.063  -0.089   0.670  0.00  0.00    +0.144 HD
ENDBRANCH   9  14
ENDBRANCH   1  11
BRANCH   1  17
ATOM     17  S   UNL     1      -1.033   5.801   0.338  0.00  0.00    -0.075 S 
BRANCH  17  18
ATOM     18  C   UNL     1      -1.333   7.476   0.793  0.00  0.00    +0.192 A 
ATOM     19  N   UNL     1      -2.388   7.762   1.543  0.00  0.00    -0.207 NA
ATOM     20  C   UNL     1      -2.643   9.016   1.911  0.00  0.00    +0.122 A 
ATOM     21  C   UNL     1      -1.791  10.032   1.488  0.00  0.00    +0.086 A 
ATOM     22  C   UNL     1      -0.698   9.694   0.697  0.00  0.00    +0.122 A 
ATOM     23  N   UNL     1      -0.502   8.418   0.372  0.00  0.00    -0.207 NA
ATOM     24  N   UNL     1      -3.745   9.306   2.700  0.00  0.00    -0.343 N 
ATOM     25  H   UNL     1      -3.927  10.222   2.961  0.00  0.00    +0.144 HD
ATOM     26  H   UNL     1      -4.334   8.592   2.992  0.00  0.00    +0.144 HD
BRANCH  22  27
ATOM     27  N   UNL     1       0.177  10.674   0.253  0.00  0.00    -0.343 N 
ATOM     28  H   UNL     1       0.938  10.431  -0.298  0.00  0.00    +0.144 HD
ATOM     29  H   UNL     1       0.029  11.602   0.493  0.00  0.00    +0.144 HD
ENDBRANCH  22  27
ENDBRANCH  17  18
ENDBRANCH   1  17
TORSDOF 5
