REMARK  Name = ZINC03317694
REMARK  7 active torsions:
REMARK  status: ('A' for Active; 'I' for Inactive)
REMARK    1  A    between atoms: C_6  and  C_24
REMARK    2  A    between atoms: C_7  and  N_9
REMARK    3  A    between atoms: C_10  and  C_12
REMARK    4  A    between atoms: C_12  and  S_13
REMARK    5  A    between atoms: S_13  and  C_14
REMARK    6  A    between atoms: C_17  and  C_20
REMARK    7  A    between atoms: N_18  and  N_19
REMARK                            x       y       z     vdW  Elec       q    Type
REMARK                         _______ _______ _______ _____ _____    ______ ____
ROOT
ATOM      1  N   UNL     1      -4.126   4.267   7.208  0.00  0.00    -0.279 N 
ATOM      2  C   UNL     1      -3.683   4.650   5.994  0.00  0.00    +0.228 C 
ATOM      3  O   UNL     1      -3.843   5.794   5.624  0.00  0.00    -0.275 OA
ATOM      4  H   UNL     1      -3.998   3.352   7.504  0.00  0.00    +0.155 HD
ENDROOT
BRANCH   1  11
ATOM      5  C   UNL     1      -6.668   7.472  11.894  0.00  0.00    +0.005 C 
ATOM      6  C   UNL     1      -7.407   8.346  10.876  0.00  0.00    +0.005 C 
ATOM      7  C   UNL     1      -6.491   8.577   9.665  0.00  0.00    +0.043 C 
ATOM      8  C   UNL     1      -5.919   7.258   9.248  0.00  0.00    -0.004 A 
ATOM      9  C   UNL     1      -5.913   6.111   9.961  0.00  0.00    -0.023 A 
ATOM     10  C   UNL     1      -5.291   4.975   9.301  0.00  0.00    +0.068 A 
ATOM     11  C   UNL     1      -4.765   5.180   8.033  0.00  0.00    +0.084 A 
ATOM     12  S   UNL     1      -5.108   6.851   7.728  0.00  0.00    -0.077 S 
ATOM     13  C   UNL     1      -6.529   6.048  11.353  0.00  0.00    +0.037 C 
BRANCH  10  14
ATOM     14  C   UNL     1      -5.217   3.664   9.952  0.00  0.00    +0.244 C 
ATOM     15  O   UNL     1      -4.260   3.383  10.650  0.00  0.00    -0.270 OA
ATOM     16  N   UNL     1      -6.210   2.769   9.779  0.00  0.00    -0.325 N 
ATOM     17  H   UNL     1      -6.973   2.992   9.223  0.00  0.00    +0.145 HD
ATOM     18  H   UNL     1      -6.161   1.901  10.210  0.00  0.00    +0.145 HD
ENDBRANCH  10  14
ENDBRANCH   1  11
BRANCH   2  19
ATOM     19  C   UNL     1      -2.989   3.658   5.098  0.00  0.00    +0.173 C 
BRANCH  19  20
ATOM     20  S   UNL     1      -2.517   4.470   3.550  0.00  0.00    -0.075 S 
BRANCH  20  21
ATOM     21  C   UNL     1      -1.749   3.120   2.718  0.00  0.00    +0.209 A 
ATOM     22  N   UNL     1      -1.606   1.899   3.178  0.00  0.00    -0.121 NA
ATOM     23  N   UNL     1      -1.005   1.171   2.305  0.00  0.00    -0.123 NA
ATOM     24  C   UNL     1      -0.722   1.881   1.250  0.00  0.00    +0.255 A 
ATOM     25  N   UNL     1      -1.189   3.147   1.473  0.00  0.00    -0.220 N 
BRANCH  24  26
ATOM     26  C   UNL     1      -0.017   1.395   0.010  0.00  0.00    +0.454 C 
ATOM     27  F   UNL     1       0.002  -0.004   0.002  0.00  0.00    -0.163 F 
ATOM     28  F   UNL     1       1.296   1.879  -0.000  0.00  0.00    -0.163 F 
ATOM     29  F   UNL     1      -0.694   1.858  -1.124  0.00  0.00    -0.163 F 
ENDBRANCH  24  26
BRANCH  25  30
ATOM     30  N   UNL     1      -1.111   4.216   0.626  0.00  0.00    -0.295 N 
ATOM     31  H   UNL     1      -1.920   4.260   0.024  0.00  0.00    +0.163 HD
ATOM     32  H   UNL     1      -0.996   5.076   1.140  0.00  0.00    +0.163 HD
ENDBRANCH  25  30
ENDBRANCH  20  21
ENDBRANCH  19  20
ENDBRANCH   2  19
TORSDOF 7
