REMARK  Name = ZINC21527488
REMARK  10 active torsions:
REMARK  status: ('A' for Active; 'I' for Inactive)
REMARK    1  A    between atoms: C_1  and  C_2
REMARK    2  A    between atoms: C_2  and  C_28
REMARK    3  A    between atoms: C_7  and  O_26
REMARK    4  A    between atoms: N_15  and  C_16
REMARK    5  A    between atoms: C_16  and  C_17
REMARK    6  A    between atoms: C_17  and  C_18
REMARK    7  A    between atoms: C_18  and  N_19
REMARK    8  A    between atoms: N_22  and  C_25
REMARK    9  A    between atoms: O_26  and  C_27
REMARK   10  A    between atoms: N_30  and  C_31
REMARK                            x       y       z     vdW  Elec       q    Type
REMARK                         _______ _______ _______ _____ _____    ______ ____
ROOT
ATOM      1  C   UNL     1      -0.103   4.673   3.168  0.00  0.00    +0.043 C 
ATOM      2  C   UNL     1       0.219   4.260   1.731  0.00  0.00    +0.128 C 
ATOM      3  C   UNL     1       0.485   5.516   0.897  0.00  0.00    +0.157 C 
ATOM      4  N   UNL     1      -0.784   6.213   0.660  0.00  0.00    -0.334 N 
ATOM      5  C   UNL     1      -1.040   7.530   0.480  0.00  0.00    +0.053 A 
ATOM      6  C   UNL     1      -0.213   8.653   0.485  0.00  0.00    +0.072 A 
ATOM      7  C   UNL     1      -0.816   9.882   0.258  0.00  0.00    +0.122 A 
ATOM      8  C   UNL     1      -2.184  10.006   0.033  0.00  0.00    +0.046 A 
ATOM      9  C   UNL     1      -3.020   8.921   0.023  0.00  0.00    +0.013 A 
ATOM     10  C   UNL     1      -2.438   7.665   0.252  0.00  0.00    +0.001 A 
ATOM     11  C   UNL     1      -2.996   6.375   0.311  0.00  0.00    +0.041 A 
ATOM     12  C   UNL     1      -1.993   5.512   0.574  0.00  0.00    +0.106 A 
ATOM     13  C   UNL     1      -2.023   4.049   0.744  0.00  0.00    +0.264 C 
ATOM     14  O   UNL     1      -3.014   3.395   0.482  0.00  0.00    -0.268 OA
ATOM     15  N   UNL     1      -0.890   3.471   1.207  0.00  0.00    -0.281 N 
ENDROOT
BRANCH   2  16
ATOM     16  C   UNL     1       1.462   3.408   1.738  0.00  0.00    +0.238 C 
ATOM     17  O   UNL     1       1.789   2.821   2.748  0.00  0.00    -0.273 OA
ATOM     18  N   UNL     1       2.211   3.297   0.623  0.00  0.00    -0.311 N 
ATOM     19  H   UNL     1       1.957   3.888  -0.270  0.00  0.00    +0.149 HD
BRANCH  18  20
ATOM     20  C   UNL     1       3.362   2.392   0.600  0.00  0.00    +0.073 C 
ATOM     21  C   UNL     1       4.563   3.077   1.255  0.00  0.00    +0.022 C 
ATOM     22  C   UNL     1       5.765   2.131   1.231  0.00  0.00    +0.002 C 
ATOM     23  C   UNL     1       6.108   1.778  -0.218  0.00  0.00    +0.000 C 
ATOM     24  C   UNL     1       4.907   1.093  -0.874  0.00  0.00    +0.002 C 
ATOM     25  C   UNL     1       3.704   2.039  -0.849  0.00  0.00    +0.022 C 
ENDBRANCH  18  20
ENDBRANCH   2  16
BRANCH   7  26
ATOM     26  O   UNL     1      -0.046  11.001   0.254  0.00  0.00    -0.495 OA
ATOM     27  C   UNL     1      -0.709  12.244   0.015  0.00  0.00    +0.277 C 
ENDBRANCH   7  26
BRANCH  15  28
ATOM     28  C   UNL     1      -0.777   2.010   1.186  0.00  0.00    +0.110 C 
BRANCH  28  29
ATOM     29  C   UNL     1      -0.321   1.554  -0.201  0.00  0.00    +0.034 C 
BRANCH  29  30
ATOM     30  C   UNL     1      -0.337   0.025  -0.266  0.00  0.00    +0.086 C 
BRANCH  30  31
ATOM     31  N   UNL     1       0.003  -0.411  -1.627  0.00  0.00    -0.306 NA
ATOM     32  C   UNL     1      -1.039  -0.013  -2.583  0.00  0.00    +0.066 C 
ATOM     33  C   UNL     1      -0.612  -0.415  -3.996  0.00  0.00    -0.064 C 
ATOM     34  N   UNL     1      -0.384  -1.866  -4.043  0.00  0.00    +0.379 N 
ATOM     35  C   UNL     1       0.659  -2.264  -3.087  0.00  0.00    -0.064 C 
ATOM     36  C   UNL     1       0.231  -1.862  -1.673  0.00  0.00    +0.066 C 
ATOM     37  C   UNL     1      -0.044  -2.302  -5.404  0.00  0.00    -0.096 C 
ATOM     38  H   UNL     1      -1.320  -2.366  -3.752  0.00  0.00    -0.082 HD
ENDBRANCH  30  31
ENDBRANCH  29  30
ENDBRANCH  28  29
ENDBRANCH  15  28
TORSDOF 7
