REMARK  Name = ZINC36559224
REMARK  5 active torsions:
REMARK  status: ('A' for Active; 'I' for Inactive)
REMARK    1  A    between atoms: C_6  and  C_7
REMARK    2  A    between atoms: C_10  and  N_37
REMARK    3  A    between atoms: C_11  and  C_35
REMARK    4  A    between atoms: N_15  and  C_23
REMARK    5  A    between atoms: C_24  and  C_32
REMARK                            x       y       z     vdW  Elec       q    Type
REMARK                         _______ _______ _______ _____ _____    ______ ____
ROOT
ATOM      1  C   UNL     1      -1.299  -0.779   0.134  0.00  0.00    +0.089 C 
ATOM      2  C   UNL     1      -1.510  -1.715   1.288  0.00  0.00    +0.027 A 
ATOM      3  C   UNL     1      -1.984  -1.224   2.501  0.00  0.00    +0.053 A 
ATOM      4  C   UNL     1      -2.167  -2.130   3.565  0.00  0.00    +0.112 A 
ATOM      5  C   UNL     1      -1.863  -3.486   3.357  0.00  0.00    +0.138 A 
ATOM      6  N   UNL     1      -1.417  -3.901   2.183  0.00  0.00    -0.215 NA
ATOM      7  C   UNL     1      -1.236  -3.069   1.163  0.00  0.00    +0.138 A 
ATOM      8  N   UNL     1      -0.770  -3.560  -0.051  0.00  0.00    -0.250 N 
ATOM      9  C   UNL     1      -0.953  -2.849  -1.207  0.00  0.00    +0.025 C 
ATOM     10  C   UNL     1      -1.206  -1.525  -1.172  0.00  0.00    +0.024 C 
ATOM     11  C   UNL     1      -1.390  -0.795  -2.359  0.00  0.00    +0.162 C 
ATOM     12  O   UNL     1      -1.636   0.394  -2.295  0.00  0.00    -0.292 OA
ATOM     13  C   UNL     1      -1.288  -1.454  -3.707  0.00  0.00    +0.080 C 
ATOM     14  C   UNL     1      -0.339  -2.653  -3.604  0.00  0.00    +0.014 C 
ATOM     15  C   UNL     1      -0.866  -3.590  -2.519  0.00  0.00    +0.052 C 
ATOM     16  N   UNL     1      -2.033  -4.394   4.387  0.00  0.00    -0.342 N 
ATOM     17  H   UNL     1      -2.283  -4.083   5.271  0.00  0.00    +0.144 HD
ATOM     18  H   UNL     1      -1.901  -5.341   4.226  0.00  0.00    +0.144 HD
ENDROOT
BRANCH   8  19
ATOM     19  C   UNL     1      -0.113  -4.782  -0.092  0.00  0.00    +0.096 A 
ATOM     20  C   UNL     1      -0.670  -6.045  -0.214  0.00  0.00    +0.084 A 
ATOM     21  C   UNL     1       0.241  -7.174  -0.233  0.00  0.00    -0.018 A 
ATOM     22  C   UNL     1       1.545  -6.834  -0.126  0.00  0.00    -0.004 A 
ATOM     23  S   UNL     1       1.540  -5.069  -0.012  0.00  0.00    -0.076 S 
ATOM     24  C   UNL     1       2.718  -7.764  -0.112  0.00  0.00    +0.043 C 
ATOM     25  C   UNL     1       2.202  -9.188   0.140  0.00  0.00    +0.005 C 
ATOM     26  C   UNL     1       1.020  -9.460  -0.795  0.00  0.00    +0.005 C 
ATOM     27  C   UNL     1      -0.189  -8.628  -0.362  0.00  0.00    +0.037 C 
BRANCH  20  28
ATOM     28  C   UNL     1      -2.087  -6.228  -0.318  0.00  0.00    +0.102 C 
ATOM     29  N   UNL     1      -3.211  -6.373  -0.399  0.00  0.00    -0.191 NA
ENDBRANCH  20  28
ENDBRANCH   8  19
BRANCH   1  35
ATOM     30  C   UNL     1      -0.058   1.370   0.457  0.00  0.00    +0.007 A 
ATOM     31  C   UNL     1       1.111   2.078   0.658  0.00  0.00    +0.038 A 
ATOM     32  C   UNL     1       2.319   1.407   0.754  0.00  0.00    +0.123 A 
ATOM     33  C   UNL     1       2.352   0.027   0.649  0.00  0.00    +0.038 A 
ATOM     34  C   UNL     1       1.181  -0.679   0.449  0.00  0.00    +0.007 A 
ATOM     35  C   UNL     1      -0.023  -0.008   0.353  0.00  0.00    -0.035 A 
ATOM     36  F   UNL     1       3.463   2.099   0.950  0.00  0.00    -0.205 F 
ENDBRANCH   1  35
BRANCH   3  37
ATOM     37  N   UNL     1      -2.269   0.124   2.658  0.00  0.00    -0.357 N 
ATOM     38  H   UNL     1      -2.138   0.737   1.918  0.00  0.00    +0.142 HD
ATOM     39  H   UNL     1      -2.599   0.454   3.508  0.00  0.00    +0.142 HD
ENDBRANCH   3  37
BRANCH   4  40
ATOM     40  C   UNL     1      -2.653  -1.677   4.834  0.00  0.00    +0.104 C 
ATOM     41  N   UNL     1      -3.039  -1.317   5.840  0.00  0.00    -0.191 NA
ENDBRANCH   4  40
TORSDOF 5
