REMARK  Name = ZINC62412160
REMARK  10 active torsions:
REMARK  status: ('A' for Active; 'I' for Inactive)
REMARK    1  A    between atoms: C_1  and  C_2
REMARK    2  A    between atoms: C_2  and  C_3
REMARK    3  A    between atoms: C_2  and  N_4
REMARK    4  A    between atoms: C_7  and  C_9
REMARK    5  A    between atoms: C_9  and  N_10
REMARK    6  A    between atoms: N_13  and  C_14
REMARK    7  A    between atoms: C_14  and  C_15
REMARK    8  A    between atoms: C_14  and  C_16
REMARK    9  A    between atoms: N_18  and  C_19
REMARK   10  A    between atoms: C_19  and  C_20
REMARK                            x       y       z     vdW  Elec       q    Type
REMARK                         _______ _______ _______ _____ _____    ______ ____
ROOT
ATOM      1  N   UNL     1      -4.674  -3.701  -0.822  0.00  0.00    -0.299 N 
ATOM      2  C   UNL     1      -5.669  -4.430  -0.278  0.00  0.00    +0.300 C 
ATOM      3  O   UNL     1      -5.643  -4.705   0.906  0.00  0.00    -0.253 OA
ATOM      4  N   UNL     1      -6.691  -4.854  -1.046  0.00  0.00    -0.288 N 
ATOM      5  H   UNL     1      -4.695  -3.482  -1.767  0.00  0.00    +0.150 HD
ATOM      6  H   UNL     1      -6.712  -4.635  -1.991  0.00  0.00    +0.151 HD
ENDROOT
BRANCH   4   7
ATOM      7  C   UNL     1      -7.772  -5.646  -0.455  0.00  0.00    +0.157 C 
ATOM      8  C   UNL     1      -8.815  -4.710   0.159  0.00  0.00    +0.038 C 
BRANCH   7   9
ATOM      9  C   UNL     1      -8.421  -6.489  -1.523  0.00  0.00    +0.233 C 
ATOM     10  O   UNL     1      -8.020  -6.432  -2.666  0.00  0.00    -0.274 OA
ATOM     11  N   UNL     1      -9.447  -7.304  -1.209  0.00  0.00    -0.307 N 
ATOM     12  H   UNL     1      -9.768  -7.349  -0.294  0.00  0.00    +0.149 HD
BRANCH  11  13
ATOM     13  C   UNL     1     -10.077  -8.123  -2.247  0.00  0.00    +0.178 C 
BRANCH  13  14
ATOM     14  C   UNL     1     -11.189  -8.938  -1.639  0.00  0.00    +0.122 A 
ATOM     15  C   UNL     1     -12.475  -8.559  -1.534  0.00  0.00    +0.046 A 
ATOM     16  C   UNL     1     -13.165  -9.620  -0.904  0.00  0.00    +0.041 A 
ATOM     17  C   UNL     1     -12.259 -10.584  -0.662  0.00  0.00    +0.195 A 
ATOM     18  O   UNL     1     -11.065 -10.168  -1.115  0.00  0.00    -0.466 OA
ENDBRANCH  13  14
ENDBRANCH  11  13
ENDBRANCH   7   9
ENDBRANCH   4   7
BRANCH   1  19
ATOM     19  C   UNL     1      -3.563  -3.240   0.013  0.00  0.00    +0.107 C 
BRANCH  19  23
ATOM     20  N   UNL     1      -1.376  -0.512   0.012  0.00  0.00    +0.381 N 
ATOM     21  C   UNL     1      -2.083  -0.102  -1.228  0.00  0.00    -0.078 C 
ATOM     22  C   UNL     1      -3.236  -1.131  -1.335  0.00  0.00    -0.015 C 
ATOM     23  C   UNL     1      -2.579  -2.440  -0.843  0.00  0.00    -0.012 C 
ATOM     24  C   UNL     1      -1.374  -1.992   0.004  0.00  0.00    -0.074 C 
ATOM     25  H   UNL     1      -1.868  -0.170   0.824  0.00  0.00    -0.081 HD
BRANCH  20  27
ATOM     26  C   UNL     1      -0.019   1.526   0.010  0.00  0.00    -0.014 C 
ATOM     27  C   UNL     1       0.002  -0.004   0.002  0.00  0.00    -0.075 C 
ATOM     28  C   UNL     1       0.742  -0.511   1.242  0.00  0.00    -0.014 C 
ENDBRANCH  20  27
ENDBRANCH  19  23
ENDBRANCH   1  19
TORSDOF 7
