REMARK  Name = ZINC03846586
REMARK  15 active torsions:
REMARK  status: ('A' for Active; 'I' for Inactive)
REMARK    1  A    between atoms: C_1  and  N_2
REMARK    2  A    between atoms: C_9  and  O_32
REMARK    3  A    between atoms: C_10  and  C_13
REMARK    4  A    between atoms: C_13  and  C_15
REMARK    5  A    between atoms: C_15  and  C_16
REMARK    6  A    between atoms: C_16  and  C_18
REMARK    7  A    between atoms: C_16  and  N_57
REMARK    8  A    between atoms: C_20  and  O_27
REMARK    9  A    between atoms: C_21  and  O_26
REMARK   10  A    between atoms: C_22  and  O_24
REMARK   11  A    between atoms: O_24  and  C_25
REMARK   12  A    between atoms: O_27  and  C_28
REMARK   13  A    between atoms: C_29  and  C_30
REMARK   14  A    between atoms: C_29  and  N_57
REMARK   15  A    between atoms: C_30  and  O_31
REMARK                            x       y       z     vdW  Elec       q    Type
REMARK                         _______ _______ _______ _____ _____    ______ ____
ROOT
ATOM      1  C   UNL     1      -5.099   8.031   0.085  0.00  0.00    -0.033 C 
ENDROOT
BRANCH   1   2
ATOM      2  C   UNL     1      -5.496   9.464   0.331  0.00  0.00    -0.054 A 
ATOM      3  C   UNL     1      -6.713   9.751   0.919  0.00  0.00    +0.051 A 
ATOM      4  C   UNL     1      -7.080  11.068   1.152  0.00  0.00    +0.165 A 
ATOM      5  C   UNL     1      -6.227  12.101   0.781  0.00  0.00    +0.201 A 
ATOM      6  C   UNL     1      -5.006  11.808   0.184  0.00  0.00    +0.165 A 
ATOM      7  C   UNL     1      -4.644  10.489  -0.039  0.00  0.00    +0.051 A 
BRANCH   6   8
ATOM      8  O   UNL     1      -4.168  12.815  -0.180  0.00  0.00    -0.491 OA
ATOM      9  C   UNL     1      -2.930  12.441  -0.789  0.00  0.00    +0.277 C 
ENDBRANCH   6   8
BRANCH   5  10
ATOM     10  O   UNL     1      -6.585  13.395   1.003  0.00  0.00    -0.501 OA
ATOM     11  H   UNL     1      -7.071  13.799   0.271  0.00  0.00    +0.292 HD
ENDBRANCH   5  10
BRANCH   4  12
ATOM     12  O   UNL     1      -8.275  11.349   1.736  0.00  0.00    -0.491 OA
ATOM     13  C   UNL     1      -9.101  10.238   2.090  0.00  0.00    +0.277 C 
ENDBRANCH   4  12
ENDBRANCH   1   2
BRANCH   1  14
ATOM     14  N   UNL     1      -5.598   7.184   1.184  0.00  0.00    +0.385 N 
ATOM     15  H   UNL     1      -5.395   6.200   0.973  0.00  0.00    -0.085 HD
ATOM     16  H   UNL     1      -6.613   7.312   1.276  0.00  0.00    -0.085 HD
BRANCH  14  17
ATOM     17  C   UNL     1      -4.945   7.553   2.454  0.00  0.00    -0.054 C 
BRANCH  17  18
ATOM     18  C   UNL     1      -5.583   6.761   3.596  0.00  0.00    +0.137 C 
BRANCH  18  19
ATOM     19  O   UNL     1      -5.315   5.369   3.418  0.00  0.00    -0.397 OA
ATOM     20  H   UNL     1      -5.691   4.804   4.108  0.00  0.00    +0.209 HD
ENDBRANCH  18  19
ENDBRANCH  17  18
ENDBRANCH  14  17
ENDBRANCH   1  14
BRANCH   1  21
ATOM     21  C   UNL     1      -3.574   7.931   0.010  0.00  0.00    +0.069 C 
BRANCH  21  22
ATOM     22  C   UNL     1      -3.181   6.523  -0.357  0.00  0.00    +0.171 C 
ATOM     23  O   UNL     1      -4.038   5.682  -0.540  0.00  0.00    -0.292 OA
BRANCH  22  33
ATOM     24  C   UNL     1       1.528   7.956  -0.426  0.00  0.00    +0.152 C 
ATOM     25  N   UNL     1       0.523   6.894  -0.522  0.00  0.00    -0.310 N 
ATOM     26  C   UNL     1       0.937   5.596  -0.737  0.00  0.00    +0.055 A 
ATOM     27  C   UNL     1       2.293   5.304  -0.861  0.00  0.00    +0.026 A 
ATOM     28  C   UNL     1       2.700   4.006  -1.075  0.00  0.00    +0.002 A 
ATOM     29  C   UNL     1       1.771   2.979  -1.171  0.00  0.00    +0.001 A 
ATOM     30  C   UNL     1       0.435   3.241  -1.059  0.00  0.00    +0.013 A 
ATOM     31  C   UNL     1      -0.001   4.552  -0.835  0.00  0.00    +0.041 A 
ATOM     32  C   UNL     1      -1.431   4.850  -0.706  0.00  0.00    +0.142 A 
ATOM     33  C   UNL     1      -1.814   6.180  -0.488  0.00  0.00    +0.124 A 
ATOM     34  C   UNL     1      -0.777   7.211  -0.398  0.00  0.00    +0.266 A 
ATOM     35  O   UNL     1      -1.097   8.371  -0.209  0.00  0.00    -0.267 OA
BRANCH  32  36
ATOM     36  O   UNL     1      -2.353   3.870  -0.795  0.00  0.00    -0.505 OA
ATOM     37  H   UNL     1      -3.282   4.136  -0.756  0.00  0.00    +0.292 HD
ENDBRANCH  32  36
ENDBRANCH  22  33
ENDBRANCH  21  22
ENDBRANCH   1  21
TORSDOF 12
