REMARK  Name = ZINC00940760
REMARK  8 active torsions:
REMARK  status: ('A' for Active; 'I' for Inactive)
REMARK    1  A    between atoms: C_1  and  C_2
REMARK    2  A    between atoms: C_3  and  C_27
REMARK    3  A    between atoms: C_4  and  C_17
REMARK    4  A    between atoms: C_10  and  C_12
REMARK    5  A    between atoms: C_20  and  O_25
REMARK    6  A    between atoms: C_22  and  O_23
REMARK    7  A    between atoms: O_23  and  C_24
REMARK    8  A    between atoms: O_25  and  C_26
REMARK                            x       y       z     vdW  Elec       q    Type
REMARK                         _______ _______ _______ _____ _____    ______ ____
ROOT
ATOM      1  C   UNL     1      -0.517   1.597  -0.277  0.00  0.00    +0.064 C 
ATOM      2  C   UNL     1      -0.295   0.113  -0.144  0.00  0.00    +0.026 C 
ATOM      3  C   UNL     1      -1.380  -0.720  -0.115  0.00  0.00    +0.059 C 
ATOM      4  C   UNL     1      -1.109  -2.208   0.019  0.00  0.00    +0.167 C 
ATOM      5  N   UNL     1       0.302  -2.602   0.105  0.00  0.00    -0.209 N 
ATOM      6  C   UNL     1       1.270  -1.626   0.060  0.00  0.00    +0.215 C 
ATOM      7  N   UNL     1       0.944  -0.346  -0.065  0.00  0.00    -0.330 N 
ATOM      8  N   UNL     1       2.461  -2.232   0.155  0.00  0.00    -0.197 NA
ATOM      9  C   UNL     1       2.303  -3.542   0.259  0.00  0.00    +0.153 C 
ATOM     10  N   UNL     1       0.959  -3.829   0.233  0.00  0.00    -0.244 N 
ATOM     11  H   UNL     1       1.665   0.301  -0.095  0.00  0.00    +0.168 HD
ATOM     12  H   UNL     1       0.550  -4.706   0.291  0.00  0.00    +0.172 HD
ENDROOT
BRANCH   4  13
ATOM     13  C   UNL     1      -1.807  -2.702   1.260  0.00  0.00    +0.021 A 
ATOM     14  C   UNL     1      -2.186  -1.806   2.242  0.00  0.00    +0.013 A 
ATOM     15  C   UNL     1      -2.826  -2.256   3.381  0.00  0.00    +0.046 A 
ATOM     16  C   UNL     1      -3.089  -3.609   3.542  0.00  0.00    +0.124 A 
ATOM     17  C   UNL     1      -2.709  -4.509   2.559  0.00  0.00    +0.091 A 
ATOM     18  C   UNL     1      -2.072  -4.055   1.414  0.00  0.00    +0.129 A 
BRANCH  18  19
ATOM     19  O   UNL     1      -1.704  -4.935   0.446  0.00  0.00    -0.495 OA
ATOM     20  C   UNL     1      -2.010  -6.312   0.671  0.00  0.00    +0.277 C 
ENDBRANCH  18  19
BRANCH  16  21
ATOM     21  O   UNL     1      -3.718  -4.051   4.663  0.00  0.00    -0.495 OA
ATOM     22  C   UNL     1      -4.080  -3.067   5.634  0.00  0.00    +0.277 C 
ENDBRANCH  16  21
ENDBRANCH   4  13
BRANCH   9  23
ATOM     23  C   UNL     1       3.381  -4.523   0.382  0.00  0.00    +0.053 A 
ATOM     24  C   UNL     1       4.754  -4.314   0.421  0.00  0.00    +0.019 A 
ATOM     25  C   UNL     1       5.524  -5.445   0.543  0.00  0.00    +0.008 A 
ATOM     26  C   UNL     1       4.915  -6.655   0.614  0.00  0.00    +0.046 A 
ATOM     27  S   UNL     1       3.276  -6.296   0.526  0.00  0.00    -0.094 S 
ENDBRANCH   9  23
BRANCH   3  28
ATOM     28  C   UNL     1      -2.690  -0.219  -0.206  0.00  0.00    +0.241 C 
ATOM     29  O   UNL     1      -2.884   0.985  -0.204  0.00  0.00    -0.271 OA
ATOM     30  N   UNL     1      -3.732  -1.069  -0.294  0.00  0.00    -0.325 N 
ATOM     31  H   UNL     1      -3.585  -2.025  -0.223  0.00  0.00    +0.145 HD
ATOM     32  H   UNL     1      -4.629  -0.725  -0.428  0.00  0.00    +0.145 HD
ENDBRANCH   3  28
TORSDOF 5
