REMARK  Name = ZINC06602071
REMARK  8 active torsions:
REMARK  status: ('A' for Active; 'I' for Inactive)
REMARK    1  A    between atoms: C_1  and  C_2
REMARK    2  A    between atoms: C_5  and  C_25
REMARK    3  A    between atoms: C_5  and  C_26
REMARK    4  A    between atoms: C_6  and  C_10
REMARK    5  A    between atoms: C_8  and  N_60
REMARK    6  A    between atoms: C_10  and  N_11
REMARK    7  A    between atoms: C_12  and  C_14
REMARK    8  A    between atoms: C_14  and  C_15
REMARK                            x       y       z     vdW  Elec       q    Type
REMARK                         _______ _______ _______ _____ _____    ______ ____
ROOT
ATOM      1  N   UNL     1       0.002  -0.004   0.002  0.00  0.00    -0.315 N 
ATOM      2  C   UNL     1      -0.016   1.344   0.009  0.00  0.00    +0.214 C 
ATOM      3  O   UNL     1      -1.075   1.936   0.018  0.00  0.00    -0.276 OA
ATOM      4  H   UNL     1       0.849  -0.478  -0.009  0.00  0.00    +0.149 HD
ENDROOT
BRANCH   1   5
ATOM      5  C   UNL     1      -1.256  -0.754   0.010  0.00  0.00    +0.106 C 
BRANCH   5  10
ATOM      6  C   UNL     1      -0.827  -4.338  -3.154  0.00  0.00    +0.006 C 
ATOM      7  C   UNL     1      -0.890  -4.048  -1.653  0.00  0.00    -0.028 C 
ATOM      8  C   UNL     1      -2.359  -3.910  -1.182  0.00  0.00    +0.008 C 
ATOM      9  C   UNL     1      -2.267  -3.054   0.099  0.00  0.00    -0.032 C 
ATOM     10  C   UNL     1      -0.957  -2.254  -0.001  0.00  0.00    -0.002 C 
ATOM     11  C   UNL     1      -0.298  -2.651  -1.338  0.00  0.00    -0.067 C 
ATOM     12  C   UNL     1      -2.237  -3.958   1.333  0.00  0.00    +0.011 C 
ATOM     13  C   UNL     1      -3.460  -2.099   0.177  0.00  0.00    +0.011 C 
BRANCH  11  16
ATOM     14  H   UNL     1      -0.228  -1.945  -3.271  0.00  0.00    -0.090 HD
ATOM     15  H   UNL     1      -1.656  -1.614  -2.486  0.00  0.00    -0.090 HD
ATOM     16  N   UNL     1      -0.644  -1.671  -2.382  0.00  0.00    +0.380 N 
ATOM     17  H   UNL     1      -0.283  -0.749  -2.113  0.00  0.00    -0.090 HD
ENDBRANCH  11  16
ENDBRANCH   5  10
ENDBRANCH   1   5
BRANCH   2  18
ATOM     18  C   UNL     1       1.278   2.115   0.001  0.00  0.00    +0.102 C 
BRANCH  18  19
ATOM     19  C   UNL     1       0.979   3.615   0.012  0.00  0.00    -0.020 C 
ATOM     20  C   UNL     1       0.159   3.980  -1.227  0.00  0.00    +0.011 C 
ATOM     21  C   UNL     1      -0.141   5.481  -1.216  0.00  0.00    -0.010 C 
ATOM     22  C   UNL     1       1.174   6.264  -1.225  0.00  0.00    +0.007 C 
ATOM     23  C   UNL     1       1.993   5.898   0.015  0.00  0.00    -0.010 C 
ATOM     24  C   UNL     1       2.293   4.398   0.004  0.00  0.00    +0.011 C 
ATOM     25  C   UNL     1       1.198   6.250   1.274  0.00  0.00    +0.007 C 
ATOM     26  C   UNL     1      -0.117   5.467   1.282  0.00  0.00    -0.010 C 
ATOM     27  C   UNL     1      -0.936   5.833   0.042  0.00  0.00    +0.007 C 
ATOM     28  C   UNL     1       0.183   3.967   1.271  0.00  0.00    +0.011 C 
ENDBRANCH  18  19
ENDBRANCH   2  18
TORSDOF 5
