REMARK  Name = ZINC03336730
REMARK  9 active torsions:
REMARK  status: ('A' for Active; 'I' for Inactive)
REMARK    1  A    between atoms: C_1  and  C_2
REMARK    2  A    between atoms: C_5  and  N_9
REMARK    3  A    between atoms: C_10  and  C_12
REMARK    4  A    between atoms: C_12  and  N_58
REMARK    5  A    between atoms: N_15  and  S_18
REMARK    6  A    between atoms: S_18  and  C_21
REMARK    7  A    between atoms: C_24  and  C_27
REMARK    8  A    between atoms: C_27  and  C_28
REMARK    9  A    between atoms: C_27  and  C_29
REMARK                            x       y       z     vdW  Elec       q    Type
REMARK                         _______ _______ _______ _____ _____    ______ ____
ROOT
ATOM      1  C   UNL     1      -2.185   3.684  -1.863  0.00  0.00    -0.061 C 
ATOM      2  C   UNL     1      -0.821   3.001  -1.716  0.00  0.00    +0.091 C 
ATOM      3  N   UNL     1      -1.040   1.594  -1.345  0.00  0.00    -0.180 NA
ATOM      4  C   UNL     1      -1.964   0.795  -2.165  0.00  0.00    +0.091 C 
ATOM      5  C   UNL     1      -3.287   1.566  -2.291  0.00  0.00    -0.061 C 
ATOM      6  N   UNL     1      -3.000   2.914  -2.829  0.00  0.00    +0.387 N 
ATOM      7  H   UNL     1      -2.474   2.817  -3.705  0.00  0.00    -0.081 HD
ENDROOT
BRANCH   3   8
ATOM      8  S   UNL     1      -0.263   0.927  -0.045  0.00  0.00    +0.061 S 
ATOM      9  O   UNL     1      -0.221  -0.475  -0.272  0.00  0.00    -0.153 OA
ATOM     10  O   UNL     1       0.910   1.699   0.167  0.00  0.00    -0.153 OA
BRANCH   8  11
ATOM     11  C   UNL     1      -1.293   1.178   1.363  0.00  0.00    +0.105 A 
ATOM     12  C   UNL     1      -1.149   2.320   2.130  0.00  0.00    +0.029 A 
ATOM     13  C   UNL     1      -1.960   2.519   3.231  0.00  0.00    +0.006 A 
ATOM     14  C   UNL     1      -2.908   1.573   3.572  0.00  0.00    -0.045 A 
ATOM     15  C   UNL     1      -3.049   0.429   2.808  0.00  0.00    +0.006 A 
ATOM     16  C   UNL     1      -2.241   0.232   1.704  0.00  0.00    +0.029 A 
BRANCH  14  17
ATOM     17  C   UNL     1      -3.789   1.789   4.775  0.00  0.00    +0.013 C 
ATOM     18  C   UNL     1      -2.921   1.908   6.029  0.00  0.00    +0.012 C 
ATOM     19  C   UNL     1      -4.598   3.074   4.591  0.00  0.00    +0.012 C 
ENDBRANCH  14  17
ENDBRANCH   8  11
ENDBRANCH   3   8
BRANCH   6  20
ATOM     20  C   UNL     1      -4.264   3.627  -3.104  0.00  0.00    +0.019 C 
BRANCH  20  22
ATOM     21  N   UNL     1      -6.341   4.249  -1.912  0.00  0.00    -0.286 N 
ATOM     22  C   UNL     1      -5.098   3.729  -1.853  0.00  0.00    +0.201 C 
ATOM     23  O   UNL     1      -4.652   3.344  -0.793  0.00  0.00    -0.278 OA
ATOM     24  H   UNL     1      -6.721   4.498  -2.769  0.00  0.00    +0.155 HD
BRANCH  21  29
ATOM     25  C   UNL     1      -9.341   4.974   2.848  0.00  0.00    +0.044 C 
ATOM     26  C   UNL     1      -8.545   4.782   1.584  0.00  0.00    -0.049 A 
ATOM     27  C   UNL     1      -7.673   3.714   1.473  0.00  0.00    +0.005 A 
ATOM     28  C   UNL     1      -6.941   3.534   0.316  0.00  0.00    +0.024 A 
ATOM     29  C   UNL     1      -7.081   4.428  -0.738  0.00  0.00    +0.047 A 
ATOM     30  C   UNL     1      -7.953   5.503  -0.622  0.00  0.00    +0.039 A 
ATOM     31  C   UNL     1      -8.686   5.674   0.537  0.00  0.00    +0.020 A 
ATOM     32 BR   UNL     1      -8.142   6.727  -2.051  0.00  0.00    -0.048 Br
ENDBRANCH  21  29
ENDBRANCH  20  22
ENDBRANCH   6  20
TORSDOF 6
