REMARK  Name = ZINC43228931
REMARK  7 active torsions:
REMARK  status: ('A' for Active; 'I' for Inactive)
REMARK    1  A    between atoms: C_1  and  C_2
REMARK    2  A    between atoms: C_5  and  C_8
REMARK    3  A    between atoms: C_8  and  C_10
REMARK    4  A    between atoms: C_8  and  N_16
REMARK    5  A    between atoms: N_19  and  N_20
REMARK    6  A    between atoms: C_21  and  C_23
REMARK    7  A    between atoms: N_25  and  C_26
REMARK                            x       y       z     vdW  Elec       q    Type
REMARK                         _______ _______ _______ _____ _____    ______ ____
ROOT
ATOM      1  N   UNL     1      -0.816  -4.781   1.039  0.00  0.00    -0.287 N 
ATOM      2  C   UNL     1      -1.361  -6.009   0.935  0.00  0.00    +0.317 C 
ATOM      3  O   UNL     1      -1.125  -6.698  -0.039  0.00  0.00    -0.251 OA
ATOM      4  N   UNL     1      -2.166  -6.474   1.910  0.00  0.00    -0.218 N 
ATOM      5  H   UNL     1      -1.004  -4.231   1.816  0.00  0.00    +0.151 HD
ATOM      6  H   UNL     1      -2.558  -7.359   1.835  0.00  0.00    +0.174 HD
ENDROOT
BRANCH   4   7
ATOM      7  N   UNL     1      -2.437  -5.681   3.032  0.00  0.00    -0.225 N 
ATOM      8  C   UNL     1      -3.243  -6.146   4.008  0.00  0.00    +0.315 C 
ATOM      9  O   UNL     1      -3.733  -7.252   3.914  0.00  0.00    -0.264 OA
ATOM     10  H   UNL     1      -2.046  -4.797   3.107  0.00  0.00    +0.173 HD
BRANCH   8  11
ATOM     11  C   UNL     1      -3.533  -5.299   5.205  0.00  0.00    +0.301 C 
ATOM     12  O   UNL     1      -3.042  -4.193   5.298  0.00  0.00    -0.265 OA
ATOM     13  N   UNL     1      -4.338  -5.764   6.180  0.00  0.00    -0.305 N 
ATOM     14  H   UNL     1      -4.730  -6.649   6.105  0.00  0.00    +0.149 HD
BRANCH  13  15
ATOM     15  C   UNL     1      -4.622  -4.934   7.353  0.00  0.00    +0.073 C 
ATOM     16  C   UNL     1      -4.585  -5.613   8.724  0.00  0.00    +0.024 C 
ATOM     17  C   UNL     1      -5.925  -5.202   8.110  0.00  0.00    +0.024 C 
ENDBRANCH  13  15
ENDBRANCH   8  11
ENDBRANCH   4   7
BRANCH   1  18
ATOM     18  C   UNL     1       0.059  -4.275  -0.021  0.00  0.00    +0.135 C 
BRANCH  18  23
ATOM     19  C   UNL     1      -0.018   1.503   0.010  0.00  0.00    +0.044 C 
ATOM     20  C   UNL     1       0.002  -0.004   0.002  0.00  0.00    -0.050 A 
ATOM     21  C   UNL     1       0.006  -0.689  -1.199  0.00  0.00    +0.004 A 
ATOM     22  C   UNL     1       0.025  -2.071  -1.206  0.00  0.00    +0.006 A 
ATOM     23  C   UNL     1       0.040  -2.768  -0.013  0.00  0.00    -0.023 A 
ATOM     24  C   UNL     1       0.037  -2.084   1.188  0.00  0.00    +0.006 A 
ATOM     25  C   UNL     1       0.023  -0.702   1.195  0.00  0.00    +0.004 A 
ENDBRANCH  18  23
BRANCH  18  26
ATOM     26  C   UNL     1       1.466  -4.761   0.215  0.00  0.00    -0.023 A 
ATOM     27  C   UNL     1       1.977  -4.801   1.499  0.00  0.00    +0.006 A 
ATOM     28  C   UNL     1       3.268  -5.246   1.715  0.00  0.00    +0.000 A 
ATOM     29  C   UNL     1       4.047  -5.652   0.648  0.00  0.00    +0.000 A 
ATOM     30  C   UNL     1       3.536  -5.613  -0.635  0.00  0.00    +0.000 A 
ATOM     31  C   UNL     1       2.244  -5.171  -0.852  0.00  0.00    +0.006 A 
ENDBRANCH  18  26
ENDBRANCH   1  18
TORSDOF 6
