REMARK  Name = ZINC61367599
REMARK  5 active torsions:
REMARK  status: ('A' for Active; 'I' for Inactive)
REMARK    1  A    between atoms: C_1  and  C_2
REMARK    2  A    between atoms: C_4  and  C_22
REMARK    3  A    between atoms: C_7  and  C_8
REMARK    4  A    between atoms: C_8  and  N_10
REMARK    5  A    between atoms: N_11  and  C_12
REMARK                            x       y       z     vdW  Elec       q    Type
REMARK                         _______ _______ _______ _____ _____    ______ ____
ROOT
ATOM      1  C   UNL     1      -0.007   1.499   0.091  0.00  0.00    +0.044 C 
ATOM      2  C   UNL     1       0.005  -0.007   0.041  0.00  0.00    -0.036 A 
ATOM      3  C   UNL     1      -0.110  -0.677  -1.165  0.00  0.00    +0.025 A 
ATOM      4  C   UNL     1      -0.096  -2.060  -1.180  0.00  0.00    +0.015 A 
ATOM      5  N   UNL     1       0.026  -2.755  -0.065  0.00  0.00    -0.347 N 
ATOM      6  C   UNL     1       0.139  -2.166   1.115  0.00  0.00    +0.107 A 
ATOM      7  C   UNL     1       0.139  -0.763   1.211  0.00  0.00    +0.044 A 
ATOM      8  N   UNL     1       0.265  -2.934   2.259  0.00  0.00    -0.323 N 
ATOM      9  C   UNL     1      -0.221  -2.787  -2.494  0.00  0.00    +0.063 C 
ATOM     10  H   UNL     1       0.268  -2.509   3.130  0.00  0.00    +0.148 HD
ATOM     11  H   UNL     1       0.032  -3.724  -0.111  0.00  0.00    +0.167 HD
ENDROOT
BRANCH   8  12
ATOM     12  C   UNL     1       0.392  -4.389   2.153  0.00  0.00    +0.103 C 
ATOM     13  C   UNL     1      -0.092  -5.042   3.449  0.00  0.00    +0.027 C 
ATOM     14  C   UNL     1       0.853  -4.685   4.600  0.00  0.00    +0.007 C 
ATOM     15  C   UNL     1       2.187  -5.417   4.386  0.00  0.00    +0.043 C 
ATOM     16  C   UNL     1       2.611  -5.216   2.968  0.00  0.00    -0.005 A 
ATOM     17  C   UNL     1       1.855  -4.760   1.929  0.00  0.00    -0.017 A 
ATOM     18  C   UNL     1       2.487  -4.658   0.690  0.00  0.00    +0.013 A 
ATOM     19  C   UNL     1       3.788  -5.005   0.562  0.00  0.00    +0.046 A 
ATOM     20  S   UNL     1       4.199  -5.508   2.236  0.00  0.00    -0.101 S 
ENDBRANCH   8  12
BRANCH   7  21
ATOM     21  C   UNL     1       0.272  -0.101   2.520  0.00  0.00    +0.080 C 
ATOM     22  S   UNL     1       1.810   0.415   3.067  0.00  0.00    -0.035 S 
BRANCH  21  23
ATOM     23  N   UNL     1      -0.818   0.099   3.287  0.00  0.00    -0.352 N 
ATOM     24  H   UNL     1      -1.698  -0.127   2.948  0.00  0.00    +0.143 HD
ATOM     25  H   UNL     1      -0.722   0.469   4.179  0.00  0.00    +0.143 HD
ENDBRANCH  21  23
ENDBRANCH   7  21
TORSDOF 3
