REMARK  Name = ZINC04311877
REMARK  10 active torsions:
REMARK  status: ('A' for Active; 'I' for Inactive)
REMARK    1  A    between atoms: C_1  and  N_53
REMARK    2  A    between atoms: C_8  and  C_20
REMARK    3  A    between atoms: C_10  and  C_16
REMARK    4  A    between atoms: C_10  and  C_18
REMARK    5  A    between atoms: C_12  and  C_13
REMARK    6  A    between atoms: C_23  and  O_28
REMARK    7  A    between atoms: C_24  and  O_26
REMARK    8  A    between atoms: O_26  and  C_27
REMARK    9  A    between atoms: O_28  and  C_29
REMARK   10  A    between atoms: C_29  and  C_30
REMARK                            x       y       z     vdW  Elec       q    Type
REMARK                         _______ _______ _______ _____ _____    ______ ____
ROOT
ATOM      1  C   UNL     1      -0.176   1.472  -2.370  0.00  0.00    -0.096 C 
ATOM      2  C   UNL     1      -0.947   3.324  -1.007  0.00  0.00    -0.051 C 
ATOM      3  C   UNL     1      -1.773   3.627   0.219  0.00  0.00    -0.044 C 
ATOM      4  C   UNL     1      -1.696   2.840   1.276  0.00  0.00    -0.051 C 
ATOM      5  C   UNL     1      -0.773   1.659   1.349  0.00  0.00    +0.010 C 
ATOM      6  C   UNL     1      -0.089   1.330   0.042  0.00  0.00    -0.070 C 
ATOM      7  C   UNL     1      -1.560   0.471   1.903  0.00  0.00    +0.064 C 
ATOM      8  C   UNL     1      -2.016   0.799   3.326  0.00  0.00    +0.188 C 
ATOM      9  C   UNL     1      -2.697   2.132   3.399  0.00  0.00    +0.065 C 
ATOM     10  C   UNL     1      -2.552   3.102   2.460  0.00  0.00    +0.163 C 
ATOM     11  N   UNL     1      -3.509   2.385   4.469  0.00  0.00    -0.304 NA
ATOM     12  H   UNL     1      -3.963   3.239   4.542  0.00  0.00    +0.186 HD
ATOM     13  N   UNL     1      -0.847   1.853  -1.106  0.00  0.00    +0.381 N 
ATOM     14  H   UNL     1      -1.792   1.451  -1.095  0.00  0.00    -0.082 HD
ENDROOT
BRANCH   7  15
ATOM     15  C   UNL     1      -2.764   0.216   1.034  0.00  0.00    -0.037 A 
ATOM     16  C   UNL     1      -3.956   0.865   1.298  0.00  0.00    +0.008 A 
ATOM     17  C   UNL     1      -5.062   0.638   0.499  0.00  0.00    +0.050 A 
ATOM     18  C   UNL     1      -4.980  -0.249  -0.562  0.00  0.00    +0.163 A 
ATOM     19  C   UNL     1      -3.782  -0.906  -0.825  0.00  0.00    +0.162 A 
ATOM     20  C   UNL     1      -2.676  -0.670  -0.024  0.00  0.00    +0.053 A 
BRANCH  19  21
ATOM     21  O   UNL     1      -3.696  -1.777  -1.865  0.00  0.00    -0.491 OA
ATOM     22  C   UNL     1      -2.435  -2.415  -2.075  0.00  0.00    +0.277 C 
ENDBRANCH  19  21
BRANCH  18  23
ATOM     23  O   UNL     1      -6.068  -0.476  -1.345  0.00  0.00    -0.479 OA
BRANCH  23  24
ATOM     24  C   UNL     1      -7.264   0.233  -1.017  0.00  0.00    +0.324 C 
BRANCH  24  25
ATOM     25  C   UNL     1      -8.354  -0.144  -1.986  0.00  0.00    +0.248 C 
ATOM     26  O   UNL     1      -8.129  -0.942  -2.872  0.00  0.00    -0.272 OA
ATOM     27  N   UNL     1      -9.579   0.406  -1.870  0.00  0.00    -0.327 N 
ATOM     28  H   UNL     1      -9.759   1.044  -1.162  0.00  0.00    +0.145 HD
ATOM     29  H   UNL     1     -10.281   0.163  -2.494  0.00  0.00    +0.145 HD
ENDBRANCH  24  25
ENDBRANCH  23  24
ENDBRANCH  18  23
ENDBRANCH   7  15
BRANCH  10  30
ATOM     30  C   UNL     1      -3.215   4.362   2.611  0.00  0.00    +0.076 C 
ATOM     31  N   UNL     1      -3.742   5.362   2.730  0.00  0.00    -0.196 NA
ENDBRANCH  10  30
BRANCH   8  32
ATOM     32  C   UNL     1      -0.843   0.810   4.215  0.00  0.00    +0.091 C 
ATOM     33  N   UNL     1       0.062   0.819   4.901  0.00  0.00    -0.195 NA
ENDBRANCH   8  32
BRANCH   8  34
ATOM     34  C   UNL     1      -2.951  -0.243   3.782  0.00  0.00    +0.091 C 
ATOM     35  N   UNL     1      -3.672  -1.047   4.134  0.00  0.00    -0.195 NA
ENDBRANCH   8  34
TORSDOF 8
