REMARK  Name = ZINC39631275
REMARK  13 active torsions:
REMARK  status: ('A' for Active; 'I' for Inactive)
REMARK    1  A    between atoms: C_1  and  C_2
REMARK    2  A    between atoms: C_2  and  C_4
REMARK    3  A    between atoms: C_2  and  N_11
REMARK    4  A    between atoms: C_4  and  C_5
REMARK    5  A    between atoms: C_5  and  C_6
REMARK    6  A    between atoms: C_6  and  C_7
REMARK    7  A    between atoms: C_7  and  C_8
REMARK    8  A    between atoms: C_7  and  C_9
REMARK    9  A    between atoms: C_7  and  O_10
REMARK   10  A    between atoms: C_12  and  C_14
REMARK   11  A    between atoms: C_25  and  C_27
REMARK   12  A    between atoms: C_27  and  C_28
REMARK   13  A    between atoms: C_28  and  C_29
REMARK                            x       y       z     vdW  Elec       q    Type
REMARK                         _______ _______ _______ _____ _____    ______ ____
ROOT
ATOM      1  C   UNL     1       0.712  -1.094  -3.598  0.00  0.00    +0.100 C 
ATOM      2  C   UNL     1       1.732  -0.041  -4.085  0.00  0.00    +0.121 C 
ATOM      3  N   UNL     1       1.653  -0.098  -5.564  0.00  0.00    -0.300 N 
ATOM      4  C   UNL     1       0.208  -0.272  -5.849  0.00  0.00    +0.115 C 
ATOM      5  C   UNL     1      -0.287  -1.243  -4.759  0.00  0.00    -0.004 C 
ATOM      6  C   UNL     1      -0.277  -2.675  -5.284  0.00  0.00    -0.010 C 
ATOM      7  C   UNL     1      -1.318  -2.812  -6.399  0.00  0.00    -0.082 C 
ATOM      8  N   UNL     1      -2.646  -2.470  -5.875  0.00  0.00    +0.379 N 
ATOM      9  C   UNL     1      -2.673  -1.063  -5.458  0.00  0.00    -0.082 C 
ATOM     10  C   UNL     1      -1.689  -0.852  -4.303  0.00  0.00    -0.010 C 
ATOM     11  C   UNL     1       2.665  -0.011  -6.449  0.00  0.00    +0.216 C 
ATOM     12  O   UNL     1       2.438  -0.076  -7.638  0.00  0.00    -0.276 OA
ATOM     13  H   UNL     1      -3.338  -2.620  -6.594  0.00  0.00    -0.086 HD
ATOM     14  H   UNL     1      -2.856  -3.059  -5.083  0.00  0.00    -0.086 HD
ENDROOT
BRANCH   1  16
ATOM     15  N   UNL     1      -0.447  -1.494  -1.450  0.00  0.00    -0.312 N 
ATOM     16  C   UNL     1       0.006  -0.608  -2.358  0.00  0.00    +0.218 C 
ATOM     17  O   UNL     1      -0.154   0.581  -2.179  0.00  0.00    -0.275 OA
ATOM     18  H   UNL     1      -0.318  -2.445  -1.594  0.00  0.00    +0.149 HD
BRANCH  15  20
ATOM     19  C   UNL     1      -0.098  -0.673   0.828  0.00  0.00    +0.028 C 
ATOM     20  C   UNL     1      -1.132  -1.022  -0.244  0.00  0.00    +0.070 C 
BRANCH  20  21
ATOM     21  C   UNL     1      -2.059  -2.121   0.279  0.00  0.00    +0.022 C 
BRANCH  21  22
ATOM     22  C   UNL     1      -3.168  -2.382  -0.741  0.00  0.00    +0.005 C 
BRANCH  22  23
ATOM     23  C   UNL     1      -4.095  -3.482  -0.218  0.00  0.00    +0.034 C 
BRANCH  23  24
ATOM     24  C   UNL     1      -5.204  -3.743  -1.238  0.00  0.00    +0.061 C 
ATOM     25  C   UNL     1      -6.200  -4.751  -0.662  0.00  0.00    +0.041 C 
ATOM     26  C   UNL     1      -5.928  -2.432  -1.551  0.00  0.00    +0.041 C 
BRANCH  24  27
ATOM     27  O   UNL     1      -4.633  -4.269  -2.438  0.00  0.00    -0.389 OA
ATOM     28  H   UNL     1      -4.157  -5.102  -2.315  0.00  0.00    +0.210 HD
ENDBRANCH  24  27
ENDBRANCH  23  24
ENDBRANCH  22  23
ENDBRANCH  21  22
ENDBRANCH  20  21
ENDBRANCH  15  20
ENDBRANCH   1  16
BRANCH  11  29
ATOM     29  C   UNL     1       4.080   0.166  -5.961  0.00  0.00    +0.100 C 
BRANCH  29  30
ATOM     30  C   UNL     1       5.028   0.235  -7.159  0.00  0.00    +0.044 C 
BRANCH  30  31
ATOM     31  C   UNL     1       6.443   0.411  -6.671  0.00  0.00    -0.047 A 
ATOM     32  C   UNL     1       6.955   1.681  -6.480  0.00  0.00    +0.003 A 
ATOM     33  C   UNL     1       8.252   1.844  -6.032  0.00  0.00    +0.000 A 
ATOM     34  C   UNL     1       9.038   0.736  -5.775  0.00  0.00    +0.000 A 
ATOM     35  C   UNL     1       8.526  -0.534  -5.965  0.00  0.00    +0.000 A 
ATOM     36  C   UNL     1       7.227  -0.696  -6.409  0.00  0.00    +0.003 A 
ENDBRANCH  30  31
ENDBRANCH  29  30
ENDBRANCH  11  29
TORSDOF 10
