REMARK  Name = ZINC08636364
REMARK  7 active torsions:
REMARK  status: ('A' for Active; 'I' for Inactive)
REMARK    1  A    between atoms: C_1  and  O_2
REMARK    2  A    between atoms: O_2  and  C_3
REMARK    3  A    between atoms: C_6  and  N_9
REMARK    4  A    between atoms: C_14  and  O_33
REMARK    5  A    between atoms: C_16  and  O_32
REMARK    6  A    between atoms: C_19  and  C_24
REMARK    7  A    between atoms: N_26  and  C_27
REMARK                            x       y       z     vdW  Elec       q    Type
REMARK                         _______ _______ _______ _____ _____    ______ ____
ROOT
ATOM      1  N   UNL     1      -3.306  -0.236   8.923  0.00  0.00    -0.294 N 
ATOM      2  C   UNL     1      -2.297   0.312   8.163  0.00  0.00    +0.154 C 
ATOM      3  N   UNL     1      -1.015   0.174   8.347  0.00  0.00    -0.256 NA
ATOM      4  C   UNL     1      -0.073   0.837   7.487  0.00  0.00    +0.153 C 
ATOM      5  C   UNL     1       1.209   0.102   7.243  0.00  0.00    +0.168 C 
ATOM      6  C   UNL     1       1.251  -0.577   5.878  0.00  0.00    +0.146 C 
ATOM      7  C   UNL     1       0.990   0.487   4.806  0.00  0.00    +0.048 C 
ATOM      8  C   UNL     1      -0.439   0.990   4.960  0.00  0.00    +0.093 C 
ATOM      9  C   UNL     1      -0.696   1.592   6.327  0.00  0.00    +0.093 C 
ATOM     10  S   UNL     1      -2.478   1.353   6.728  0.00  0.00    -0.084 S 
ATOM     11  H   UNL     1      -4.231  -0.133   8.647  0.00  0.00    +0.154 HD
ENDROOT
BRANCH   1  15
ATOM     12  C   UNL     1      -2.390  -2.333  12.408  0.00  0.00    +0.120 A 
ATOM     13  C   UNL     1      -1.560  -1.309  11.977  0.00  0.00    +0.047 A 
ATOM     14  C   UNL     1      -1.863  -0.614  10.823  0.00  0.00    +0.027 A 
ATOM     15  C   UNL     1      -2.999  -0.940  10.094  0.00  0.00    +0.033 A 
ATOM     16  C   UNL     1      -3.833  -1.961  10.529  0.00  0.00    +0.027 A 
ATOM     17  C   UNL     1      -3.525  -2.660  11.681  0.00  0.00    +0.047 A 
BRANCH  12  19
ATOM     18  C   UNL     1      -2.990  -4.060  13.930  0.00  0.00    +0.277 C 
ATOM     19  O   UNL     1      -2.091  -3.017  13.544  0.00  0.00    -0.495 OA
ENDBRANCH  12  19
ENDBRANCH   1  15
BRANCH   8  20
ATOM     20  C   UNL     1      -0.705   2.036   3.908  0.00  0.00    +0.218 C 
ATOM     21  O   UNL     1      -1.012   3.162   4.237  0.00  0.00    -0.275 OA
ATOM     22  N   UNL     1      -0.600   1.720   2.602  0.00  0.00    -0.312 N 
ATOM     23  H   UNL     1      -0.355   0.819   2.339  0.00  0.00    +0.149 HD
BRANCH  22  24
ATOM     24  C   UNL     1      -0.858   2.737   1.580  0.00  0.00    +0.073 C 
ATOM     25  C   UNL     1      -0.113   2.395   0.265  0.00  0.00    +0.022 C 
ATOM     26  C   UNL     1      -0.914   3.130  -0.829  0.00  0.00    +0.002 C 
ATOM     27  C   UNL     1      -2.334   3.333  -0.273  0.00  0.00    +0.002 C 
ATOM     28  C   UNL     1      -2.347   2.715   1.140  0.00  0.00    +0.022 C 
ENDBRANCH  22  24
ENDBRANCH   8  20
BRANCH   6  29
ATOM     29  O   UNL     1       2.538  -1.164   5.671  0.00  0.00    -0.389 OA
ATOM     30  H   UNL     1       2.639  -1.597   4.812  0.00  0.00    +0.210 HD
ENDBRANCH   6  29
BRANCH   5  31
ATOM     31  O   UNL     1       1.370  -0.892   8.258  0.00  0.00    -0.387 OA
ATOM     32  H   UNL     1       2.203  -1.380   8.201  0.00  0.00    +0.210 HD
ENDBRANCH   5  31
TORSDOF 6
