REMARK  Name = ZINC40014717
REMARK  12 active torsions:
REMARK  status: ('A' for Active; 'I' for Inactive)
REMARK    1  A    between atoms: C_1  and  C_2
REMARK    2  A    between atoms: C_2  and  N_3
REMARK    3  A    between atoms: N_3  and  C_4
REMARK    4  A    between atoms: N_3  and  C_6
REMARK    5  A    between atoms: C_4  and  C_5
REMARK    6  A    between atoms: C_6  and  C_7
REMARK    7  A    between atoms: C_7  and  C_8
REMARK    8  A    between atoms: C_8  and  N_9
REMARK    9  A    between atoms: C_10  and  C_26
REMARK   10  A    between atoms: C_30  and  O_32
REMARK   11  A    between atoms: O_32  and  C_33
REMARK   12  A    between atoms: C_33  and  C_34
REMARK                            x       y       z     vdW  Elec       q    Type
REMARK                         _______ _______ _______ _____ _____    ______ ____
ROOT
ATOM      1  N   UNL     1       2.121  -4.549  -3.837  0.00  0.00    -0.284 N 
ATOM      2  C   UNL     1       1.651  -4.682  -5.226  0.00  0.00    +0.145 C 
ATOM      3  C   UNL     1       2.817  -5.200  -6.002  0.00  0.00    +0.072 A 
ATOM      4  C   UNL     1       2.959  -5.540  -7.422  0.00  0.00    +0.199 A 
ATOM      5  O   UNL     1       2.117  -5.269  -8.260  0.00  0.00    -0.287 OA
ATOM      6  C   UNL     1       4.226  -6.245  -7.741  0.00  0.00    +0.066 A 
ATOM      7  C   UNL     1       4.421  -6.809  -9.002  0.00  0.00    +0.035 A 
ATOM      8  C   UNL     1       5.601  -7.465  -9.278  0.00  0.00    +0.042 A 
ATOM      9  C   UNL     1       6.588  -7.562  -8.305  0.00  0.00    +0.023 A 
ATOM     10  C   UNL     1       6.406  -7.008  -7.059  0.00  0.00    +0.048 A 
ATOM     11  C   UNL     1       5.222  -6.337  -6.755  0.00  0.00    +0.140 A 
ATOM     12  O   UNL     1       5.073  -5.793  -5.525  0.00  0.00    -0.450 OA
ATOM     13  C   UNL     1       3.863  -5.346  -5.136  0.00  0.00    +0.199 A 
ATOM     14  C   UNL     1       3.412  -4.934  -3.795  0.00  0.00    +0.283 C 
ATOM     15  O   UNL     1       4.103  -4.943  -2.795  0.00  0.00    -0.267 OA
ATOM     16 CL   UNL     1       5.855  -8.170 -10.844  0.00  0.00    -0.084 Cl
ENDROOT
BRANCH   2  17
ATOM     17  C   UNL     1       1.224  -3.339  -5.761  0.00  0.00    -0.019 A 
ATOM     18  C   UNL     1       1.964  -2.210  -5.463  0.00  0.00    +0.006 A 
ATOM     19  C   UNL     1       1.575  -0.977  -5.952  0.00  0.00    +0.004 A 
ATOM     20  C   UNL     1       0.446  -0.870  -6.741  0.00  0.00    +0.045 A 
ATOM     21  C   UNL     1      -0.298  -2.002  -7.042  0.00  0.00    +0.121 A 
ATOM     22  C   UNL     1       0.098  -3.239  -6.554  0.00  0.00    +0.051 A 
BRANCH  21  23
ATOM     23  O   UNL     1      -1.409  -1.899  -7.817  0.00  0.00    -0.487 OA
BRANCH  23  24
ATOM     24  C   UNL     1      -1.754  -0.595  -8.289  0.00  0.00    +0.264 C 
BRANCH  24  25
ATOM     25  C   UNL     1      -3.004  -0.677  -9.126  0.00  0.00    -0.010 A 
ATOM     26  C   UNL     1      -2.911  -0.898 -10.487  0.00  0.00    +0.007 A 
ATOM     27  C   UNL     1      -4.058  -0.974 -11.255  0.00  0.00    +0.000 A 
ATOM     28  C   UNL     1      -5.298  -0.829 -10.661  0.00  0.00    +0.000 A 
ATOM     29  C   UNL     1      -5.391  -0.609  -9.300  0.00  0.00    +0.000 A 
ATOM     30  C   UNL     1      -4.244  -0.537  -8.531  0.00  0.00    +0.007 A 
ENDBRANCH  24  25
ENDBRANCH  23  24
ENDBRANCH  21  23
ENDBRANCH   2  17
BRANCH   1  31
ATOM     31  C   UNL     1       1.326  -4.075  -2.702  0.00  0.00    +0.107 C 
BRANCH  31  32
ATOM     32  C   UNL     1       1.462  -2.556  -2.582  0.00  0.00    +0.000 C 
BRANCH  32  33
ATOM     33  C   UNL     1       0.632  -2.062  -1.396  0.00  0.00    -0.077 C 
BRANCH  33  34
ATOM     34  N   UNL     1       0.860  -0.623  -1.205  0.00  0.00    +0.379 N 
ATOM     35  H   UNL     1       1.849  -0.449  -1.106  0.00  0.00    -0.082 HD
BRANCH  34  37
ATOM     36  C   UNL     1       0.695   1.596  -2.227  0.00  0.00    -0.017 C 
ATOM     37  C   UNL     1       0.347   0.113  -2.368  0.00  0.00    -0.082 C 
ENDBRANCH  34  37
BRANCH  34  38
ATOM     38  C   UNL     1       0.161  -0.173   0.006  0.00  0.00    -0.082 C 
ATOM     39  C   UNL     1       0.802  -0.821   1.236  0.00  0.00    -0.017 C 
ENDBRANCH  34  38
ENDBRANCH  33  34
ENDBRANCH  32  33
ENDBRANCH  31  32
ENDBRANCH   1  31
TORSDOF 10
