REMARK  Name = ZINC40178057
REMARK  11 active torsions:
REMARK  status: ('A' for Active; 'I' for Inactive)
REMARK    1  A    between atoms: C_1  and  C_2
REMARK    2  A    between atoms: C_2  and  C_3
REMARK    3  A    between atoms: C_3  and  O_4
REMARK    4  A    between atoms: O_4  and  C_5
REMARK    5  A    between atoms: C_8  and  C_11
REMARK    6  A    between atoms: C_13  and  S_26
REMARK    7  A    between atoms: C_14  and  N_16
REMARK    8  A    between atoms: N_16  and  C_17
REMARK    9  A    between atoms: C_17  and  C_19
REMARK   10  A    between atoms: C_17  and  C_20
REMARK   11  A    between atoms: S_26  and  C_29
REMARK                            x       y       z     vdW  Elec       q    Type
REMARK                         _______ _______ _______ _____ _____    ______ ____
ROOT
ATOM      1  C   UNL     1       3.227  -4.414  -5.629  0.00  0.00    +0.231 A 
ATOM      2  N   UNL     1       3.332  -5.709  -5.813  0.00  0.00    -0.188 NA
ATOM      3  C   UNL     1       3.987  -5.928  -6.964  0.00  0.00    +0.243 A 
ATOM      4  C   UNL     1       4.293  -4.723  -7.501  0.00  0.00    +0.233 A 
ATOM      5  O   UNL     1       3.810  -3.781  -6.665  0.00  0.00    -0.420 OA
ENDROOT
BRANCH   1   9
ATOM      6  C   UNL     1       1.341  -2.529  -2.322  0.00  0.00    +0.121 A 
ATOM      7  C   UNL     1       1.908  -1.758  -3.328  0.00  0.00    +0.046 A 
ATOM      8  C   UNL     1       2.521  -2.365  -4.403  0.00  0.00    +0.017 A 
ATOM      9  C   UNL     1       2.572  -3.759  -4.479  0.00  0.00    +0.037 A 
ATOM     10  C   UNL     1       2.001  -4.531  -3.465  0.00  0.00    +0.017 A 
ATOM     11  C   UNL     1       1.395  -3.915  -2.391  0.00  0.00    +0.046 A 
BRANCH   6  12
ATOM     12  O   UNL     1       0.738  -1.926  -1.265  0.00  0.00    -0.492 OA
BRANCH  12  13
ATOM     13  C   UNL     1       0.718  -0.497  -1.257  0.00  0.00    +0.229 C 
BRANCH  13  15
ATOM     14  C   UNL     1      -0.019   1.526   0.010  0.00  0.00    +0.007 C 
ATOM     15  C   UNL     1       0.002  -0.004   0.002  0.00  0.00    +0.038 C 
ENDBRANCH  13  15
ENDBRANCH  12  13
ENDBRANCH   6  12
ENDBRANCH   1   9
BRANCH   3  16
ATOM     16  S   UNL     1       4.380  -7.502  -7.652  0.00  0.00    +0.047 S 
ATOM     17  O   UNL     1       5.499  -7.305  -8.504  0.00  0.00    -0.163 OA
ATOM     18  O   UNL     1       4.398  -8.425  -6.571  0.00  0.00    -0.163 OA
BRANCH  16  19
ATOM     19  C   UNL     1       3.033  -7.968  -8.688  0.00  0.00    +0.099 A 
ATOM     20  C   UNL     1       1.973  -8.684  -8.162  0.00  0.00    +0.031 A 
ATOM     21  C   UNL     1       0.916  -9.053  -8.972  0.00  0.00    +0.051 A 
ATOM     22  C   UNL     1       0.915  -8.704 -10.315  0.00  0.00    +0.162 A 
ATOM     23  C   UNL     1       1.978  -7.982 -10.842  0.00  0.00    +0.164 A 
ATOM     24  C   UNL     1       3.035  -7.612 -10.023  0.00  0.00    +0.076 A 
ATOM     25  O   UNL     1       1.993  -7.622 -12.155  0.00  0.00    -0.485 OA
ATOM     26  C   UNL     1       1.098  -8.324 -13.025  0.00  0.00    +0.270 C 
ATOM     27  C   UNL     1      -0.278  -8.388 -12.347  0.00  0.00    +0.270 C 
ATOM     28  O   UNL     1      -0.132  -9.076 -11.101  0.00  0.00    -0.485 OA
ENDBRANCH  16  19
ENDBRANCH   3  16
BRANCH   4  29
ATOM     29  N   UNL     1       4.971  -4.499  -8.695  0.00  0.00    -0.306 N 
ATOM     30  H   UNL     1       5.276  -5.250  -9.229  0.00  0.00    +0.150 HD
BRANCH  29  31
ATOM     31  C   UNL     1       5.227  -3.129  -9.146  0.00  0.00    +0.100 C 
ATOM     32  C   UNL     1       6.507  -2.607  -8.490  0.00  0.00    +0.033 C 
BRANCH  31  33
ATOM     33  C   UNL     1       5.389  -3.115 -10.644  0.00  0.00    -0.027 A 
ATOM     34  C   UNL     1       6.080  -4.133 -11.274  0.00  0.00    +0.005 A 
ATOM     35  C   UNL     1       6.228  -4.121 -12.649  0.00  0.00    +0.000 A 
ATOM     36  C   UNL     1       5.685  -3.090 -13.393  0.00  0.00    +0.000 A 
ATOM     37  C   UNL     1       4.993  -2.072 -12.763  0.00  0.00    +0.000 A 
ATOM     38  C   UNL     1       4.841  -2.087 -11.389  0.00  0.00    +0.005 A 
ENDBRANCH  31  33
ENDBRANCH  29  31
ENDBRANCH   4  29
TORSDOF 9
