REMARK  Name = ZINC13796107
REMARK  7 active torsions:
REMARK  status: ('A' for Active; 'I' for Inactive)
REMARK    1  A    between atoms: C_1  and  C_2
REMARK    2  A    between atoms: C_2  and  C_3
REMARK    3  A    between atoms: C_2  and  C_4
REMARK    4  A    between atoms: C_2  and  O_5
REMARK    5  A    between atoms: O_5  and  C_6
REMARK    6  A    between atoms: C_6  and  C_8
REMARK    7  A    between atoms: N_26  and  C_29
REMARK                            x       y       z     vdW  Elec       q    Type
REMARK                         _______ _______ _______ _____ _____    ______ ____
ROOT
ATOM      1  C   UNL     1      -8.260   5.161  -3.660  0.00  0.00    +0.170 A 
ATOM      2  C   UNL     1      -7.100   4.517  -3.400  0.00  0.00    +0.075 A 
ATOM      3  N   UNL     1      -7.405   3.190  -3.241  0.00  0.00    -0.299 N 
ATOM      4  C   UNL     1      -8.733   3.051  -3.432  0.00  0.00    +0.205 A 
ATOM      5  N   UNL     1      -9.250   4.225  -3.677  0.00  0.00    -0.228 NA
ATOM      6  C   UNL     1      -6.419   2.249  -2.917  0.00  0.00    +0.069 A 
ATOM      7  C   UNL     1      -6.660   0.890  -2.976  0.00  0.00    +0.029 A 
ATOM      8  C   UNL     1      -5.637  -0.003  -2.681  0.00  0.00    +0.022 A 
ATOM      9  C   UNL     1      -4.386   0.467  -2.317  0.00  0.00    +0.043 A 
ATOM     10  C   UNL     1      -4.145   1.827  -2.243  0.00  0.00    +0.045 A 
ATOM     11  C   UNL     1      -5.158   2.726  -2.535  0.00  0.00    +0.063 A 
ATOM     12  N   UNL     1      -4.931   4.107  -2.441  0.00  0.00    -0.248 N 
ATOM     13  C   UNL     1      -5.692   5.042  -3.285  0.00  0.00    +0.171 C 
ATOM     14  C   UNL     1      -4.009   4.579  -1.578  0.00  0.00    +0.310 C 
ATOM     15  O   UNL     1      -3.486   3.828  -0.777  0.00  0.00    -0.252 OA
ATOM     16  N   UNL     1      -3.667   5.882  -1.604  0.00  0.00    -0.282 N 
ATOM     17  C   UNL     1      -3.105   6.539  -0.414  0.00  0.00    +0.128 C 
ATOM     18  C   UNL     1      -3.901   7.820  -0.145  0.00  0.00    +0.125 C 
ATOM     19  N   UNL     1      -3.919   8.646  -1.359  0.00  0.00    -0.314 N 
ATOM     20  C   UNL     1      -4.610   7.960  -2.460  0.00  0.00    +0.125 C 
ATOM     21  C   UNL     1      -3.843   6.685  -2.824  0.00  0.00    +0.128 C 
ATOM     22 CL   UNL     1      -3.115  -0.657  -1.953  0.00  0.00    -0.083 Cl
ENDROOT
BRANCH  19  23
ATOM     23  C   UNL     1      -4.491   9.888  -1.109  0.00  0.00    +0.099 A 
ATOM     24  C   UNL     1      -4.600  10.817  -2.139  0.00  0.00    +0.042 A 
ATOM     25  C   UNL     1      -5.176  12.047  -1.877  0.00  0.00    +0.005 A 
ATOM     26  C   UNL     1      -5.626  12.307  -0.590  0.00  0.00    +0.018 A 
ATOM     27  C   UNL     1      -5.487  11.339   0.384  0.00  0.00    +0.084 A 
ATOM     28  N   UNL     1      -4.925  10.120   0.163  0.00  0.00    -0.350 N 
ATOM     29  H   UNL     1      -4.834   9.419   0.907  0.00  0.00    +0.166 HD
ENDBRANCH  19  23
BRANCH   1  30
ATOM     30  C   UNL     1      -8.423   6.606  -3.884  0.00  0.00    +0.360 C 
ATOM     31  O   UNL     1      -7.455   7.340  -3.842  0.00  0.00    -0.243 OA
BRANCH  30  32
ATOM     32  O   UNL     1      -9.646   7.115  -4.134  0.00  0.00    -0.454 OA
BRANCH  32  34
ATOM     33  C   UNL     1      -8.869   8.941  -5.546  0.00  0.00    +0.055 C 
ATOM     34  C   UNL     1      -9.732   8.550  -4.345  0.00  0.00    +0.106 C 
ATOM     35  C   UNL     1     -11.187   8.939  -4.613  0.00  0.00    +0.055 C 
ATOM     36  C   UNL     1      -9.230   9.279  -3.097  0.00  0.00    +0.055 C 
ENDBRANCH  32  34
ENDBRANCH  30  32
ENDBRANCH   1  30
TORSDOF 4
