REMARK  Name = ZINC36597692
REMARK  16 active torsions:
REMARK  status: ('A' for Active; 'I' for Inactive)
REMARK    1  A    between atoms: C_1  and  C_2
REMARK    2  A    between atoms: C_2  and  C_3
REMARK    3  A    between atoms: C_3  and  C_4
REMARK    4  A    between atoms: C_4  and  N_5
REMARK    5  A    between atoms: C_6  and  C_8
REMARK    6  A    between atoms: C_8  and  C_10
REMARK    7  A    between atoms: C_8  and  N_19
REMARK    8  A    between atoms: C_11  and  O_18
REMARK    9  A    between atoms: C_13  and  O_17
REMARK   10  A    between atoms: C_15  and  O_16
REMARK   11  A    between atoms: N_19  and  C_20
REMARK   12  A    between atoms: C_20  and  C_21
REMARK   13  A    between atoms: C_24  and  C_26
REMARK   14  A    between atoms: C_27  and  C_29
REMARK   15  A    between atoms: C_33  and  O_36
REMARK   16  A    between atoms: C_34  and  O_35
REMARK                            x       y       z     vdW  Elec       q    Type
REMARK                         _______ _______ _______ _____ _____    ______ ____
ROOT
ATOM      1  C   UNL     1       1.976  -5.833  -5.476  0.00  0.00    +0.200 C 
ENDROOT
BRANCH   1   2
ATOM      2  C   UNL     1       2.957  -6.169  -6.571  0.00  0.00    +0.065 A 
ATOM      3  C   UNL     1       2.803  -7.334  -7.306  0.00  0.00    +0.129 A 
ATOM      4  C   UNL     1       3.705  -7.643  -8.313  0.00  0.00    +0.091 A 
ATOM      5  C   UNL     1       4.761  -6.786  -8.585  0.00  0.00    +0.124 A 
ATOM      6  C   UNL     1       4.914  -5.620  -7.850  0.00  0.00    +0.091 A 
ATOM      7  C   UNL     1       4.009  -5.309  -6.846  0.00  0.00    +0.129 A 
BRANCH   7   8
ATOM      8  O   UNL     1       4.157  -4.164  -6.129  0.00  0.00    -0.506 OA
ATOM      9  H   UNL     1       4.704  -4.263  -5.337  0.00  0.00    +0.292 HD
ENDBRANCH   7   8
BRANCH   5  10
ATOM     10  O   UNL     1       5.646  -7.089  -9.571  0.00  0.00    -0.507 OA
ATOM     11  H   UNL     1       5.400  -6.743 -10.440  0.00  0.00    +0.292 HD
ENDBRANCH   5  10
BRANCH   3  12
ATOM     12  O   UNL     1       1.768  -8.174  -7.040  0.00  0.00    -0.506 OA
ATOM     13  H   UNL     1       0.945  -7.939  -7.490  0.00  0.00    +0.292 HD
ENDBRANCH   3  12
ENDBRANCH   1   2
BRANCH   1  15
ATOM     14  N   UNL     1       1.516  -3.406  -5.604  0.00  0.00    -0.313 N 
ATOM     15  C   UNL     1       2.196  -4.413  -5.022  0.00  0.00    +0.238 C 
ATOM     16  O   UNL     1       2.987  -4.177  -4.133  0.00  0.00    -0.273 OA
ATOM     17  H   UNL     1       0.884  -3.595  -6.316  0.00  0.00    +0.149 HD
BRANCH  14  18
ATOM     18  C   UNL     1       1.730  -2.026  -5.163  0.00  0.00    +0.104 C 
BRANCH  18  19
ATOM     19  C   UNL     1       0.842  -1.085  -5.979  0.00  0.00    +0.018 C 
BRANCH  19  21
ATOM     20  C   UNL     1       0.177   1.297  -6.335  0.00  0.00    +0.004 C 
ATOM     21  C   UNL     1       1.066   0.356  -5.518  0.00  0.00    -0.002 C 
ENDBRANCH  19  21
ENDBRANCH  18  19
ENDBRANCH  14  18
ENDBRANCH   1  15
BRANCH   1  22
ATOM     22  N   UNL     1       2.175  -6.744  -4.346  0.00  0.00    -0.274 N 
ATOM     23  C   UNL     1       1.210  -6.884  -3.416  0.00  0.00    +0.252 C 
ATOM     24  O   UNL     1       1.493  -7.280  -2.302  0.00  0.00    -0.270 OA
BRANCH  23  25
ATOM     25  C   UNL     1      -0.189  -6.556  -3.749  0.00  0.00    +0.082 A 
ATOM     26  C   UNL     1      -0.486  -5.398  -4.473  0.00  0.00    +0.017 A 
ATOM     27  C   UNL     1      -1.794  -5.095  -4.783  0.00  0.00    +0.005 A 
ATOM     28  C   UNL     1      -2.821  -5.934  -4.380  0.00  0.00    +0.049 A 
ATOM     29  C   UNL     1      -2.543  -7.084  -3.662  0.00  0.00    +0.159 A 
ATOM     30  C   UNL     1      -1.226  -7.406  -3.346  0.00  0.00    +0.171 A 
BRANCH  30  31
ATOM     31  O   UNL     1      -0.949  -8.536  -2.647  0.00  0.00    -0.503 OA
ATOM     32  H   UNL     1      -0.943  -8.414  -1.688  0.00  0.00    +0.292 HD
ENDBRANCH  30  31
BRANCH  29  33
ATOM     33  O   UNL     1      -3.556  -7.902  -3.269  0.00  0.00    -0.503 OA
ATOM     34  H   UNL     1      -3.775  -8.592  -3.910  0.00  0.00    +0.292 HD
ENDBRANCH  29  33
ENDBRANCH  23  25
BRANCH  22  35
ATOM     35  C   UNL     1       3.422  -7.503  -4.228  0.00  0.00    +0.183 C 
BRANCH  35  36
ATOM     36  C   UNL     1       4.105  -7.148  -2.932  0.00  0.00    +0.122 A 
ATOM     37  C   UNL     1       3.823  -7.672  -1.725  0.00  0.00    +0.046 A 
ATOM     38  C   UNL     1       4.697  -7.059  -0.798  0.00  0.00    +0.045 A 
ATOM     39  C   UNL     1       5.461  -6.198  -1.494  0.00  0.00    +0.102 A 
ATOM     40  O   UNL     1       5.102  -6.260  -2.786  0.00  0.00    -0.463 OA
ATOM     41  C   UNL     1       6.540  -5.316  -0.920  0.00  0.00    +0.086 C 
ENDBRANCH  35  36
ENDBRANCH  22  35
ENDBRANCH   1  22
TORSDOF 14
