REMARK  Name = ZINC45437276
REMARK  8 active torsions:
REMARK  status: ('A' for Active; 'I' for Inactive)
REMARK    1  A    between atoms: C_1  and  C_2
REMARK    2  A    between atoms: C_2  and  C_3
REMARK    3  A    between atoms: C_3  and  N_4
REMARK    4  A    between atoms: N_4  and  C_5
REMARK    5  A    between atoms: C_5  and  C_6
REMARK    6  A    between atoms: C_5  and  C_13
REMARK    7  A    between atoms: C_5  and  C_19
REMARK    8  A    between atoms: C_6  and  N_7
REMARK                            x       y       z     vdW  Elec       q    Type
REMARK                         _______ _______ _______ _____ _____    ______ ____
ROOT
ATOM      1  C   UNL     1       1.318  -2.441  -2.528  0.00  0.00    +0.055 C 
ENDROOT
BRANCH   1   2
ATOM      2  C   UNL     1       2.764  -2.022  -2.606  0.00  0.00    -0.048 A 
ATOM      3  C   UNL     1       3.362  -1.398  -1.527  0.00  0.00    +0.003 A 
ATOM      4  C   UNL     1       4.688  -1.014  -1.599  0.00  0.00    +0.000 A 
ATOM      5  C   UNL     1       5.416  -1.255  -2.749  0.00  0.00    +0.000 A 
ATOM      6  C   UNL     1       4.818  -1.879  -3.828  0.00  0.00    +0.000 A 
ATOM      7  C   UNL     1       3.493  -2.268  -3.755  0.00  0.00    +0.003 A 
ENDBRANCH   1   2
BRANCH   1   8
ATOM      8  C   UNL     1       0.599  -1.999  -3.776  0.00  0.00    +0.206 C 
ATOM      9  O   UNL     1       1.219  -1.827  -4.805  0.00  0.00    -0.277 OA
ATOM     10  N   UNL     1      -0.733  -1.794  -3.750  0.00  0.00    -0.330 N 
ATOM     11  H   UNL     1      -1.229  -1.931  -2.928  0.00  0.00    +0.145 HD
ATOM     12  H   UNL     1      -1.196  -1.509  -4.554  0.00  0.00    +0.145 HD
ENDBRANCH   1   8
BRANCH   1  13
ATOM     13  N   UNL     1       0.691  -1.819  -1.355  0.00  0.00    +0.392 N 
ATOM     14  H   UNL     1       1.227  -2.039  -0.530  0.00  0.00    -0.084 HD
ATOM     15  H   UNL     1      -0.249  -2.171  -1.249  0.00  0.00    -0.084 HD
BRANCH  13  16
ATOM     16  C   UNL     1       0.649  -0.362  -1.537  0.00  0.00    -0.081 C 
BRANCH  16  18
ATOM     17  C   UNL     1       0.082   1.815  -0.450  0.00  0.00    +0.002 C 
ATOM     18  C   UNL     1       0.124   0.297  -0.260  0.00  0.00    -0.022 C 
ENDBRANCH  16  18
ENDBRANCH  13  16
ENDBRANCH   1  13
BRANCH   1  19
ATOM     19  C   UNL     1       1.234  -3.964  -2.404  0.00  0.00    +0.145 C 
BRANCH  19  20
ATOM     20  N   UNL     1       1.860  -4.585  -3.574  0.00  0.00    -0.271 N 
ATOM     21  C   UNL     1       2.851  -5.501  -3.552  0.00  0.00    +0.123 A 
ATOM     22  C   UNL     1       3.146  -5.821  -4.834  0.00  0.00    +0.055 A 
ATOM     23  C   UNL     1       2.306  -5.074  -5.667  0.00  0.00    +0.149 A 
ATOM     24  N   UNL     1       1.531  -4.337  -4.913  0.00  0.00    -0.179 NA
ATOM     25 BR   UNL     1       4.461  -7.057  -5.399  0.00  0.00    -0.047 Br
ENDBRANCH  19  20
ENDBRANCH   1  19
TORSDOF 7
