REMARK  Name = ZINC04724922
REMARK  7 active torsions:
REMARK  status: ('A' for Active; 'I' for Inactive)
REMARK    1  A    between atoms: C_1  and  O_2
REMARK    2  A    between atoms: O_2  and  C_3
REMARK    3  A    between atoms: C_6  and  C_11
REMARK    4  A    between atoms: C_7  and  O_9
REMARK    5  A    between atoms: O_9  and  C_10
REMARK    6  A    between atoms: C_15  and  O_22
REMARK    7  A    between atoms: C_16  and  O_21
REMARK                            x       y       z     vdW  Elec       q    Type
REMARK                         _______ _______ _______ _____ _____    ______ ____
ROOT
ATOM      1  C   UNL     1       0.009  -2.781  -2.545  0.00  0.00    -0.006 C 
ATOM      2  C   UNL     1       0.018  -2.080  -1.212  0.00  0.00    -0.050 A 
ATOM      3  C   UNL     1      -0.006  -0.692  -1.198  0.00  0.00    +0.051 A 
ATOM      4  C   UNL     1       0.002  -0.004   0.002  0.00  0.00    +0.158 A 
ATOM      5  C   UNL     1       0.023  -0.710   1.202  0.00  0.00    +0.158 A 
ATOM      6  C   UNL     1       0.043  -2.092   1.183  0.00  0.00    +0.053 A 
ATOM      7  C   UNL     1       0.042  -2.778  -0.023  0.00  0.00    -0.044 A 
ATOM      8  C   UNL     1       0.075  -4.285   0.008  0.00  0.00    +0.016 C 
ATOM      9  C   UNL     1      -0.343  -4.845  -1.351  0.00  0.00    -0.077 C 
ATOM     10  N   UNL     1       0.449  -4.175  -2.399  0.00  0.00    +0.387 N 
ATOM     11  H   UNL     1       1.442  -4.193  -2.138  0.00  0.00    -0.085 HD
ATOM     12  H   UNL     1       0.321  -4.668  -3.291  0.00  0.00    -0.085 HD
ENDROOT
BRANCH   1  16
ATOM     13  C   UNL     1       2.653  -0.752  -5.226  0.00  0.00    +0.124 A 
ATOM     14  C   UNL     1       3.066  -1.910  -4.582  0.00  0.00    +0.046 A 
ATOM     15  C   UNL     1       2.210  -2.563  -3.716  0.00  0.00    +0.009 A 
ATOM     16  C   UNL     1       0.940  -2.066  -3.490  0.00  0.00    -0.015 A 
ATOM     17  C   UNL     1       0.521  -0.912  -4.136  0.00  0.00    +0.125 A 
ATOM     18  C   UNL     1       1.380  -0.251  -5.000  0.00  0.00    +0.091 A 
BRANCH  13  20
ATOM     19  C   UNL     1       4.792  -0.683  -6.262  0.00  0.00    +0.277 C 
ATOM     20  O   UNL     1       3.495  -0.110  -6.077  0.00  0.00    -0.495 OA
ENDBRANCH  13  20
BRANCH  17  21
ATOM     21  O   UNL     1      -0.730  -0.426  -3.917  0.00  0.00    -0.495 OA
ATOM     22  C   UNL     1      -1.094   0.765  -4.616  0.00  0.00    +0.277 C 
ENDBRANCH  17  21
ENDBRANCH   1  16
BRANCH   5  23
ATOM     23  O   UNL     1       0.024  -0.042   2.387  0.00  0.00    -0.503 OA
ATOM     24  H   UNL     1      -0.860   0.138   2.737  0.00  0.00    +0.292 HD
ENDBRANCH   5  23
BRANCH   4  25
ATOM     25  O   UNL     1      -0.016   1.356   0.009  0.00  0.00    -0.503 OA
ATOM     26  H   UNL     1       0.862   1.761   0.003  0.00  0.00    +0.292 HD
ENDBRANCH   4  25
TORSDOF 5
