REMARK  Name = ZINC34828369
REMARK  10 active torsions:
REMARK  status: ('A' for Active; 'I' for Inactive)
REMARK    1  A    between atoms: C_1  and  C_2
REMARK    2  A    between atoms: C_2  and  C_4
REMARK    3  A    between atoms: C_2  and  N_21
REMARK    4  A    between atoms: N_14  and  C_15
REMARK    5  A    between atoms: N_21  and  C_22
REMARK    6  A    between atoms: C_22  and  C_23
REMARK    7  A    between atoms: C_23  and  N_24
REMARK    8  A    between atoms: N_24  and  C_25
REMARK    9  A    between atoms: N_24  and  C_26
REMARK   10  A    between atoms: C_27  and  C_29
REMARK                            x       y       z     vdW  Elec       q    Type
REMARK                         _______ _______ _______ _____ _____    ______ ____
ROOT
ATOM      1  C   UNL     1       0.155   0.754   0.975  0.00  0.00    +0.036 C 
ATOM      2  C   UNL     1      -1.232   0.302   0.514  0.00  0.00    +0.140 C 
ENDROOT
BRANCH   2   3
ATOM      3  C   UNL     1      -1.264  -1.201   0.416  0.00  0.00    +0.138 A 
ATOM      4  N   UNL     1      -1.885  -1.740  -0.589  0.00  0.00    -0.231 NA
ATOM      5  C   UNL     1      -1.956  -3.086  -0.744  0.00  0.00    +0.078 A 
ATOM      6  C   UNL     1      -2.623  -3.665  -1.825  0.00  0.00    +0.028 A 
ATOM      7  C   UNL     1      -2.669  -5.036  -1.942  0.00  0.00    +0.002 A 
ATOM      8  C   UNL     1      -2.060  -5.852  -0.998  0.00  0.00    +0.001 A 
ATOM      9  C   UNL     1      -1.396  -5.304   0.078  0.00  0.00    +0.015 A 
ATOM     10  C   UNL     1      -1.337  -3.918   0.215  0.00  0.00    +0.065 A 
ATOM     11  C   UNL     1      -0.642  -3.278   1.341  0.00  0.00    +0.266 A 
ATOM     12  O   UNL     1      -0.088  -3.938   2.201  0.00  0.00    -0.267 OA
ATOM     13  N   UNL     1      -0.637  -1.925   1.381  0.00  0.00    -0.263 N 
BRANCH  13  14
ATOM     14  C   UNL     1       0.016  -1.265   2.430  0.00  0.00    +0.051 A 
ATOM     15  C   UNL     1      -0.718  -0.536   3.357  0.00  0.00    +0.026 A 
ATOM     16  C   UNL     1      -0.072   0.114   4.390  0.00  0.00    +0.002 A 
ATOM     17  C   UNL     1       1.304   0.039   4.503  0.00  0.00    +0.000 A 
ATOM     18  C   UNL     1       2.038  -0.686   3.582  0.00  0.00    +0.002 A 
ATOM     19  C   UNL     1       1.397  -1.342   2.549  0.00  0.00    +0.026 A 
ENDBRANCH  13  14
ENDBRANCH   2   3
BRANCH   2  20
ATOM     20  N   UNL     1      -1.525   0.884  -0.798  0.00  0.00    -0.290 N 
ATOM     21  C   UNL     1      -2.761   1.349  -1.069  0.00  0.00    +0.247 C 
ATOM     22  O   UNL     1      -3.596   1.405  -0.187  0.00  0.00    -0.270 OA
BRANCH  21  23
ATOM     23  C   UNL     1      -3.101   1.789  -2.438  0.00  0.00    +0.038 A 
ATOM     24  C   UNL     1      -2.617   1.084  -3.542  0.00  0.00    +0.014 A 
ATOM     25  C   UNL     1      -2.937   1.499  -4.817  0.00  0.00    +0.022 A 
ATOM     26  C   UNL     1      -3.738   2.614  -5.005  0.00  0.00    +0.059 A 
ATOM     27  C   UNL     1      -4.222   3.318  -3.914  0.00  0.00    +0.060 A 
ATOM     28  C   UNL     1      -3.913   2.908  -2.632  0.00  0.00    +0.034 A 
ATOM     29 CL   UNL     1      -5.225   4.714  -4.159  0.00  0.00    -0.082 Cl
ATOM     30 CL   UNL     1      -4.136   3.131  -6.614  0.00  0.00    -0.082 Cl
ENDBRANCH  21  23
BRANCH  20  31
ATOM     31  C   UNL     1      -0.474   0.961  -1.816  0.00  0.00    +0.090 C 
BRANCH  31  32
ATOM     32  C   UNL     1      -0.367  -0.382  -2.541  0.00  0.00    -0.060 C 
BRANCH  32  33
ATOM     33  N   UNL     1      -0.054  -0.150  -3.957  0.00  0.00    +0.377 N 
ATOM     34  C   UNL     1       1.278   0.460  -4.071  0.00  0.00    -0.097 C 
ATOM     35  C   UNL     1      -0.069  -1.430  -4.678  0.00  0.00    -0.097 C 
ATOM     36  H   UNL     1      -0.743   0.470  -4.357  0.00  0.00    -0.083 HD
ENDBRANCH  32  33
ENDBRANCH  31  32
ENDBRANCH  20  31
ENDBRANCH   2  20
TORSDOF 7
