REMARK  Name = ZINC02918740
REMARK  8 active torsions:
REMARK  status: ('A' for Active; 'I' for Inactive)
REMARK    1  A    between atoms: C_1  and  O_2
REMARK    2  A    between atoms: O_2  and  C_3
REMARK    3  A    between atoms: C_6  and  C_13
REMARK    4  A    between atoms: C_7  and  O_11
REMARK    5  A    between atoms: C_8  and  O_9
REMARK    6  A    between atoms: O_9  and  C_10
REMARK    7  A    between atoms: O_11  and  C_12
REMARK    8  A    between atoms: C_16  and  C_24
REMARK                            x       y       z     vdW  Elec       q    Type
REMARK                         _______ _______ _______ _____ _____    ______ ____
ROOT
ATOM      1  C   UNL     1       2.595  -2.541   4.320  0.00  0.00    +0.146 C 
ATOM      2  C   UNL     1       4.062  -2.096   4.369  0.00  0.00    +0.059 C 
ATOM      3  C   UNL     1       4.699  -2.554   5.686  0.00  0.00    +0.106 C 
ATOM      4  N   UNL     1       3.992  -1.898   6.804  0.00  0.00    -0.307 N 
ATOM      5  C   UNL     1       2.607  -1.862   6.717  0.00  0.00    +0.215 A 
ATOM      6  N   UNL     1       1.943  -2.162   5.573  0.00  0.00    -0.226 N 
ATOM      7  N   UNL     1       0.583  -2.029   5.854  0.00  0.00    -0.156 NA
ATOM      8  C   UNL     1       0.489  -1.668   7.109  0.00  0.00    +0.247 A 
ATOM      9  N   UNL     1       1.722  -1.564   7.630  0.00  0.00    -0.202 NA
ATOM     10  H   UNL     1       4.469  -1.514   7.556  0.00  0.00    +0.149 HD
ENDROOT
BRANCH   3  11
ATOM     11  C   UNL     1       4.575  -4.051   5.814  0.00  0.00    -0.027 A 
ATOM     12  C   UNL     1       3.383  -4.613   6.230  0.00  0.00    +0.006 A 
ATOM     13  C   UNL     1       3.269  -5.985   6.347  0.00  0.00    +0.015 A 
ATOM     14  C   UNL     1       4.349  -6.796   6.048  0.00  0.00    +0.013 A 
ATOM     15  C   UNL     1       5.541  -6.234   5.631  0.00  0.00    +0.015 A 
ATOM     16  C   UNL     1       5.652  -4.861   5.509  0.00  0.00    +0.006 A 
ATOM     17  I   UNL     1       4.177  -8.877   6.226  0.00  0.00    -0.044 I 
ENDBRANCH   3  11
BRANCH   1  21
ATOM     18  C   UNL     1       0.626  -0.619   1.042  0.00  0.00    +0.165 A 
ATOM     19  C   UNL     1       1.202   0.138   2.051  0.00  0.00    +0.050 A 
ATOM     20  C   UNL     1       1.837  -0.486   3.109  0.00  0.00    +0.013 A 
ATOM     21  C   UNL     1       1.901  -1.866   3.165  0.00  0.00    +0.023 A 
ATOM     22  C   UNL     1       1.327  -2.630   2.160  0.00  0.00    +0.170 A 
ATOM     23  C   UNL     1       0.683  -2.006   1.098  0.00  0.00    +0.204 A 
BRANCH  18  25
ATOM     24  C   UNL     1      -0.017   1.425   0.010  0.00  0.00    +0.277 C 
ATOM     25  O   UNL     1       0.002  -0.004   0.002  0.00  0.00    -0.491 OA
ENDBRANCH  18  25
BRANCH  23  26
ATOM     26  O   UNL     1       0.114  -2.752   0.113  0.00  0.00    -0.488 OA
ATOM     27  C   UNL     1       0.939  -3.090  -1.004  0.00  0.00    +0.277 C 
ENDBRANCH  23  26
BRANCH  22  28
ATOM     28  O   UNL     1       1.391  -3.987   2.216  0.00  0.00    -0.491 OA
ATOM     29  C   UNL     1       0.325  -4.659   2.888  0.00  0.00    +0.277 C 
ENDBRANCH  22  28
ENDBRANCH   1  21
TORSDOF 5
