REMARK  Name = ZINC63573183
REMARK  6 active torsions:
REMARK  status: ('A' for Active; 'I' for Inactive)
REMARK    1  A    between atoms: C_1  and  O_2
REMARK    2  A    between atoms: O_2  and  C_3
REMARK    3  A    between atoms: C_10  and  C_30
REMARK    4  A    between atoms: N_20  and  C_21
REMARK    5  A    between atoms: C_26  and  O_27
REMARK    6  A    between atoms: O_27  and  C_28
REMARK                            x       y       z     vdW  Elec       q    Type
REMARK                         _______ _______ _______ _____ _____    ______ ____
ROOT
ATOM      1  C   UNL     1       0.787  -0.349  -1.132  0.00  0.00    +0.121 A 
ATOM      2  C   UNL     1       1.345   0.419  -2.168  0.00  0.00    +0.047 A 
ATOM      3  C   UNL     1       1.937  -0.138  -3.246  0.00  0.00    +0.029 A 
ATOM      4  C   UNL     1       2.014  -1.597  -3.365  0.00  0.00    +0.043 A 
ATOM      5  N   UNL     1       2.508  -2.375  -4.299  0.00  0.00    -0.375 N 
ATOM      6  C   UNL     1       2.379  -3.763  -3.862  0.00  0.00    +0.131 C 
ATOM      7  C   UNL     1       1.583  -4.606  -4.866  0.00  0.00    +0.134 C 
ATOM      8  N   UNL     1       1.160  -5.839  -4.183  0.00  0.00    -0.276 N 
ATOM      9  C   UNL     1       0.312  -5.777  -2.988  0.00  0.00    +0.114 C 
ATOM     10  C   UNL     1       1.020  -4.943  -1.904  0.00  0.00    +0.052 C 
ATOM     11  C   UNL     1       1.579  -3.708  -2.572  0.00  0.00    -0.035 C 
ATOM     12  C   UNL     1       1.419  -2.411  -2.275  0.00  0.00    +0.003 A 
ATOM     13  C   UNL     1       0.807  -1.703  -1.144  0.00  0.00    +0.055 A 
ATOM     14  C   UNL     1       1.554  -7.036  -4.661  0.00  0.00    +0.307 C 
ATOM     15  O   UNL     1       2.349  -7.092  -5.579  0.00  0.00    -0.252 OA
ATOM     16  N   UNL     1       1.066  -8.171  -4.122  0.00  0.00    -0.266 N 
ATOM     17  H   UNL     1       0.371  -8.127  -3.446  0.00  0.00    +0.156 HD
ATOM     18  H   UNL     1       2.894  -2.078  -5.138  0.00  0.00    +0.160 HD
ENDROOT
BRANCH  16  19
ATOM     19  C   UNL     1       1.563  -9.414  -4.536  0.00  0.00    +0.078 A 
ATOM     20  C   UNL     1       2.461  -9.487  -5.591  0.00  0.00    +0.047 A 
ATOM     21  C   UNL     1       2.951 -10.715  -5.998  0.00  0.00    +0.043 A 
ATOM     22  C   UNL     1       2.546 -11.871  -5.355  0.00  0.00    +0.024 A 
ATOM     23  C   UNL     1       1.651 -11.805  -4.304  0.00  0.00    +0.049 A 
ATOM     24  C   UNL     1       1.161 -10.578  -3.887  0.00  0.00    +0.141 A 
ATOM     25 CL   UNL     1       4.074 -10.805  -7.318  0.00  0.00    -0.083 Cl
BRANCH  24  26
ATOM     26  O   UNL     1       0.284 -10.512  -2.849  0.00  0.00    -0.493 OA
ATOM     27  C   UNL     1      -0.084 -11.746  -2.230  0.00  0.00    +0.277 C 
ENDBRANCH  24  26
ENDBRANCH  16  19
BRANCH   7  28
ATOM     28  C   UNL     1       2.454  -4.950  -6.047  0.00  0.00    -0.025 A 
ATOM     29  C   UNL     1       1.878  -5.210  -7.277  0.00  0.00    +0.008 A 
ATOM     30  C   UNL     1       2.675  -5.524  -8.361  0.00  0.00    +0.038 A 
ATOM     31  C   UNL     1       4.051  -5.579  -8.215  0.00  0.00    +0.123 A 
ATOM     32  C   UNL     1       4.627  -5.318  -6.983  0.00  0.00    +0.038 A 
ATOM     33  C   UNL     1       3.828  -4.999  -5.902  0.00  0.00    +0.008 A 
ATOM     34  F   UNL     1       4.831  -5.886  -9.274  0.00  0.00    -0.205 F 
ENDBRANCH   7  28
BRANCH   1  36
ATOM     35  C   UNL     1       0.212   1.718  -0.107  0.00  0.00    +0.277 C 
ATOM     36  O   UNL     1       0.211   0.289  -0.079  0.00  0.00    -0.495 OA
ENDBRANCH   1  36
TORSDOF 4
