REMARK  Name = ZINC35456926
REMARK  13 active torsions:
REMARK  status: ('A' for Active; 'I' for Inactive)
REMARK    1  A    between atoms: C_1  and  O_2
REMARK    2  A    between atoms: O_2  and  C_3
REMARK    3  A    between atoms: C_3  and  C_5
REMARK    4  A    between atoms: C_8  and  O_20
REMARK    5  A    between atoms: C_16  and  C_17
REMARK    6  A    between atoms: C_16  and  O_19
REMARK    7  A    between atoms: C_17  and  O_18
REMARK    8  A    between atoms: O_20  and  C_21
REMARK    9  A    between atoms: C_23  and  O_36
REMARK   10  A    between atoms: C_25  and  O_35
REMARK   11  A    between atoms: C_27  and  O_34
REMARK   12  A    between atoms: C_29  and  C_32
REMARK   13  A    between atoms: C_32  and  O_33
REMARK                            x       y       z     vdW  Elec       q    Type
REMARK                         _______ _______ _______ _____ _____    ______ ____
ROOT
ATOM      1  C   UNL     1      -1.194  -2.010  -0.018  0.00  0.00    +0.078 C 
ATOM      2  C   UNL     1      -2.370  -2.708  -0.035  0.00  0.00    +0.201 C 
ATOM      3  O   UNL     1      -2.401  -4.047  -0.083  0.00  0.00    -0.470 OA
ATOM      4  C   UNL     1      -1.370  -4.869   0.480  0.00  0.00    +0.316 C 
ATOM      5  C   UNL     1      -0.323  -3.964   1.088  0.00  0.00    +0.107 C 
ATOM      6  C   UNL     1       0.008  -2.905  -0.021  0.00  0.00    +0.064 C 
ATOM      7  C   UNL     1       1.326  -2.365   0.408  0.00  0.00    -0.019 C 
ATOM      8  C   UNL     1       1.960  -3.282   1.121  0.00  0.00    +0.006 C 
ATOM      9  C   UNL     1       1.079  -4.530   1.310  0.00  0.00    +0.116 C 
ENDROOT
BRANCH   1  10
ATOM     10  C   UNL     1      -1.119  -0.596  -0.003  0.00  0.00    +0.338 C 
ATOM     11  O   UNL     1      -2.140   0.067  -0.001  0.00  0.00    -0.245 OA
BRANCH  10  13
ATOM     12  C   UNL     1       0.083   1.445   0.022  0.00  0.00    +0.280 C 
ATOM     13  O   UNL     1       0.083   0.016   0.008  0.00  0.00    -0.465 OA
ENDBRANCH  10  13
ENDBRANCH   1  10
BRANCH   9  14
ATOM     14  O   UNL     1       1.205  -5.076   2.625  0.00  0.00    -0.382 OA
ATOM     15  H   UNL     1       2.077  -5.448   2.814  0.00  0.00    +0.211 HD
ENDBRANCH   9  14
BRANCH   9  16
ATOM     16  C   UNL     1       1.416  -5.580   0.249  0.00  0.00    +0.195 C 
BRANCH  16  17
ATOM     17  O   UNL     1       2.779  -5.985   0.396  0.00  0.00    -0.392 OA
ATOM     18  H   UNL     1       3.062  -6.651  -0.245  0.00  0.00    +0.210 HD
ENDBRANCH  16  17
ENDBRANCH   9  16
BRANCH   4  19
ATOM     19  O   UNL     1      -0.779  -5.671  -0.545  0.00  0.00    -0.309 OA
BRANCH  19  20
ATOM     20  C   UNL     1      -1.673  -6.623  -1.125  0.00  0.00    +0.286 C 
ATOM     21  C   UNL     1      -0.885  -7.583  -2.021  0.00  0.00    +0.201 C 
ATOM     22  C   UNL     1      -1.856  -8.563  -2.686  0.00  0.00    +0.179 C 
ATOM     23  C   UNL     1      -2.908  -7.770  -3.468  0.00  0.00    +0.177 C 
ATOM     24  C   UNL     1      -3.618  -6.803  -2.517  0.00  0.00    +0.178 C 
ATOM     25  O   UNL     1      -2.654  -5.941  -1.908  0.00  0.00    -0.340 OA
BRANCH  23  26
ATOM     26  O   UNL     1      -2.271  -7.032  -4.512  0.00  0.00    -0.386 OA
ATOM     27  H   UNL     1      -1.797  -7.583  -5.150  0.00  0.00    +0.210 HD
ENDBRANCH  23  26
BRANCH  22  28
ATOM     28  O   UNL     1      -1.138  -9.417  -3.578  0.00  0.00    -0.386 OA
ATOM     29  H   UNL     1      -0.451  -9.945  -3.150  0.00  0.00    +0.210 HD
ENDBRANCH  22  28
BRANCH  21  30
ATOM     30  O   UNL     1      -0.192  -6.839  -3.025  0.00  0.00    -0.384 OA
ATOM     31  H   UNL     1       0.438  -6.195  -2.674  0.00  0.00    +0.210 HD
ENDBRANCH  21  30
BRANCH  24  32
ATOM     32  C   UNL     1      -4.629  -5.965  -3.302  0.00  0.00    +0.190 C 
BRANCH  32  33
ATOM     33  O   UNL     1      -5.373  -5.146  -2.398  0.00  0.00    -0.392 OA
ATOM     34  H   UNL     1      -6.034  -4.586  -2.828  0.00  0.00    +0.210 HD
ENDBRANCH  32  33
ENDBRANCH  24  32
ENDBRANCH  19  20
ENDBRANCH   4  19
TORSDOF 12
