REMARK  Name = ZINC51927144
REMARK  5 active torsions:
REMARK  status: ('A' for Active; 'I' for Inactive)
REMARK    1  A    between atoms: C_1  and  C_2
REMARK    2  A    between atoms: C_3  and  C_18
REMARK    3  A    between atoms: C_7  and  C_8
REMARK    4  A    between atoms: C_14  and  C_17
REMARK    5  A    between atoms: C_15  and  C_16
REMARK                            x       y       z     vdW  Elec       q    Type
REMARK                         _______ _______ _______ _____ _____    ______ ____
ROOT
ATOM      1  C   UNL     1       0.142   1.498   0.095  0.00  0.00    +0.046 C 
ATOM      2  C   UNL     1       0.080  -0.007   0.042  0.00  0.00    -0.014 A 
ATOM      3  C   UNL     1      -0.096  -0.673  -1.160  0.00  0.00    +0.064 A 
ATOM      4  N   UNL     1      -0.147  -1.990  -1.185  0.00  0.00    -0.152 NA
ATOM      5  N   UNL     1      -0.040  -2.707  -0.126  0.00  0.00    -0.130 NA
ATOM      6  C   UNL     1       0.131  -2.172   1.074  0.00  0.00    +0.172 A 
ATOM      7  C   UNL     1       0.204  -0.776   1.205  0.00  0.00    +0.061 A 
ATOM      8  N   UNL     1       0.242  -2.990   2.198  0.00  0.00    -0.285 N 
ATOM      9  C   UNL     1      -0.436  -2.852   3.369  0.00  0.00    +0.205 A 
ATOM     10  N   UNL     1      -0.064  -3.805   4.178  0.00  0.00    -0.240 NA
ATOM     11  C   UNL     1       0.849  -4.576   3.569  0.00  0.00    +0.059 A 
ATOM     12  C   UNL     1       1.052  -4.090   2.330  0.00  0.00    +0.044 A 
ATOM     13  C   UNL     1       1.990  -4.644   1.290  0.00  0.00    +0.066 C 
ATOM     14  C   UNL     1       1.527  -5.782   4.166  0.00  0.00    +0.067 C 
ATOM     15  C   UNL     1      -0.229   0.109  -2.441  0.00  0.00    +0.068 C 
ENDROOT
BRANCH   7  16
ATOM     16  C   UNL     1       0.400  -0.140   2.527  0.00  0.00    +0.098 C 
ATOM     17  N   UNL     1       1.540  -0.320   3.190  0.00  0.00    -0.387 N 
ATOM     18  N   UNL     1      -0.564   0.614   3.053  0.00  0.00    -0.344 N 
ATOM     19  H   UNL     1       2.242  -0.869   2.807  0.00  0.00    +0.157 HD
ATOM     20  H   UNL     1      -1.395   0.745   2.569  0.00  0.00    +0.144 HD
ATOM     21  H   UNL     1      -0.436   1.030   3.919  0.00  0.00    +0.144 HD
ATOM     22  H   UNL     1       1.668   0.097   4.057  0.00  0.00    +0.157 HD
ENDBRANCH   7  16
TORSDOF 1
