REMARK  Name = ZINC08833230
REMARK  7 active torsions:
REMARK  status: ('A' for Active; 'I' for Inactive)
REMARK    1  A    between atoms: C_1  and  O_2
REMARK    2  A    between atoms: O_2  and  C_3
REMARK    3  A    between atoms: C_4  and  C_14
REMARK    4  A    between atoms: N_16  and  C_17
REMARK    5  A    between atoms: C_17  and  N_19
REMARK    6  A    between atoms: N_19  and  C_20
REMARK    7  A    between atoms: C_23  and  N_27
REMARK                            x       y       z     vdW  Elec       q    Type
REMARK                         _______ _______ _______ _____ _____    ______ ____
ROOT
ATOM      1  C   UNL     1      -1.168   7.362  -0.434  0.00  0.00    +0.253 C 
ATOM      2  O   UNL     1      -2.215   7.937  -0.660  0.00  0.00    -0.270 OA
ATOM      3  N   UNL     1      -0.048   8.072  -0.194  0.00  0.00    -0.263 N 
ATOM      4  H   UNL     1       0.787   7.614  -0.013  0.00  0.00    +0.157 HD
ENDROOT
BRANCH   1   6
ATOM      5  C   UNL     1      -2.300   5.149  -0.673  0.00  0.00    +0.147 A 
ATOM      6  C   UNL     1      -1.124   5.888  -0.421  0.00  0.00    +0.080 A 
ATOM      7  C   UNL     1       0.071   5.237  -0.163  0.00  0.00    +0.025 A 
ATOM      8  C   UNL     1       0.108   3.836  -0.152  0.00  0.00    -0.016 A 
ATOM      9  C   UNL     1       1.305   3.142   0.105  0.00  0.00    +0.008 A 
ATOM     10  C   UNL     1       1.308   1.782   0.107  0.00  0.00    +0.001 A 
ATOM     11  C   UNL     1       0.142   1.061  -0.143  0.00  0.00    +0.001 A 
ATOM     12  C   UNL     1      -1.034   1.697  -0.402  0.00  0.00    +0.010 A 
ATOM     13  C   UNL     1      -1.080   3.102  -0.407  0.00  0.00    -0.000 A 
ATOM     14  C   UNL     1      -2.280   3.785  -0.667  0.00  0.00    +0.068 A 
ATOM     15 BR   UNL     1      -3.867   2.815  -1.008  0.00  0.00    -0.046 Br
BRANCH   5  17
ATOM     16  C   UNL     1      -3.751   6.114  -2.290  0.00  0.00    +0.277 C 
ATOM     17  O   UNL     1      -3.463   5.803  -0.925  0.00  0.00    -0.493 OA
ENDBRANCH   5  17
ENDBRANCH   1   6
BRANCH   3  18
ATOM     18  C   UNL     1      -0.088   9.419  -0.205  0.00  0.00    +0.141 C 
ATOM     19  S   UNL     1      -1.563  10.229  -0.524  0.00  0.00    -0.018 S 
BRANCH  18  20
ATOM     20  N   UNL     1       1.032  10.129   0.035  0.00  0.00    -0.295 N 
ATOM     21  H   UNL     1       1.853   9.672   0.277  0.00  0.00    +0.154 HD
BRANCH  20  22
ATOM     22  C   UNL     1       1.011  11.525  -0.066  0.00  0.00    +0.051 A 
ATOM     23  C   UNL     1      -0.007  12.251   0.537  0.00  0.00    +0.027 A 
ATOM     24  C   UNL     1      -0.025  13.628   0.437  0.00  0.00    +0.034 A 
ATOM     25  C   UNL     1       0.970  14.285  -0.264  0.00  0.00    +0.128 A 
ATOM     26  C   UNL     1       1.986  13.566  -0.866  0.00  0.00    +0.054 A 
ATOM     27  C   UNL     1       2.013  12.188  -0.765  0.00  0.00    +0.064 A 
ATOM     28 CL   UNL     1       3.292  11.286  -1.516  0.00  0.00    -0.082 Cl
BRANCH  25  29
ATOM     29  N   UNL     1       0.948  15.761  -0.369  0.00  0.00    +0.056 N 
ATOM     30  O   UNL     1       0.054  16.396   0.162  0.00  0.00    -0.126 OA
ATOM     31  O   UNL     1       1.824  16.341  -0.985  0.00  0.00    -0.126 OA
ENDBRANCH  25  29
ENDBRANCH  20  22
ENDBRANCH  18  20
ENDBRANCH   3  18
TORSDOF 6
