REMARK  Name = ZINC64002478
REMARK  10 active torsions:
REMARK  status: ('A' for Active; 'I' for Inactive)
REMARK    1  A    between atoms: C_1  and  C_2
REMARK    2  A    between atoms: C_2  and  C_3
REMARK    3  A    between atoms: C_7  and  C_24
REMARK    4  A    between atoms: C_9  and  N_13
REMARK    5  A    between atoms: N_11  and  C_12
REMARK    6  A    between atoms: C_14  and  C_16
REMARK    7  A    between atoms: C_21  and  O_22
REMARK    8  A    between atoms: O_22  and  C_23
REMARK    9  A    between atoms: N_26  and  C_27
REMARK   10  A    between atoms: C_27  and  C_28
REMARK                            x       y       z     vdW  Elec       q    Type
REMARK                         _______ _______ _______ _____ _____    ______ ____
ROOT
ATOM      1  C   UNL     1      -1.398  -0.543   0.006  0.00  0.00    +0.110 A 
ATOM      2  N   UNL     1      -2.065  -0.814   1.089  0.00  0.00    -0.232 NA
ATOM      3  C   UNL     1      -3.302  -1.271   0.759  0.00  0.00    +0.092 A 
ATOM      4  C   UNL     1      -4.398  -1.697   1.510  0.00  0.00    +0.043 A 
ATOM      5  C   UNL     1      -5.555  -2.119   0.865  0.00  0.00    +0.041 A 
ATOM      6  C   UNL     1      -5.624  -2.119  -0.534  0.00  0.00    +0.038 A 
ATOM      7  C   UNL     1      -4.542  -1.699  -1.283  0.00  0.00    +0.060 A 
ATOM      8  C   UNL     1      -3.376  -1.273  -0.643  0.00  0.00    +0.090 A 
ATOM      9  N   UNL     1      -2.160  -0.802  -1.090  0.00  0.00    -0.329 N 
ATOM     10  C   UNL     1      -1.760  -0.619  -2.487  0.00  0.00    +0.150 C 
ENDROOT
BRANCH   7  11
ATOM     11  N   UNL     1      -4.615  -1.699  -2.681  0.00  0.00    -0.280 N 
ATOM     12  C   UNL     1      -5.812  -1.612  -3.293  0.00  0.00    +0.252 C 
ATOM     13  O   UNL     1      -6.820  -1.431  -2.637  0.00  0.00    -0.270 OA
ATOM     14  H   UNL     1      -3.804  -1.763  -3.208  0.00  0.00    +0.155 HD
BRANCH  12  15
ATOM     15  C   UNL     1      -5.901  -1.735  -4.761  0.00  0.00    +0.079 A 
ATOM     16  C   UNL     1      -4.746  -1.948  -5.519  0.00  0.00    +0.017 A 
ATOM     17  C   UNL     1      -4.836  -2.062  -6.889  0.00  0.00    +0.001 A 
ATOM     18  C   UNL     1      -6.066  -1.966  -7.520  0.00  0.00    +0.004 A 
ATOM     19  C   UNL     1      -7.214  -1.755  -6.783  0.00  0.00    +0.046 A 
ATOM     20  C   UNL     1      -7.143  -1.644  -5.402  0.00  0.00    +0.132 A 
BRANCH  20  21
ATOM     21  O   UNL     1      -8.272  -1.443  -4.676  0.00  0.00    -0.494 OA
ATOM     22  C   UNL     1      -9.502  -1.361  -5.399  0.00  0.00    +0.277 C 
ENDBRANCH  20  21
ENDBRANCH  12  15
ENDBRANCH   7  11
BRANCH   5  23
ATOM     23  C   UNL     1      -6.717  -2.570   1.658  0.00  0.00    +0.244 C 
ATOM     24  O   UNL     1      -7.730  -2.940   1.096  0.00  0.00    -0.270 OA
ATOM     25  N   UNL     1      -6.654  -2.572   3.004  0.00  0.00    -0.309 N 
ATOM     26  H   UNL     1      -5.846  -2.277   3.452  0.00  0.00    +0.149 HD
BRANCH  25  27
ATOM     27  C   UNL     1      -7.806  -3.019   3.791  0.00  0.00    +0.133 C 
BRANCH  27  28
ATOM     28  C   UNL     1      -7.474  -2.923   5.281  0.00  0.00    +0.120 C 
ATOM     29  C   UNL     1      -8.708  -3.206   6.109  0.00  0.00    +0.009 C 
ATOM     30  C   UNL     1      -8.940  -2.085   6.830  0.00  0.00    -0.004 A 
ATOM     31  C   UNL     1      -9.974  -1.730   7.809  0.00  0.00    +0.010 A 
ATOM     32  C   UNL     1      -9.946  -0.503   8.377  0.00  0.00    +0.001 A 
ATOM     33  C   UNL     1      -8.955   0.435   8.055  0.00  0.00    +0.002 A 
ATOM     34  C   UNL     1      -7.973   0.182   7.166  0.00  0.00    +0.026 A 
ATOM     35  C   UNL     1      -7.906  -1.077   6.508  0.00  0.00    +0.043 A 
ATOM     36  N   UNL     1      -7.065  -1.556   5.621  0.00  0.00    -0.376 N 
ATOM     37  H   UNL     1      -6.301  -1.085   5.252  0.00  0.00    +0.160 HD
ENDBRANCH  27  28
ENDBRANCH  25  27
ENDBRANCH   5  23
BRANCH   1  39
ATOM     38  C   UNL     1      -0.017   1.517  -0.007  0.00  0.00    +0.012 C 
ATOM     39  C   UNL     1       0.013  -0.013  -0.028  0.00  0.00    +0.071 C 
ENDBRANCH   1  39
TORSDOF 7
