REMARK  Name = ZINC09012698
REMARK  4 active torsions:
REMARK  status: ('A' for Active; 'I' for Inactive)
REMARK    1  A    between atoms: C_11  and  C_15
REMARK    2  A    between atoms: C_16  and  O_30
REMARK    3  A    between atoms: C_18  and  O_29
REMARK    4  A    between atoms: N_19  and  C_22
REMARK                            x       y       z     vdW  Elec       q    Type
REMARK                         _______ _______ _______ _____ _____    ______ ____
ROOT
ATOM      1  C   UNL     1       5.087  -2.694   0.889  0.00  0.00    +0.071 A 
ATOM      2  C   UNL     1       6.174  -3.441   0.469  0.00  0.00    +0.224 A 
ATOM      3  N   UNL     1       6.979  -4.008   1.374  0.00  0.00    -0.161 NA
ATOM      4  C   UNL     1       6.760  -3.871   2.663  0.00  0.00    +0.306 A 
ATOM      5  N   UNL     1       5.706  -3.146   3.128  0.00  0.00    -0.231 N 
ATOM      6  C   UNL     1       4.862  -2.547   2.263  0.00  0.00    +0.267 A 
ATOM      7  O   UNL     1       3.917  -1.891   2.671  0.00  0.00    -0.267 OA
ENDROOT
BRANCH   1  18
ATOM      8  C   UNL     1       3.779   4.012   0.329  0.00  0.00    +0.001 A 
ATOM      9  C   UNL     1       5.161   3.932   0.425  0.00  0.00    +0.002 A 
ATOM     10  C   UNL     1       5.798   2.711   0.377  0.00  0.00    +0.026 A 
ATOM     11  C   UNL     1       5.052   1.547   0.231  0.00  0.00    +0.047 A 
ATOM     12  C   UNL     1       3.649   1.633   0.133  0.00  0.00    +0.003 A 
ATOM     13  C   UNL     1       3.026   2.882   0.185  0.00  0.00    +0.010 A 
ATOM     14  C   UNL     1       3.177   0.262  -0.011  0.00  0.00    -0.022 A 
ATOM     15  C   UNL     1       4.260  -0.543   0.008  0.00  0.00    +0.011 A 
ATOM     16  N   UNL     1       5.387   0.212   0.152  0.00  0.00    -0.359 N 
ATOM     17  H   UNL     1       6.290  -0.139   0.192  0.00  0.00    +0.166 HD
ATOM     18  C   UNL     1       4.168  -2.046  -0.114  0.00  0.00    +0.018 C 
ATOM     19  C   UNL     1       1.827  -1.687  -0.666  0.00  0.00    -0.076 C 
ATOM     20  C   UNL     1       1.763  -0.239  -0.160  0.00  0.00    +0.018 C 
ATOM     21  N   UNL     1       2.774  -2.460   0.164  0.00  0.00    +0.388 N 
ATOM     22  H   UNL     1       2.565  -2.297   1.156  0.00  0.00    -0.084 HD
ATOM     23  H   UNL     1       2.670  -3.459  -0.048  0.00  0.00    -0.084 HD
ENDBRANCH   1  18
BRANCH   5  24
ATOM     24  C   UNL     1       5.501  -3.019   4.509  0.00  0.00    +0.054 A 
ATOM     25  C   UNL     1       4.710  -3.940   5.182  0.00  0.00    +0.028 A 
ATOM     26  C   UNL     1       4.513  -3.815   6.544  0.00  0.00    +0.022 A 
ATOM     27  C   UNL     1       5.095  -2.766   7.234  0.00  0.00    +0.041 A 
ATOM     28  C   UNL     1       5.878  -1.843   6.564  0.00  0.00    +0.022 A 
ATOM     29  C   UNL     1       6.082  -1.967   5.204  0.00  0.00    +0.028 A 
ATOM     30 CL   UNL     1       4.840  -2.608   8.944  0.00  0.00    -0.084 Cl
ENDBRANCH   5  24
BRANCH   4  31
ATOM     31  O   UNL     1       7.596  -4.459   3.542  0.00  0.00    -0.479 OA
ATOM     32  H   UNL     1       8.334  -4.966   3.174  0.00  0.00    +0.295 HD
ENDBRANCH   4  31
BRANCH   2  33
ATOM     33  O   UNL     1       6.421  -3.598  -0.852  0.00  0.00    -0.492 OA
ATOM     34  H   UNL     1       7.201  -4.136  -1.045  0.00  0.00    +0.294 HD
ENDBRANCH   2  33
TORSDOF 4
