REMARK  Name = ZINC04543614
REMARK  7 active torsions:
REMARK  status: ('A' for Active; 'I' for Inactive)
REMARK    1  A    between atoms: C_1  and  C_2
REMARK    2  A    between atoms: C_2  and  C_3
REMARK    3  A    between atoms: C_2  and  C_4
REMARK    4  A    between atoms: C_2  and  N_39
REMARK    5  A    between atoms: N_6  and  C_7
REMARK    6  A    between atoms: C_12  and  C_13
REMARK    7  A    between atoms: C_13  and  C_15
REMARK                            x       y       z     vdW  Elec       q    Type
REMARK                         _______ _______ _______ _____ _____    ______ ____
ROOT
ATOM      1  C   UNL     1      -0.054   1.140   0.173  0.00  0.00    +0.044 A 
ATOM      2  C   UNL     1       0.199  -0.193  -0.121  0.00  0.00    +0.025 A 
ATOM      3  C   UNL     1       1.499  -0.635  -0.264  0.00  0.00    +0.017 A 
ATOM      4  C   UNL     1       2.560   0.245  -0.115  0.00  0.00    +0.019 A 
ATOM      5  C   UNL     1       2.329   1.572   0.177  0.00  0.00    +0.028 A 
ATOM      6  C   UNL     1       1.018   2.034   0.325  0.00  0.00    +0.045 A 
ATOM      7 BR   UNL     1       4.335  -0.379  -0.314  0.00  0.00    -0.050 Br
ENDROOT
BRANCH   1  10
ATOM      8  C   UNL     1      -2.380   0.882  -0.222  0.00  0.00    +0.205 C 
ATOM      9  O   UNL     1      -2.146  -0.090  -0.908  0.00  0.00    -0.277 OA
ATOM     10  N   UNL     1      -1.365   1.590   0.312  0.00  0.00    -0.286 N 
ATOM     11  H   UNL     1      -1.547   2.412   0.794  0.00  0.00    +0.155 HD
BRANCH   8  13
ATOM     12  C   UNL     1      -4.213   2.370  -0.980  0.00  0.00    -0.001 C 
ATOM     13  C   UNL     1      -3.805   1.299   0.033  0.00  0.00    +0.002 C 
ATOM     14  C   UNL     1      -4.725   0.085  -0.111  0.00  0.00    -0.001 C 
BRANCH  13  17
ATOM     15  H   UNL     1      -4.868   2.129   1.589  0.00  0.00    -0.089 HD
ATOM     16  H   UNL     1      -3.596   1.176   2.078  0.00  0.00    -0.089 HD
ATOM     17  N   UNL     1      -3.905   1.862   1.391  0.00  0.00    +0.387 N 
ATOM     18  H   UNL     1      -3.307   2.694   1.456  0.00  0.00    -0.089 HD
ENDBRANCH  13  17
ENDBRANCH   8  13
ENDBRANCH   1  10
BRANCH   6  19
ATOM     19  C   UNL     1       0.762   3.452   0.637  0.00  0.00    +0.196 C 
ATOM     20  O   UNL     1       0.929   3.865   1.768  0.00  0.00    -0.287 OA
BRANCH  19  21
ATOM     21  C   UNL     1       0.303   4.371  -0.425  0.00  0.00    +0.041 A 
ATOM     22  C   UNL     1       0.001   3.879  -1.697  0.00  0.00    +0.013 A 
ATOM     23  C   UNL     1      -0.431   4.742  -2.682  0.00  0.00    +0.001 A 
ATOM     24  C   UNL     1      -0.556   6.095  -2.416  0.00  0.00    +0.001 A 
ATOM     25  C   UNL     1      -0.254   6.591  -1.161  0.00  0.00    +0.021 A 
ATOM     26  C   UNL     1       0.176   5.739  -0.163  0.00  0.00    +0.052 A 
ATOM     27 CL   UNL     1       0.555   6.363   1.412  0.00  0.00    -0.083 Cl
ENDBRANCH  19  21
ENDBRANCH   6  19
TORSDOF 5
