REMARK  Name = ZINC34747067
REMARK  8 active torsions:
REMARK  status: ('A' for Active; 'I' for Inactive)
REMARK    1  A    between atoms: C_1  and  C_2
REMARK    2  A    between atoms: C_2  and  C_3
REMARK    3  A    between atoms: C_3  and  N_4
REMARK    4  A    between atoms: N_17  and  C_20
REMARK    5  A    between atoms: C_20  and  C_21
REMARK    6  A    between atoms: N_23  and  C_24
REMARK    7  A    between atoms: C_32  and  C_34
REMARK    8  A    between atoms: C_32  and  C_35
REMARK                            x       y       z     vdW  Elec       q    Type
REMARK                         _______ _______ _______ _____ _____    ______ ____
ROOT
ATOM      1  N   UNL     1      -0.311  -2.885  -0.521  0.00  0.00    -0.280 N 
ATOM      2  C   UNL     1       0.724  -3.481   0.100  0.00  0.00    +0.264 A 
ATOM      3  O   UNL     1       0.725  -3.614   1.311  0.00  0.00    -0.267 OA
ATOM      4  C   UNL     1       1.825  -3.957  -0.682  0.00  0.00    +0.076 A 
ATOM      5  C   UNL     1       3.041  -4.626  -0.228  0.00  0.00    -0.018 A 
ATOM      6  C   UNL     1       3.938  -4.980  -1.173  0.00  0.00    +0.021 A 
ATOM      7  S   UNL     1       3.225  -4.452  -2.704  0.00  0.00    -0.071 S 
ATOM      8  C   UNL     1       1.721  -3.753  -2.070  0.00  0.00    +0.118 A 
ATOM      9  N   UNL     1       0.670  -3.156  -2.619  0.00  0.00    -0.208 NA
ATOM     10  C   UNL     1      -0.332  -2.733  -1.876  0.00  0.00    +0.202 A 
ATOM     11  N   UNL     1      -1.408  -2.125  -2.472  0.00  0.00    -0.304 N 
ATOM     12  C   UNL     1      -1.441  -0.667  -2.668  0.00  0.00    +0.089 C 
ATOM     13  C   UNL     1      -1.801  -0.381  -4.129  0.00  0.00    -0.059 C 
ATOM     14  N   UNL     1      -3.055  -1.067  -4.467  0.00  0.00    +0.387 N 
ATOM     15  C   UNL     1      -2.868  -2.521  -4.383  0.00  0.00    -0.059 C 
ATOM     16  C   UNL     1      -2.559  -2.913  -2.939  0.00  0.00    +0.089 C 
ATOM     17  C   UNL     1       5.247  -5.670  -0.939  0.00  0.00    +0.203 C 
ATOM     18  O   UNL     1       5.534  -5.605   0.467  0.00  0.00    -0.368 OA
ATOM     19  C   UNL     1       4.434  -5.996   1.292  0.00  0.00    +0.068 C 
ATOM     20  C   UNL     1       3.332  -4.934   1.239  0.00  0.00    +0.071 C 
ATOM     21  C   UNL     1       3.876  -7.331   0.794  0.00  0.00    +0.041 C 
ATOM     22  C   UNL     1       4.914  -6.157   2.735  0.00  0.00    +0.041 C 
ATOM     23  H   UNL     1      -3.776  -0.784  -3.821  0.00  0.00    -0.081 HD
ENDROOT
BRANCH   1  24
ATOM     24  C   UNL     1      -1.440  -2.396   0.275  0.00  0.00    +0.128 C 
BRANCH  24  26
ATOM     25  C   UNL     1      -3.599  -3.032   1.358  0.00  0.00    +0.005 C 
ATOM     26  C   UNL     1      -2.420  -3.543   0.528  0.00  0.00    +0.018 C 
ENDBRANCH  24  26
ENDBRANCH   1  24
BRANCH  14  27
ATOM     27  C   UNL     1      -3.456  -0.704  -5.833  0.00  0.00    +0.019 C 
BRANCH  27  28
ATOM     28  C   UNL     1      -4.803  -1.308  -6.138  0.00  0.00    +0.197 C 
ATOM     29  O   UNL     1      -5.372  -1.974  -5.299  0.00  0.00    -0.278 OA
ATOM     30  N   UNL     1      -5.375  -1.107  -7.341  0.00  0.00    -0.314 N 
ATOM     31  H   UNL     1      -4.919  -0.574  -8.012  0.00  0.00    +0.149 HD
BRANCH  30  32
ATOM     32  C   UNL     1      -6.684  -1.694  -7.637  0.00  0.00    +0.073 C 
ATOM     33  C   UNL     1      -6.500  -3.131  -8.128  0.00  0.00    +0.022 C 
ATOM     34  C   UNL     1      -7.867  -3.744  -8.438  0.00  0.00    +0.002 C 
ATOM     35  C   UNL     1      -8.562  -2.919  -9.523  0.00  0.00    +0.000 C 
ATOM     36  C   UNL     1      -8.746  -1.482  -9.032  0.00  0.00    +0.002 C 
ATOM     37  C   UNL     1      -7.379  -0.869  -8.723  0.00  0.00    +0.022 C 
ENDBRANCH  30  32
ENDBRANCH  27  28
ENDBRANCH  14  27
TORSDOF 5
