REMARK  Name = ZINC26363232
REMARK  9 active torsions:
REMARK  status: ('A' for Active; 'I' for Inactive)
REMARK    1  A    between atoms: C_1  and  C_2
REMARK    2  A    between atoms: C_2  and  C_4
REMARK    3  A    between atoms: C_2  and  N_11
REMARK    4  A    between atoms: N_11  and  C_12
REMARK    5  A    between atoms: C_12  and  C_14
REMARK    6  A    between atoms: C_12  and  C_15
REMARK    7  A    between atoms: N_20  and  C_21
REMARK    8  A    between atoms: C_21  and  C_22
REMARK    9  A    between atoms: C_22  and  C_23
REMARK                            x       y       z     vdW  Elec       q    Type
REMARK                         _______ _______ _______ _____ _____    ______ ____
ROOT
ATOM      1  C   UNL     1      -5.263   2.849   2.385  0.00  0.00    +0.206 C 
ATOM      2  O   UNL     1      -4.771   1.764   2.610  0.00  0.00    -0.277 OA
ATOM      3  N   UNL     1      -6.306   3.282   3.120  0.00  0.00    -0.242 N 
ATOM      4  C   UNL     1      -6.803   2.509   4.106  0.00  0.00    +0.306 C 
ATOM      5  O   UNL     1      -6.309   1.421   4.332  0.00  0.00    -0.252 OA
ATOM      6  N   UNL     1      -7.846   2.942   4.842  0.00  0.00    -0.299 N 
ATOM      7  H   UNL     1      -6.752   4.266   2.915  0.00  0.00    +0.159 HD
ATOM      8  H   UNL     1      -8.292   3.927   4.637  0.00  0.00    +0.150 HD
ENDROOT
BRANCH   1   9
ATOM      9  C   UNL     1      -4.708   3.713   1.282  0.00  0.00    +0.014 C 
ATOM     10  C   UNL     1      -5.802   3.985   0.247  0.00  0.00    -0.004 C 
BRANCH   9  11
ATOM     11  N   UNL     1      -3.584   3.021   0.636  0.00  0.00    +0.391 N 
ATOM     12  H   UNL     1      -3.509   3.368  -0.405  0.00  0.00    -0.084 HD
ATOM     13  H   UNL     1      -3.782   1.939   0.649  0.00  0.00    -0.084 HD
BRANCH  11  15
ATOM     14  C   UNL     1      -1.708   4.588   0.790  0.00  0.00    -0.009 C 
ATOM     15  C   UNL     1      -2.323   3.298   1.337  0.00  0.00    -0.042 C 
BRANCH  15  16
ATOM     16  C   UNL     1      -1.367   2.154   1.120  0.00  0.00    -0.043 A 
ATOM     17  C   UNL     1      -1.489   1.354  -0.001  0.00  0.00    +0.003 A 
ATOM     18  C   UNL     1      -0.614   0.301  -0.198  0.00  0.00    +0.000 A 
ATOM     19  C   UNL     1       0.389   0.055   0.721  0.00  0.00    +0.001 A 
ATOM     20  C   UNL     1       0.516   0.857   1.839  0.00  0.00    +0.020 A 
ATOM     21  C   UNL     1      -0.362   1.907   2.039  0.00  0.00    +0.043 A 
ATOM     22 CL   UNL     1      -0.204   2.916   3.443  0.00  0.00    -0.083 Cl
ENDBRANCH  15  16
ENDBRANCH  11  15
ENDBRANCH   9  11
ENDBRANCH   1   9
BRANCH   6  23
ATOM     23  C   UNL     1      -8.385   2.102   5.914  0.00  0.00    +0.111 C 
BRANCH  23  24
ATOM     24  C   UNL     1      -9.556   2.823   6.586  0.00  0.00    +0.061 C 
BRANCH  24  25
ATOM     25  C   UNL     1     -10.111   1.958   7.689  0.00  0.00    -0.009 A 
ATOM     26  C   UNL     1      -9.755   1.909   8.996  0.00  0.00    +0.011 A 
ATOM     27  C   UNL     1     -10.412   1.031   9.837  0.00  0.00    +0.008 A 
ATOM     28  C   UNL     1     -11.385   0.237   9.327  0.00  0.00    +0.045 A 
ATOM     29  S   UNL     1     -11.402   0.728   7.611  0.00  0.00    -0.102 S 
ENDBRANCH  24  25
ENDBRANCH  23  24
ENDBRANCH   6  23
TORSDOF 7
