REMARK  Name = ZINC15478328
REMARK  9 active torsions:
REMARK  status: ('A' for Active; 'I' for Inactive)
REMARK    1  A    between atoms: C_1  and  O_2
REMARK    2  A    between atoms: O_2  and  C_3
REMARK    3  A    between atoms: C_6  and  C_9
REMARK    4  A    between atoms: C_9  and  C_11
REMARK    5  A    between atoms: C_9  and  N_66
REMARK    6  A    between atoms: C_11  and  N_12
REMARK    7  A    between atoms: C_13  and  C_15
REMARK    8  A    between atoms: N_18  and  S_21
REMARK    9  A    between atoms: S_21  and  C_24
REMARK                            x       y       z     vdW  Elec       q    Type
REMARK                         _______ _______ _______ _____ _____    ______ ____
ROOT
ATOM      1  N   UNL     1       1.838   6.231   1.255  0.00  0.00    -0.316 N 
ATOM      2  C   UNL     1       0.520   6.005   1.426  0.00  0.00    +0.216 C 
ATOM      3  O   UNL     1      -0.125   5.483   0.541  0.00  0.00    -0.276 OA
ATOM      4  H   UNL     1       2.353   6.649   1.963  0.00  0.00    +0.149 HD
ENDROOT
BRANCH   2   5
ATOM      5  C   UNL     1      -0.152   6.400   2.715  0.00  0.00    +0.077 C 
ATOM      6  C   UNL     1      -1.637   6.035   2.649  0.00  0.00    +0.030 C 
ATOM      7  C   UNL     1      -2.324   6.469   3.948  0.00  0.00    +0.110 C 
ATOM      8  N   UNL     1      -1.606   5.875   5.084  0.00  0.00    -0.176 NA
ATOM      9  C   UNL     1      -0.157   6.089   5.194  0.00  0.00    +0.110 C 
ATOM     10  C   UNL     1       0.506   5.659   3.881  0.00  0.00    +0.030 C 
BRANCH   8  11
ATOM     11  S   UNL     1      -2.416   4.982   6.219  0.00  0.00    +0.067 S 
ATOM     12  O   UNL     1      -1.637   5.032   7.406  0.00  0.00    -0.152 OA
ATOM     13  O   UNL     1      -3.771   5.406   6.179  0.00  0.00    -0.152 OA
BRANCH  11  14
ATOM     14  C   UNL     1      -2.396   3.306   5.674  0.00  0.00    +0.143 A 
ATOM     15  C   UNL     1      -1.481   2.338   5.924  0.00  0.00    +0.036 A 
ATOM     16  C   UNL     1      -1.675   1.078   5.388  0.00  0.00    +0.010 A 
ATOM     17  C   UNL     1      -2.768   0.852   4.620  0.00  0.00    +0.047 A 
ATOM     18  S   UNL     1      -3.572   2.446   4.642  0.00  0.00    -0.077 S 
ENDBRANCH  11  14
ENDBRANCH   8  11
ENDBRANCH   2   5
BRANCH   1  19
ATOM     19  C   UNL     1       2.491   5.847   0.002  0.00  0.00    +0.093 C 
BRANCH  19  20
ATOM     20  C   UNL     1       3.940   6.338   0.010  0.00  0.00    -0.020 C 
BRANCH  20  26
ATOM     21  C   UNL     1       4.564   4.428  -1.340  0.00  0.00    -0.078 C 
ATOM     22  C   UNL     1       5.146   4.009  -2.692  0.00  0.00    -0.019 C 
ATOM     23  C   UNL     1       6.594   4.497  -2.791  0.00  0.00    -0.004 C 
ATOM     24  C   UNL     1       6.626   6.017  -2.609  0.00  0.00    -0.019 C 
ATOM     25  C   UNL     1       6.001   6.377  -1.259  0.00  0.00    -0.078 C 
ATOM     26  N   UNL     1       4.601   5.902  -1.237  0.00  0.00    +0.385 N 
ATOM     27  H   UNL     1       4.100   6.305  -2.038  0.00  0.00    -0.081 HD
ENDBRANCH  20  26
BRANCH  20  31
ATOM     28  C   UNL     1       3.998  10.607   0.189  0.00  0.00    +0.120 A 
ATOM     29  C   UNL     1       4.207   9.861   1.339  0.00  0.00    +0.046 A 
ATOM     30  C   UNL     1       4.187   8.481   1.279  0.00  0.00    +0.005 A 
ATOM     31  C   UNL     1       3.960   7.843   0.073  0.00  0.00    -0.059 A 
ATOM     32  C   UNL     1       3.758   8.585  -1.076  0.00  0.00    +0.005 A 
ATOM     33  C   UNL     1       3.770   9.965  -1.020  0.00  0.00    +0.046 A 
BRANCH  28  35
ATOM     34  C   UNL     1       3.795  12.668  -0.979  0.00  0.00    +0.277 C 
ATOM     35  O   UNL     1       4.017  11.965   0.245  0.00  0.00    -0.495 OA
ENDBRANCH  28  35
ENDBRANCH  20  31
ENDBRANCH  19  20
ENDBRANCH   1  19
TORSDOF 8
