REMARK  Name = ZINC65525190
REMARK  7 active torsions:
REMARK  status: ('A' for Active; 'I' for Inactive)
REMARK    1  A    between atoms: C_1  and  C_2
REMARK    2  A    between atoms: C_2  and  C_3
REMARK    3  A    between atoms: C_2  and  N_13
REMARK    4  A    between atoms: C_6  and  S_9
REMARK    5  A    between atoms: S_9  and  N_12
REMARK    6  A    between atoms: C_14  and  C_16
REMARK    7  A    between atoms: N_18  and  C_19
REMARK                            x       y       z     vdW  Elec       q    Type
REMARK                         _______ _______ _______ _____ _____    ______ ____
ROOT
ATOM      1  N   UNL     1       0.718  -0.466   1.195  0.00  0.00    -0.301 N 
ATOM      2  C   UNL     1       0.057  -0.616   2.360  0.00  0.00    +0.300 C 
ATOM      3  O   UNL     1      -1.123  -0.340   2.428  0.00  0.00    -0.265 OA
ATOM      4  H   UNL     1       1.661  -0.686   1.141  0.00  0.00    +0.150 HD
ENDROOT
BRANCH   2   5
ATOM      5  C   UNL     1       0.775  -1.122   3.567  0.00  0.00    +0.303 C 
ATOM      6  O   UNL     1       1.956  -1.398   3.500  0.00  0.00    -0.265 OA
ATOM      7  N   UNL     1       0.114  -1.272   4.732  0.00  0.00    -0.275 N 
ATOM      8  H   UNL     1      -0.811  -0.991   4.804  0.00  0.00    +0.155 HD
BRANCH   7   9
ATOM      9  C   UNL     1       0.762  -1.833   5.837  0.00  0.00    +0.072 A 
ATOM     10  C   UNL     1       2.114  -1.592   6.047  0.00  0.00    +0.026 A 
ATOM     11  C   UNL     1       2.752  -2.147   7.139  0.00  0.00    +0.005 A 
ATOM     12  C   UNL     1       2.049  -2.943   8.024  0.00  0.00    +0.041 A 
ATOM     13  C   UNL     1       0.701  -3.188   7.819  0.00  0.00    +0.160 A 
ATOM     14  C   UNL     1       0.054  -2.629   6.730  0.00  0.00    +0.179 A 
ATOM     15  F   UNL     1      -1.262  -2.862   6.532  0.00  0.00    -0.201 F 
ATOM     16  F   UNL     1       0.017  -3.967   8.685  0.00  0.00    -0.202 F 
ENDBRANCH   7   9
ENDBRANCH   2   5
BRANCH   1  18
ATOM     17  C   UNL     1      -0.003   1.560   0.030  0.00  0.00    +0.033 C 
ATOM     18  C   UNL     1       0.013   0.030   0.011  0.00  0.00    +0.101 C 
BRANCH  18  19
ATOM     19  C   UNL     1       0.718  -0.449  -1.231  0.00  0.00    -0.027 A 
ATOM     20  C   UNL     1       2.099  -0.474  -1.276  0.00  0.00    +0.007 A 
ATOM     21  C   UNL     1       2.746  -0.914  -2.415  0.00  0.00    +0.029 A 
ATOM     22  C   UNL     1       2.012  -1.329  -3.510  0.00  0.00    +0.105 A 
ATOM     23  C   UNL     1       0.631  -1.305  -3.466  0.00  0.00    +0.029 A 
ATOM     24  C   UNL     1      -0.016  -0.869  -2.325  0.00  0.00    +0.007 A 
BRANCH  22  25
ATOM     25  S   UNL     1       2.837  -1.889  -4.963  0.00  0.00    +0.056 S 
ATOM     26  O   UNL     1       1.929  -1.707  -6.041  0.00  0.00    -0.153 OA
ATOM     27  O   UNL     1       4.130  -1.300  -4.949  0.00  0.00    -0.153 OA
BRANCH  25  28
ATOM     28  N   UNL     1       3.059  -3.522  -4.802  0.00  0.00    -0.204 NA
ATOM     29  H   UNL     1       3.079  -4.089  -5.589  0.00  0.00    +0.144 HD
ATOM     30  H   UNL     1       3.169  -3.912  -3.921  0.00  0.00    +0.144 HD
ENDBRANCH  25  28
ENDBRANCH  22  25
ENDBRANCH  18  19
ENDBRANCH   1  18
TORSDOF 6
