REMARK  Name = ZINC39982617
REMARK  10 active torsions:
REMARK  status: ('A' for Active; 'I' for Inactive)
REMARK    1  A    between atoms: C_1  and  C_2
REMARK    2  A    between atoms: C_4  and  C_12
REMARK    3  A    between atoms: C_12  and  C_14
REMARK    4  A    between atoms: C_14  and  C_16
REMARK    5  A    between atoms: C_14  and  S_17
REMARK    6  A    between atoms: S_17  and  C_18
REMARK    7  A    between atoms: C_22  and  C_32
REMARK    8  A    between atoms: N_23  and  C_24
REMARK    9  A    between atoms: C_24  and  C_25
REMARK   10  A    between atoms: C_25  and  N_26
REMARK                            x       y       z     vdW  Elec       q    Type
REMARK                         _______ _______ _______ _____ _____    ______ ____
ROOT
ATOM      1  C   UNL     1       1.545  -1.124  -6.303  0.00  0.00    +0.237 C 
ATOM      2  N   UNL     1       2.182  -2.408  -5.966  0.00  0.00    -0.237 N 
ATOM      3  N   UNL     1       3.550  -2.144  -5.826  0.00  0.00    -0.169 NA
ATOM      4  C   UNL     1       3.815  -0.896  -6.030  0.00  0.00    +0.148 C 
ATOM      5  N   UNL     1       2.663  -0.166  -6.334  0.00  0.00    -0.284 N 
ATOM      6  H   UNL     1       1.742  -3.266  -5.862  0.00  0.00    +0.171 HD
ENDROOT
BRANCH   4   7
ATOM      7  C   UNL     1       5.170  -0.311  -5.954  0.00  0.00    +0.017 A 
ATOM      8  C   UNL     1       5.448   0.901  -6.588  0.00  0.00    +0.014 A 
ATOM      9  C   UNL     1       6.714   1.441  -6.514  0.00  0.00    +0.039 A 
ATOM     10  C   UNL     1       7.711   0.783  -5.811  0.00  0.00    +0.123 A 
ATOM     11  C   UNL     1       7.441  -0.421  -5.180  0.00  0.00    +0.039 A 
ATOM     12  C   UNL     1       6.177  -0.967  -5.243  0.00  0.00    +0.014 A 
ATOM     13  F   UNL     1       8.950   1.317  -5.741  0.00  0.00    -0.205 F 
ENDBRANCH   4   7
BRANCH   1  14
ATOM     14  S   UNL     1       0.342  -0.657  -5.029  0.00  0.00    -0.107 S 
BRANCH  14  15
ATOM     15  C   UNL     1       1.248  -0.868  -3.472  0.00  0.00    +0.117 C 
ATOM     16  C   UNL     1       2.255   0.272  -3.308  0.00  0.00    +0.027 C 
BRANCH  15  17
ATOM     17  C   UNL     1       0.277  -0.850  -2.319  0.00  0.00    +0.174 C 
ATOM     18  O   UNL     1      -0.792  -0.286  -2.435  0.00  0.00    -0.291 OA
BRANCH  17  21
ATOM     19  C   UNL     1      -0.712  -0.322   0.658  0.00  0.00    +0.035 C 
ATOM     20  C   UNL     1      -0.281  -1.681   0.102  0.00  0.00    +0.111 C 
ATOM     21  C   UNL     1       0.610  -1.489  -1.106  0.00  0.00    +0.027 C 
ATOM     22  C   UNL     1       1.819  -2.073  -0.772  0.00  0.00    +0.006 A 
ATOM     23  C   UNL     1       3.041  -2.221  -1.470  0.00  0.00    +0.010 A 
ATOM     24  C   UNL     1       4.085  -2.852  -0.887  0.00  0.00    +0.001 A 
ATOM     25  C   UNL     1       4.017  -3.381   0.411  0.00  0.00    +0.002 A 
ATOM     26  C   UNL     1       2.898  -3.293   1.162  0.00  0.00    +0.026 A 
ATOM     27  C   UNL     1       1.713  -2.621   0.602  0.00  0.00    +0.043 A 
ATOM     28  N   UNL     1       0.526  -2.399   1.093  0.00  0.00    -0.377 N 
ATOM     29  H   UNL     1       0.223  -2.666   1.976  0.00  0.00    +0.160 HD
ENDBRANCH  17  21
ENDBRANCH  15  17
ENDBRANCH  14  15
ENDBRANCH   1  14
BRANCH   5  30
ATOM     30  C   UNL     1       2.581   1.268  -6.625  0.00  0.00    +0.124 C 
BRANCH  30  31
ATOM     31  C   UNL     1       2.685   1.488  -8.136  0.00  0.00    +0.103 C 
BRANCH  31  32
ATOM     32  N   UNL     1       2.731   2.929  -8.419  0.00  0.00    -0.297 NA
ATOM     33  C   UNL     1       1.459   3.576  -8.064  0.00  0.00    +0.112 C 
ATOM     34  C   UNL     1       1.571   5.082  -8.318  0.00  0.00    +0.175 C 
ATOM     35  O   UNL     1       1.929   5.304  -9.684  0.00  0.00    -0.377 OA
ATOM     36  C   UNL     1       3.163   4.688 -10.064  0.00  0.00    +0.175 C 
ATOM     37  C   UNL     1       3.067   3.179  -9.828  0.00  0.00    +0.112 C 
ENDBRANCH  31  32
ENDBRANCH  30  31
ENDBRANCH   5  30
TORSDOF 8
