REMARK  Name = ZINC64640493
REMARK  8 active torsions:
REMARK  status: ('A' for Active; 'I' for Inactive)
REMARK    1  A    between atoms: C_6  and  C_11
REMARK    2  A    between atoms: C_11  and  N_12
REMARK    3  A    between atoms: C_15  and  N_18
REMARK    4  A    between atoms: C_20  and  C_23
REMARK    5  A    between atoms: N_25  and  C_26
REMARK    6  A    between atoms: C_26  and  C_27
REMARK    7  A    between atoms: C_27  and  C_28
REMARK    8  A    between atoms: C_28  and  O_29
REMARK                            x       y       z     vdW  Elec       q    Type
REMARK                         _______ _______ _______ _____ _____    ______ ____
ROOT
ATOM      1  N   UNL     1       5.118  -2.678   1.389  0.00  0.00    -0.300 NA
ATOM      2  C   UNL     1       5.515  -1.305   1.726  0.00  0.00    +0.086 C 
ATOM      3  C   UNL     1       7.042  -1.209   1.769  0.00  0.00    +0.039 C 
ATOM      4  C   UNL     1       7.580  -2.188   2.816  0.00  0.00    +0.094 C 
ATOM      5  C   UNL     1       7.112  -3.604   2.468  0.00  0.00    +0.039 C 
ATOM      6  C   UNL     1       5.583  -3.630   2.406  0.00  0.00    +0.086 C 
ENDROOT
BRANCH   4   7
ATOM      7  N   UNL     1       9.044  -2.144   2.820  0.00  0.00    -0.253 N 
ATOM      8  C   UNL     1       9.832  -1.809   3.895  0.00  0.00    +0.119 C 
ATOM      9  C   UNL     1      11.125  -1.882   3.515  0.00  0.00    +0.120 C 
ATOM     10  N   UNL     1      11.149  -2.275   2.159  0.00  0.00    -0.259 N 
ATOM     11  N   UNL     1       9.852  -2.434   1.759  0.00  0.00    -0.160 NA
ATOM     12  H   UNL     1      11.940  -2.410   1.613  0.00  0.00    +0.168 HD
ATOM     13  H   UNL     1       9.687  -3.371   1.424  0.00  0.00    +0.168 HD
BRANCH   9  14
ATOM     14  C   UNL     1      12.289  -1.604   4.355  0.00  0.00    +0.260 C 
ATOM     15  O   UNL     1      12.136  -1.272   5.517  0.00  0.00    -0.269 OA
ATOM     16  N   UNL     1      13.531  -1.717   3.844  0.00  0.00    -0.310 N 
ATOM     17  H   UNL     1      13.652  -1.982   2.919  0.00  0.00    +0.149 HD
BRANCH  16  18
ATOM     18  C   UNL     1      14.697  -1.439   4.686  0.00  0.00    +0.107 C 
BRANCH  18  19
ATOM     19  C   UNL     1      15.975  -1.639   3.869  0.00  0.00    +0.046 C 
BRANCH  19  20
ATOM     20  C   UNL     1      17.193  -1.348   4.748  0.00  0.00    +0.157 C 
BRANCH  20  21
ATOM     21  O   UNL     1      18.387  -1.535   3.985  0.00  0.00    -0.395 OA
ATOM     22  H   UNL     1      19.200  -1.368   4.481  0.00  0.00    +0.209 HD
ENDBRANCH  20  21
ENDBRANCH  19  20
ENDBRANCH  18  19
ENDBRANCH  16  18
ENDBRANCH   9  14
ENDBRANCH   4   7
BRANCH   1  23
ATOM     23  C   UNL     1       3.664  -2.775   1.204  0.00  0.00    +0.113 C 
BRANCH  23  29
ATOM     24  C   UNL     1       0.972  -4.054  -3.601  0.00  0.00    +0.001 A 
ATOM     25  C   UNL     1       2.287  -4.036  -4.085  0.00  0.00    +0.002 A 
ATOM     26  C   UNL     1       3.364  -4.023  -3.271  0.00  0.00    +0.026 A 
ATOM     27  C   UNL     1       3.197  -4.028  -1.859  0.00  0.00    +0.043 A 
ATOM     28  N   UNL     1       4.066  -4.019  -0.877  0.00  0.00    -0.377 N 
ATOM     29  C   UNL     1       3.336  -4.031   0.395  0.00  0.00    +0.117 C 
ATOM     30  C   UNL     1       1.868  -4.050   0.030  0.00  0.00    +0.008 C 
ATOM     31  C   UNL     1       1.818  -4.047  -1.322  0.00  0.00    -0.004 A 
ATOM     32  C   UNL     1       0.702  -4.060  -2.275  0.00  0.00    +0.010 A 
ATOM     33  H   UNL     1       5.031  -4.006  -0.976  0.00  0.00    +0.160 HD
ENDBRANCH  23  29
ENDBRANCH   1  23
TORSDOF 8
