REMARK  Name = ZINC19857979
REMARK  9 active torsions:
REMARK  status: ('A' for Active; 'I' for Inactive)
REMARK    1  A    between atoms: C_1  and  C_2
REMARK    2  A    between atoms: C_3  and  C_33
REMARK    3  A    between atoms: C_4  and  C_25
REMARK    4  A    between atoms: C_10  and  C_20
REMARK    5  A    between atoms: C_12  and  C_16
REMARK    6  A    between atoms: C_16  and  O_18
REMARK    7  A    between atoms: O_18  and  C_19
REMARK    8  A    between atoms: C_33  and  O_35
REMARK    9  A    between atoms: O_35  and  C_36
REMARK                            x       y       z     vdW  Elec       q    Type
REMARK                         _______ _______ _______ _____ _____    ______ ____
ROOT
ATOM      1  C   UNL     1       2.821  -1.291  -1.452  0.00  0.00    +0.061 C 
ATOM      2  C   UNL     1       2.486   0.041  -0.831  0.00  0.00    +0.016 C 
ATOM      3  C   UNL     1       3.456   0.952  -0.640  0.00  0.00    +0.065 C 
ATOM      4  C   UNL     1       3.161   2.284  -0.016  0.00  0.00    +0.094 C 
ATOM      5  C   UNL     1       1.685   2.589  -0.062  0.00  0.00    +0.025 C 
ATOM      6  C   UNL     1       0.785   1.608  -0.281  0.00  0.00    +0.016 C 
ATOM      7  N   UNL     1       1.197   0.315  -0.466  0.00  0.00    -0.321 N 
ATOM      8  C   UNL     1      -0.693   1.906  -0.335  0.00  0.00    +0.061 C 
ATOM      9  C   UNL     1      -1.010   3.090   0.584  0.00  0.00    +0.053 C 
ATOM     10  C   UNL     1      -0.182   4.295   0.126  0.00  0.00    +0.176 C 
ATOM     11  C   UNL     1       1.275   3.920   0.134  0.00  0.00    +0.176 C 
ATOM     12  O   UNL     1       2.112   4.782   0.314  0.00  0.00    -0.291 OA
ATOM     13  H   UNL     1       0.481  -0.506  -0.317  0.00  0.00    +0.152 HD
ENDROOT
BRANCH   4  14
ATOM     14  C   UNL     1       3.619   2.271   1.419  0.00  0.00    -0.015 A 
ATOM     15  C   UNL     1       3.083   1.356   2.307  0.00  0.00    +0.006 A 
ATOM     16  C   UNL     1       3.503   1.343   3.624  0.00  0.00    +0.002 A 
ATOM     17  C   UNL     1       4.458   2.244   4.055  0.00  0.00    +0.021 A 
ATOM     18  C   UNL     1       4.995   3.160   3.169  0.00  0.00    +0.060 A 
ATOM     19  C   UNL     1       4.579   3.170   1.848  0.00  0.00    +0.063 A 
ATOM     20 CL   UNL     1       5.257   4.314   0.732  0.00  0.00    -0.082 Cl
ATOM     21 CL   UNL     1       6.194   4.292   3.710  0.00  0.00    -0.082 Cl
ENDBRANCH   4  14
BRANCH   9  22
ATOM     22  C   UNL     1      -2.478   3.422   0.499  0.00  0.00    -0.006 A 
ATOM     23  C   UNL     1      -3.373   3.593   1.502  0.00  0.00    +0.011 A 
ATOM     24  C   UNL     1      -4.684   3.898   1.186  0.00  0.00    +0.008 A 
ATOM     25  C   UNL     1      -5.035   4.017  -0.118  0.00  0.00    +0.045 A 
ATOM     26  S   UNL     1      -3.486   3.700  -0.948  0.00  0.00    -0.101 S 
ENDBRANCH   9  22
BRANCH  10  27
ATOM     27  C   UNL     1      -0.593   4.690  -1.269  0.00  0.00    +0.318 C 
ATOM     28  O   UNL     1      -0.191   4.060  -2.219  0.00  0.00    -0.250 OA
BRANCH  27  29
ATOM     29  O   UNL     1      -1.405   5.743  -1.457  0.00  0.00    -0.467 OA
ATOM     30  C   UNL     1      -1.759   6.066  -2.828  0.00  0.00    +0.280 C 
ENDBRANCH  27  29
ENDBRANCH  10  27
BRANCH   3  31
ATOM     31  C   UNL     1       4.780   0.648  -1.035  0.00  0.00    +0.337 C 
ATOM     32  O   UNL     1       5.032  -0.429  -1.542  0.00  0.00    -0.245 OA
BRANCH  31  33
ATOM     33  O   UNL     1       5.764   1.553  -0.849  0.00  0.00    -0.465 OA
ATOM     34  C   UNL     1       7.077   1.179  -1.271  0.00  0.00    +0.280 C 
ENDBRANCH  31  33
ENDBRANCH   3  31
TORSDOF 6
