REMARK  Name = ZINC13688614
REMARK  3 active torsions:
REMARK  status: ('A' for Active; 'I' for Inactive)
REMARK    1  A    between atoms: C_13  and  C_15
REMARK    2  A    between atoms: N_24  and  S_25
REMARK    3  A    between atoms: S_25  and  C_28
REMARK                            x       y       z     vdW  Elec       q    Type
REMARK                         _______ _______ _______ _____ _____    ______ ____
ROOT
ATOM      1  C   UNL     1       6.227  -1.474  -5.138  0.00  0.00    +0.038 A 
ATOM      2  C   UNL     1       6.330  -0.724  -3.958  0.00  0.00    +0.015 A 
ATOM      3  C   UNL     1       5.444  -0.877  -2.943  0.00  0.00    +0.027 A 
ATOM      4  C   UNL     1       4.377  -1.804  -3.038  0.00  0.00    +0.055 A 
ATOM      5  C   UNL     1       4.294  -2.550  -4.239  0.00  0.00    +0.040 A 
ATOM      6  C   UNL     1       5.185  -2.399  -5.265  0.00  0.00    +0.030 A 
ATOM      7  S   UNL     1       2.867  -3.569  -3.955  0.00  0.00    -0.048 S 
ATOM      8  C   UNL     1       2.476  -2.957  -2.322  0.00  0.00    +0.192 A 
ATOM      9  N   UNL     1       3.424  -2.067  -2.122  0.00  0.00    -0.332 N 
ATOM     10  N   UNL     1       1.447  -3.327  -1.484  0.00  0.00    -0.103 NA
ATOM     11  H   UNL     1       3.420  -1.529  -1.162  0.00  0.00    +0.168 HD
ENDROOT
BRANCH   1  24
ATOM     12  C   UNL     1       3.927   1.374 -12.507  0.00  0.00    +0.005 A 
ATOM     13  C   UNL     1       4.876   2.286 -12.948  0.00  0.00    +0.018 A 
ATOM     14  C   UNL     1       6.137   2.276 -12.386  0.00  0.00    +0.084 A 
ATOM     15  N   UNL     1       6.446   1.416 -11.435  0.00  0.00    -0.350 N 
ATOM     16  C   UNL     1       5.571   0.527 -10.991  0.00  0.00    +0.099 A 
ATOM     17  C   UNL     1       4.282   0.481 -11.512  0.00  0.00    +0.042 A 
ATOM     18  N   UNL     1       5.942  -0.365  -9.991  0.00  0.00    -0.314 N 
ATOM     19  C   UNL     1       7.337  -0.148  -9.583  0.00  0.00    +0.125 C 
ATOM     20  C   UNL     1       7.761  -1.259  -8.617  0.00  0.00    +0.127 C 
ATOM     21  N   UNL     1       6.792  -1.313  -7.512  0.00  0.00    -0.295 N 
ATOM     22  C   UNL     1       5.361  -1.397  -7.845  0.00  0.00    +0.127 C 
ATOM     23  C   UNL     1       5.031  -0.275  -8.842  0.00  0.00    +0.125 C 
ATOM     24  C   UNL     1       7.203  -1.290  -6.229  0.00  0.00    +0.247 C 
ATOM     25  O   UNL     1       8.379  -1.119  -5.970  0.00  0.00    -0.270 OA
ATOM     26  H   UNL     1       7.453   1.426 -10.990  0.00  0.00    +0.166 HD
ENDBRANCH   1  24
BRANCH  10  27
ATOM     27  S   UNL     1       1.293  -2.615   0.003  0.00  0.00    +0.101 S 
ATOM     28  O   UNL     1       2.575  -2.666   0.613  0.00  0.00    -0.146 OA
ATOM     29  O   UNL     1       0.139  -3.181   0.608  0.00  0.00    -0.146 OA
BRANCH  27  30
ATOM     30  C   UNL     1       0.933  -0.911  -0.271  0.00  0.00    +0.113 A 
ATOM     31  C   UNL     1      -0.379  -0.492  -0.380  0.00  0.00    +0.032 A 
ATOM     32  C   UNL     1      -0.662   0.844  -0.595  0.00  0.00    +0.040 A 
ATOM     33  C   UNL     1       0.369   1.762  -0.700  0.00  0.00    +0.124 A 
ATOM     34  C   UNL     1       1.683   1.340  -0.591  0.00  0.00    +0.040 A 
ATOM     35  C   UNL     1       1.964   0.004  -0.376  0.00  0.00    +0.032 A 
ATOM     36  F   UNL     1       0.093   3.067  -0.911  0.00  0.00    -0.205 F 
ENDBRANCH  27  30
ENDBRANCH  10  27
TORSDOF 3
