REMARK  Name = ZINC41601551
REMARK  9 active torsions:
REMARK  status: ('A' for Active; 'I' for Inactive)
REMARK    1  A    between atoms: C_1  and  C_2
REMARK    2  A    between atoms: C_2  and  C_3
REMARK    3  A    between atoms: C_3  and  C_4
REMARK    4  A    between atoms: C_4  and  C_5
REMARK    5  A    between atoms: N_13  and  C_14
REMARK    6  A    between atoms: C_16  and  C_22
REMARK    7  A    between atoms: C_16  and  C_23
REMARK    8  A    between atoms: C_18  and  C_20
REMARK    9  A    between atoms: C_18  and  C_21
REMARK                            x       y       z     vdW  Elec       q    Type
REMARK                         _______ _______ _______ _____ _____    ______ ____
ROOT
ATOM      1  C   UNL     1       1.326  -2.937   2.167  0.00  0.00    +0.050 A 
ATOM      2  C   UNL     1       0.634  -3.252   3.300  0.00  0.00    +0.093 A 
ATOM      3  C   UNL     1       1.349  -3.621   4.453  0.00  0.00    +0.253 A 
ATOM      4  O   UNL     1       0.762  -3.909   5.483  0.00  0.00    -0.268 OA
ATOM      5  N   UNL     1       2.698  -3.650   4.398  0.00  0.00    -0.295 N 
ATOM      6  H   UNL     1       3.211  -3.902   5.181  0.00  0.00    +0.172 HD
ATOM      7  C   UNL     1       3.334  -3.326   3.240  0.00  0.00    +0.196 A 
ATOM      8  N   UNL     1       2.656  -2.986   2.162  0.00  0.00    -0.221 NA
ATOM      9  N   UNL     1       4.702  -3.358   3.192  0.00  0.00    -0.312 N 
ATOM     10  H   UNL     1       5.209  -3.611   3.979  0.00  0.00    +0.149 HD
ENDROOT
BRANCH   9  11
ATOM     11  C   UNL     1       5.401  -3.011   1.949  0.00  0.00    +0.070 C 
ATOM     12  C   UNL     1       5.521  -4.260   1.074  0.00  0.00    +0.009 C 
ATOM     13  C   UNL     1       6.259  -3.917  -0.220  0.00  0.00    -0.072 C 
ATOM     14  N   UNL     1       7.546  -3.287   0.033  0.00  0.00    +0.386 N 
ATOM     15  C   UNL     1       7.591  -2.211   1.010  0.00  0.00    -0.072 C 
ATOM     16  C   UNL     1       6.810  -2.522   2.283  0.00  0.00    +0.009 C 
ATOM     17  C   UNL     1       9.072  -2.016   1.417  0.00  0.00    -0.010 C 
ATOM     18  C   UNL     1       7.113  -0.885   0.415  0.00  0.00    -0.010 C 
ATOM     19  C   UNL     1       6.528  -5.247  -0.961  0.00  0.00    -0.010 C 
ATOM     20  C   UNL     1       5.370  -3.066  -1.126  0.00  0.00    -0.010 C 
ATOM     21  H   UNL     1       8.207  -4.013   0.322  0.00  0.00    -0.084 HD
ATOM     22  H   UNL     1       7.910  -2.932  -0.855  0.00  0.00    -0.084 HD
ENDBRANCH   9  11
BRANCH   1  23
ATOM     23  C   UNL     1       0.583  -2.539   0.917  0.00  0.00    +0.056 C 
BRANCH  23  24
ATOM     24  C   UNL     1       0.493  -1.013   0.842  0.00  0.00    +0.006 C 
BRANCH  24  26
ATOM     25  C   UNL     1      -0.350   0.916  -0.503  0.00  0.00    +0.004 C 
ATOM     26  C   UNL     1      -0.261  -0.609  -0.427  0.00  0.00    -0.003 C 
ENDBRANCH  24  26
ENDBRANCH  23  24
ENDBRANCH   1  23
TORSDOF 4
