REMARK  Name = ZINC03588079
REMARK  10 active torsions:
REMARK  status: ('A' for Active; 'I' for Inactive)
REMARK    1  A    between atoms: C_1  and  C_2
REMARK    2  A    between atoms: C_6  and  C_27
REMARK    3  A    between atoms: C_7  and  N_8
REMARK    4  A    between atoms: C_9  and  C_11
REMARK    5  A    between atoms: C_11  and  N_12
REMARK    6  A    between atoms: N_12  and  C_13
REMARK    7  A    between atoms: N_12  and  C_14
REMARK    8  A    between atoms: C_14  and  C_15
REMARK    9  A    between atoms: N_20  and  C_21
REMARK   10  A    between atoms: C_21  and  C_22
REMARK                            x       y       z     vdW  Elec       q    Type
REMARK                         _______ _______ _______ _____ _____    ______ ____
ROOT
ATOM      1  N   UNL     1      -0.618  -0.974   5.969  0.00  0.00    +0.389 N 
ATOM      2  C   UNL     1      -1.961  -1.554   5.836  0.00  0.00    -0.095 C 
ATOM      3  H   UNL     1       0.072  -1.708   5.913  0.00  0.00    -0.081 HD
ENDROOT
BRANCH   1   4
ATOM      4  C   UNL     1      -0.394  -0.007   4.886  0.00  0.00    +0.019 C 
BRANCH   4   6
ATOM      5  N   UNL     1      -0.198  -0.037   2.420  0.00  0.00    -0.287 N 
ATOM      6  C   UNL     1      -0.388  -0.727   3.562  0.00  0.00    +0.201 C 
ATOM      7  O   UNL     1      -0.555  -1.928   3.524  0.00  0.00    -0.278 OA
ATOM      8  H   UNL     1      -0.117   0.929   2.445  0.00  0.00    +0.155 HD
BRANCH   5  15
ATOM      9  C   UNL     1       1.718  -2.126   2.165  0.00  0.00    +0.045 C 
ATOM     10  C   UNL     1       0.803  -1.740   1.031  0.00  0.00    -0.029 A 
ATOM     11  C   UNL     1       0.876  -2.411  -0.174  0.00  0.00    +0.005 A 
ATOM     12  C   UNL     1       0.037  -2.058  -1.215  0.00  0.00    +0.001 A 
ATOM     13  C   UNL     1      -0.877  -1.033  -1.054  0.00  0.00    +0.005 A 
ATOM     14  C   UNL     1      -0.955  -0.359   0.149  0.00  0.00    -0.029 A 
ATOM     15  C   UNL     1      -0.118  -0.715   1.198  0.00  0.00    +0.039 A 
ATOM     16  C   UNL     1      -1.951   0.759   0.324  0.00  0.00    +0.045 C 
ENDBRANCH   5  15
ENDBRANCH   4   6
ENDBRANCH   1   4
BRANCH   1  17
ATOM     17  C   UNL     1      -0.505  -0.293   7.265  0.00  0.00    +0.019 C 
BRANCH  17  18
ATOM     18  C   UNL     1      -0.613  -1.305   8.376  0.00  0.00    +0.204 C 
ATOM     19  O   UNL     1      -0.769  -2.479   8.114  0.00  0.00    -0.277 OA
ATOM     20  N   UNL     1      -0.536  -0.906   9.661  0.00  0.00    -0.242 N 
ATOM     21  C   UNL     1      -0.632  -1.812  10.655  0.00  0.00    +0.306 C 
ATOM     22  O   UNL     1      -0.789  -2.988  10.392  0.00  0.00    -0.252 OA
ATOM     23  N   UNL     1      -0.555  -1.413  11.940  0.00  0.00    -0.292 N 
ATOM     24  H   UNL     1      -0.411   0.032   9.871  0.00  0.00    +0.159 HD
ATOM     25  H   UNL     1      -0.431  -0.475  12.149  0.00  0.00    +0.151 HD
BRANCH  23  26
ATOM     26  C   UNL     1      -0.660  -2.398  13.020  0.00  0.00    +0.180 C 
BRANCH  26  27
ATOM     27  C   UNL     1      -0.544  -1.699  14.350  0.00  0.00    +0.122 A 
ATOM     28  C   UNL     1      -1.566  -1.200  15.068  0.00  0.00    +0.046 A 
ATOM     29  C   UNL     1      -1.007  -0.636  16.238  0.00  0.00    +0.041 A 
ATOM     30  C   UNL     1       0.323  -0.824  16.165  0.00  0.00    +0.195 A 
ATOM     31  O   UNL     1       0.597  -1.474  15.021  0.00  0.00    -0.466 OA
ENDBRANCH  26  27
ENDBRANCH  23  26
ENDBRANCH  17  18
ENDBRANCH   1  17
TORSDOF 7
