REMARK  Name = ZINC04719100
REMARK  5 active torsions:
REMARK  status: ('A' for Active; 'I' for Inactive)
REMARK    1  A    between atoms: C_3  and  C_6
REMARK    2  A    between atoms: C_8  and  C_21
REMARK    3  A    between atoms: C_10  and  N_20
REMARK    4  A    between atoms: C_11  and  C_15
REMARK    5  A    between atoms: N_16  and  C_17
REMARK                            x       y       z     vdW  Elec       q    Type
REMARK                         _______ _______ _______ _____ _____    ______ ____
ROOT
ATOM      1  C   UNL     1       0.913   5.129   0.019  0.00  0.00    +0.079 A 
ATOM      2  C   UNL     1       2.291   5.386   0.013  0.00  0.00    +0.042 A 
ATOM      3  C   UNL     1       2.752   6.666   0.011  0.00  0.00    +0.068 A 
ATOM      4  C   UNL     1       1.822   7.740   0.024  0.00  0.00    +0.041 A 
ATOM      5  C   UNL     1       2.091   9.168   0.028  0.00  0.00    +0.052 A 
ATOM      6  C   UNL     1       1.017  10.036   0.042  0.00  0.00    +0.076 A 
ATOM      7  S   UNL     1      -0.393   8.947   0.049  0.00  0.00    -0.064 S 
ATOM      8  C   UNL     1       0.453   7.386   0.034  0.00  0.00    +0.112 A 
ATOM      9  N   UNL     1       0.045   6.136   0.031  0.00  0.00    -0.239 NA
ENDROOT
BRANCH   1  12
ATOM     10  C   UNL     1      -1.081   1.916   0.017  0.00  0.00    +0.008 A 
ATOM     11  C   UNL     1      -0.866   3.275   0.026  0.00  0.00    +0.017 A 
ATOM     12  C   UNL     1       0.425   3.737   0.017  0.00  0.00    +0.038 A 
ATOM     13  S   UNL     1       1.360   2.217   0.001  0.00  0.00    -0.095 S 
ATOM     14  C   UNL     1      -0.013   1.076   0.008  0.00  0.00    +0.046 A 
ENDBRANCH   1  12
BRANCH   6  15
ATOM     15  C   UNL     1       1.033  11.450   0.048  0.00  0.00    +0.144 C 
ATOM     16  N   UNL     1       2.191  12.101   0.041  0.00  0.00    -0.157 NA
ATOM     17  N   UNL     1      -0.150  12.151   0.062  0.00  0.00    -0.342 N 
ATOM     18  H   UNL     1      -0.995  11.675   0.067  0.00  0.00    +0.144 HD
ATOM     19  H   UNL     1      -0.139  13.121   0.067  0.00  0.00    +0.144 HD
BRANCH  16  20
ATOM     20  C   UNL     1       2.206  13.456   0.048  0.00  0.00    +0.207 C 
ATOM     21  N   UNL     1       2.219  14.591   0.053  0.00  0.00    -0.169 NA
ENDBRANCH  16  20
ENDBRANCH   6  15
BRANCH   3  22
ATOM     22  C   UNL     1       4.234   6.942  -0.002  0.00  0.00    +0.418 C 
ATOM     23  F   UNL     1       4.933   5.730  -0.013  0.00  0.00    -0.166 F 
ATOM     24  F   UNL     1       4.561   7.680  -1.144  0.00  0.00    -0.166 F 
ATOM     25  F   UNL     1       4.582   7.671   1.141  0.00  0.00    -0.166 F 
ENDBRANCH   3  22
BRANCH   5  26
ATOM     26  N   UNL     1       3.393   9.647   0.019  0.00  0.00    -0.356 N 
ATOM     27  H   UNL     1       4.139   9.027   0.010  0.00  0.00    +0.142 HD
ATOM     28  H   UNL     1       3.559  10.603   0.022  0.00  0.00    +0.142 HD
ENDBRANCH   5  26
TORSDOF 5
