REMARK  Name = ZINC44399916
REMARK  17 active torsions:
REMARK  status: ('A' for Active; 'I' for Inactive)
REMARK    1  A    between atoms: C_1  and  C_2
REMARK    2  A    between atoms: C_2  and  C_3
REMARK    3  A    between atoms: C_3  and  C_5
REMARK    4  A    between atoms: C_3  and  N_31
REMARK    5  A    between atoms: C_5  and  C_6
REMARK    6  A    between atoms: C_7  and  O_30
REMARK    7  A    between atoms: C_9  and  C_29
REMARK    8  A    between atoms: C_10  and  C_13
REMARK    9  A    between atoms: C_11  and  O_12
REMARK   10  A    between atoms: C_13  and  O_15
REMARK   11  A    between atoms: O_15  and  C_16
REMARK   12  A    between atoms: C_18  and  C_28
REMARK   13  A    between atoms: C_19  and  C_24
REMARK   14  A    between atoms: C_20  and  O_23
REMARK   15  A    between atoms: C_21  and  C_22
REMARK   16  A    between atoms: C_24  and  O_26
REMARK   17  A    between atoms: O_26  and  C_27
REMARK                            x       y       z     vdW  Elec       q    Type
REMARK                         _______ _______ _______ _____ _____    ______ ____
ROOT
ATOM      1  C   UNL     1      -2.748  -2.600  -0.276  0.00  0.00    +0.035 A 
ATOM      2  C   UNL     1      -3.483  -2.857   0.872  0.00  0.00    +0.124 A 
ATOM      3  C   UNL     1      -4.812  -3.258   0.779  0.00  0.00    +0.050 A 
ATOM      4  C   UNL     1      -5.408  -3.402  -0.453  0.00  0.00    -0.029 A 
ATOM      5  C   UNL     1      -4.677  -3.145  -1.617  0.00  0.00    +0.104 A 
ATOM      6  C   UNL     1      -3.337  -2.736  -1.521  0.00  0.00    +0.138 A 
ATOM      7  C   UNL     1      -6.848  -3.837  -0.547  0.00  0.00    +0.045 C 
ENDROOT
BRANCH   6   8
ATOM      8  O   UNL     1      -2.622  -2.479  -2.645  0.00  0.00    -0.506 OA
ATOM      9  H   UNL     1      -2.157  -3.250  -3.000  0.00  0.00    +0.292 HD
ENDBRANCH   6   8
BRANCH   5  10
ATOM     10  C   UNL     1      -5.310  -3.299  -2.936  0.00  0.00    +0.348 C 
ATOM     11  O   UNL     1      -5.877  -2.356  -3.451  0.00  0.00    -0.244 OA
BRANCH  10  12
ATOM     12  O   UNL     1      -5.260  -4.486  -3.574  0.00  0.00    -0.422 OA
BRANCH  12  13
ATOM     13  C   UNL     1      -5.947  -4.614  -4.738  0.00  0.00    +0.139 A 
ATOM     14  C   UNL     1      -7.242  -5.121  -4.726  0.00  0.00    +0.051 A 
ATOM     15  C   UNL     1      -7.942  -5.254  -5.891  0.00  0.00    -0.029 A 
ATOM     16  C   UNL     1      -7.360  -4.880  -7.106  0.00  0.00    +0.104 A 
ATOM     17  C   UNL     1      -6.053  -4.367  -7.122  0.00  0.00    +0.137 A 
ATOM     18  C   UNL     1      -5.356  -4.232  -5.933  0.00  0.00    +0.034 A 
ATOM     19  C   UNL     1      -3.955  -3.677  -5.939  0.00  0.00    +0.051 C 
ATOM     20  C   UNL     1      -9.345  -5.806  -5.867  0.00  0.00    +0.045 C 
BRANCH  17  21
ATOM     21  O   UNL     1      -5.479  -4.000  -8.295  0.00  0.00    -0.506 OA
ATOM     22  H   UNL     1      -5.632  -3.076  -8.536  0.00  0.00    +0.292 HD
ENDBRANCH  17  21
BRANCH  16  23
ATOM     23  C   UNL     1      -8.113  -5.023  -8.362  0.00  0.00    +0.343 C 
ATOM     24  O   UNL     1      -8.805  -4.108  -8.764  0.00  0.00    -0.245 OA
BRANCH  23  25
ATOM     25  O   UNL     1      -8.035  -6.169  -9.068  0.00  0.00    -0.464 OA
ATOM     26  C   UNL     1      -8.792  -6.238 -10.278  0.00  0.00    +0.280 C 
ENDBRANCH  23  25
ENDBRANCH  16  23
ENDBRANCH  12  13
ENDBRANCH  10  12
ENDBRANCH   5  10
BRANCH   2  27
ATOM     27  O   UNL     1      -2.903  -2.718   2.091  0.00  0.00    -0.506 OA
ATOM     28  H   UNL     1      -2.991  -1.833   2.469  0.00  0.00    +0.292 HD
ENDBRANCH   2  27
BRANCH   1  29
ATOM     29  C   UNL     1      -1.309  -2.166  -0.168  0.00  0.00    +0.026 C 
BRANCH  29  30
ATOM     30  C   UNL     1      -1.241  -0.640  -0.083  0.00  0.00    -0.071 C 
BRANCH  30  31
ATOM     31  N   UNL     1      -1.878  -0.190   1.162  0.00  0.00    +0.380 N 
ATOM     32  H   UNL     1      -1.833   0.817   1.218  0.00  0.00    -0.090 HD
ATOM     33  H   UNL     1      -2.843  -0.485   1.172  0.00  0.00    -0.090 HD
ATOM     34  H   UNL     1      -1.395  -0.592   1.951  0.00  0.00    -0.090 HD
ENDBRANCH  30  31
BRANCH  30  36
ATOM     35  C   UNL     1       0.288   1.335  -0.140  0.00  0.00    +0.002 C 
ATOM     36  C   UNL     1       0.222  -0.193  -0.098  0.00  0.00    -0.019 C 
ENDBRANCH  30  36
ENDBRANCH  29  30
ENDBRANCH   1  29
TORSDOF 12
