REMARK  Name = ZINC67562696
REMARK  5 active torsions:
REMARK  status: ('A' for Active; 'I' for Inactive)
REMARK    1  A    between atoms: C_1  and  N_2
REMARK    2  A    between atoms: C_4  and  N_27
REMARK    3  A    between atoms: C_7  and  C_9
REMARK    4  A    between atoms: N_11  and  C_12
REMARK    5  A    between atoms: N_20  and  C_21
REMARK                            x       y       z     vdW  Elec       q    Type
REMARK                         _______ _______ _______ _____ _____    ______ ____
ROOT
ATOM      1  C   UNL     1       4.463  -1.204   1.521  0.00  0.00    +0.076 C 
ATOM      2  C   UNL     1       4.669  -2.710   1.341  0.00  0.00    +0.041 C 
ATOM      3  C   UNL     1       6.131  -2.981   0.972  0.00  0.00    +0.111 C 
ATOM      4  N   UNL     1       6.997  -2.371   1.991  0.00  0.00    -0.286 N 
ATOM      5  C   UNL     1       6.820  -0.947   2.307  0.00  0.00    +0.111 C 
ATOM      6  C   UNL     1       5.351  -0.699   2.661  0.00  0.00    +0.041 C 
ATOM      7  C   UNL     1       7.934  -3.104   2.624  0.00  0.00    +0.302 C 
ATOM      8  O   UNL     1       8.008  -4.301   2.424  0.00  0.00    -0.253 OA
ATOM      9  N   UNL     1       8.791  -2.510   3.478  0.00  0.00    -0.296 N 
ATOM     10  H   UNL     1       8.687  -1.570   3.693  0.00  0.00    +0.151 HD
ENDROOT
BRANCH   9  11
ATOM     11  C   UNL     1       9.878  -3.284   4.082  0.00  0.00    +0.074 C 
ATOM     12  C   UNL     1      11.076  -3.310   3.130  0.00  0.00    +0.022 C 
ATOM     13  C   UNL     1      12.211  -4.118   3.760  0.00  0.00    +0.002 C 
ATOM     14  C   UNL     1      12.625  -3.470   5.083  0.00  0.00    +0.000 C 
ATOM     15  C   UNL     1      11.428  -3.445   6.035  0.00  0.00    +0.002 C 
ATOM     16  C   UNL     1      10.292  -2.636   5.405  0.00  0.00    +0.022 C 
ENDBRANCH   9  11
BRANCH   1  19
ATOM     17  C   UNL     1       2.153  -0.815   0.851  0.00  0.00    +0.230 C 
ATOM     18  O   UNL     1       2.502  -0.923  -0.306  0.00  0.00    -0.274 OA
ATOM     19  N   UNL     1       3.059  -0.938   1.841  0.00  0.00    -0.311 N 
ATOM     20  H   UNL     1       2.780  -0.852   2.767  0.00  0.00    +0.149 HD
BRANCH  17  26
ATOM     21  C   UNL     1      -0.022   1.456   0.007  0.00  0.00    +0.105 C 
ATOM     22  N   UNL     1       0.001  -0.012  -0.005  0.00  0.00    -0.296 NA
ATOM     23  C   UNL     1      -1.367  -0.562  -0.020  0.00  0.00    +0.069 C 
ATOM     24  C   UNL     1      -1.498  -1.493   1.204  0.00  0.00    -0.059 C 
ATOM     25  C   UNL     1      -0.026  -1.862   1.523  0.00  0.00    +0.013 C 
ATOM     26  C   UNL     1       0.709  -0.541   1.180  0.00  0.00    +0.141 C 
BRANCH  24  27
ATOM     27  N   UNL     1      -2.276  -2.692   0.863  0.00  0.00    +0.381 N 
ATOM     28  H   UNL     1      -1.825  -3.181   0.104  0.00  0.00    -0.090 HD
ATOM     29  H   UNL     1      -2.330  -3.298   1.668  0.00  0.00    -0.090 HD
ATOM     30  H   UNL     1      -3.206  -2.421   0.583  0.00  0.00    -0.090 HD
ENDBRANCH  24  27
ENDBRANCH  17  26
ENDBRANCH   1  19
TORSDOF 4
