REMARK  Name = ZINC13769682
REMARK  8 active torsions:
REMARK  status: ('A' for Active; 'I' for Inactive)
REMARK    1  A    between atoms: C_4  and  N_7
REMARK    2  A    between atoms: N_9  and  C_28
REMARK    3  A    between atoms: C_10  and  C_13
REMARK    4  A    between atoms: C_17  and  S_19
REMARK    5  A    between atoms: S_19  and  N_22
REMARK    6  A    between atoms: C_28  and  C_29
REMARK    7  A    between atoms: C_29  and  C_30
REMARK    8  A    between atoms: C_30  and  N_31
REMARK                            x       y       z     vdW  Elec       q    Type
REMARK                         _______ _______ _______ _____ _____    ______ ____
ROOT
ATOM      1  N   UNL     1       1.353   3.339  -0.498  0.00  0.00    -0.336 N 
ATOM      2  C   UNL     1       1.163   2.055  -0.264  0.00  0.00    +0.152 A 
ATOM      3  N   UNL     1      -0.011   1.340  -0.240  0.00  0.00    -0.321 N 
ATOM      4  C   UNL     1       0.042  -0.001   0.029  0.00  0.00    +0.058 A 
ATOM      5  C   UNL     1       1.234  -0.587   0.263  0.00  0.00    +0.075 A 
ATOM      6  S   UNL     1       2.364   0.786   0.105  0.00  0.00    -0.059 S 
ATOM      7  H   UNL     1       0.489   4.008  -0.630  0.00  0.00    +0.168 HD
ENDROOT
BRANCH   1  11
ATOM      8  C   UNL     1       5.195   4.854  -0.740  0.00  0.00    +0.000 A 
ATOM      9  C   UNL     1       4.604   4.292  -1.859  0.00  0.00    +0.002 A 
ATOM     10  C   UNL     1       3.324   3.785  -1.785  0.00  0.00    +0.025 A 
ATOM     11  C   UNL     1       2.623   3.840  -0.578  0.00  0.00    +0.041 A 
ATOM     12  C   UNL     1       3.223   4.413   0.546  0.00  0.00    +0.025 A 
ATOM     13  C   UNL     1       4.506   4.911   0.459  0.00  0.00    +0.002 A 
ENDBRANCH   1  11
BRANCH   4  14
ATOM     14  C   UNL     1      -1.201  -0.802   0.064  0.00  0.00    +0.001 A 
ATOM     15  C   UNL     1      -1.490  -1.599   1.173  0.00  0.00    +0.010 A 
ATOM     16  C   UNL     1      -2.654  -2.339   1.201  0.00  0.00    +0.003 A 
ATOM     17  C   UNL     1      -3.528  -2.302   0.129  0.00  0.00    +0.028 A 
ATOM     18  C   UNL     1      -3.244  -1.518  -0.975  0.00  0.00    +0.106 A 
ATOM     19  C   UNL     1      -2.086  -0.768  -1.014  0.00  0.00    +0.038 A 
BRANCH  18  20
ATOM     20  S   UNL     1      -4.363  -1.478  -2.336  0.00  0.00    +0.061 S 
ATOM     21  O   UNL     1      -5.638  -1.843  -1.824  0.00  0.00    -0.153 OA
ATOM     22  O   UNL     1      -4.137  -0.248  -3.011  0.00  0.00    -0.153 OA
BRANCH  20  23
ATOM     23  N   UNL     1      -3.910  -2.682  -3.379  0.00  0.00    -0.177 NA
ATOM     24  C   UNL     1      -2.948  -2.415  -4.457  0.00  0.00    +0.109 C 
ATOM     25  C   UNL     1      -1.805  -3.437  -4.356  0.00  0.00    +0.017 C 
ATOM     26  C   UNL     1      -2.390  -4.851  -4.372  0.00  0.00    +0.003 C 
ATOM     27  C   UNL     1      -3.311  -5.037  -3.163  0.00  0.00    +0.017 C 
ATOM     28  C   UNL     1      -4.466  -4.035  -3.248  0.00  0.00    +0.109 C 
ENDBRANCH  20  23
ENDBRANCH  18  20
ENDBRANCH   4  14
BRANCH   3  29
ATOM     29  C   UNL     1      -1.293   1.999  -0.503  0.00  0.00    +0.125 C 
BRANCH  29  30
ATOM     30  C   UNL     1      -1.954   2.377   0.824  0.00  0.00    +0.037 C 
BRANCH  30  31
ATOM     31  C   UNL     1      -3.292   3.066   0.549  0.00  0.00    +0.086 C 
BRANCH  31  32
ATOM     32  N   UNL     1      -3.927   3.428   1.823  0.00  0.00    -0.298 NA
ATOM     33  C   UNL     1      -4.308   2.228   2.582  0.00  0.00    +0.112 C 
ATOM     34  C   UNL     1      -4.910   2.651   3.925  0.00  0.00    +0.175 C 
ATOM     35  O   UNL     1      -6.022   3.519   3.692  0.00  0.00    -0.377 OA
ATOM     36  C   UNL     1      -5.687   4.698   2.955  0.00  0.00    +0.175 C 
ATOM     37  C   UNL     1      -5.093   4.297   1.602  0.00  0.00    +0.112 C 
ENDBRANCH  31  32
ENDBRANCH  30  31
ENDBRANCH  29  30
ENDBRANCH   3  29
TORSDOF 8
