REMARK  Name = ZINC54241153
REMARK  8 active torsions:
REMARK  status: ('A' for Active; 'I' for Inactive)
REMARK    1  A    between atoms: C_1  and  C_2
REMARK    2  A    between atoms: C_4  and  S_19
REMARK    3  A    between atoms: C_6  and  N_9
REMARK    4  A    between atoms: C_7  and  C_8
REMARK    5  A    between atoms: N_9  and  C_10
REMARK    6  A    between atoms: C_10  and  C_11
REMARK    7  A    between atoms: N_17  and  C_18
REMARK    8  A    between atoms: S_19  and  N_22
REMARK                            x       y       z     vdW  Elec       q    Type
REMARK                         _______ _______ _______ _____ _____    ______ ____
ROOT
ATOM      1  C   UNL     1      -0.120   0.584  -0.794  0.00  0.00    +0.044 C 
ATOM      2  C   UNL     1      -0.102  -0.904  -0.556  0.00  0.00    -0.044 A 
ATOM      3  C   UNL     1      -0.210  -1.775  -1.625  0.00  0.00    +0.032 A 
ATOM      4  C   UNL     1      -0.194  -3.141  -1.412  0.00  0.00    +0.107 A 
ATOM      5  C   UNL     1      -0.069  -3.640  -0.130  0.00  0.00    +0.051 A 
ATOM      6  C   UNL     1       0.040  -2.769   0.945  0.00  0.00    +0.032 A 
ATOM      7  C   UNL     1       0.029  -1.397   0.727  0.00  0.00    -0.027 A 
ATOM      8  C   UNL     1       0.153  -0.447   1.890  0.00  0.00    +0.046 C 
ENDROOT
BRANCH   4   9
ATOM      9  S   UNL     1      -0.333  -4.247  -2.777  0.00  0.00    +0.056 S 
ATOM     10  O   UNL     1      -0.840  -5.469  -2.260  0.00  0.00    -0.153 OA
ATOM     11  O   UNL     1      -0.987  -3.530  -3.815  0.00  0.00    -0.153 OA
BRANCH   9  12
ATOM     12  N   UNL     1       1.202  -4.560  -3.312  0.00  0.00    -0.204 NA
ATOM     13  H   UNL     1       1.962  -4.149  -2.872  0.00  0.00    +0.144 HD
ATOM     14  H   UNL     1       1.341  -5.154  -4.066  0.00  0.00    +0.144 HD
ENDBRANCH   9  12
ENDBRANCH   4   9
BRANCH   6  15
ATOM     15  N   UNL     1       0.166  -3.270   2.243  0.00  0.00    -0.345 N 
ATOM     16  H   UNL     1       0.243  -2.660   2.993  0.00  0.00    +0.146 HD
BRANCH  15  17
ATOM     17  C   UNL     1       0.183  -4.717   2.470  0.00  0.00    +0.086 C 
BRANCH  17  18
ATOM     18  C   UNL     1       0.204  -4.996   3.975  0.00  0.00    -0.052 C 
ATOM     19  C   UNL     1       1.518  -4.485   4.570  0.00  0.00    -0.014 C 
ATOM     20  C   UNL     1       1.534  -4.767   6.075  0.00  0.00    -0.003 C 
ATOM     21  C   UNL     1       0.309  -4.111   6.720  0.00  0.00    -0.019 C 
ATOM     22  C   UNL     1      -0.959  -4.636   6.045  0.00  0.00    -0.079 C 
ATOM     23  N   UNL     1      -0.926  -4.312   4.614  0.00  0.00    +0.381 N 
ATOM     24  C   UNL     1      -2.180  -4.748   3.986  0.00  0.00    -0.096 C 
ATOM     25  H   UNL     1      -0.823  -3.315   4.498  0.00  0.00    -0.082 HD
ENDBRANCH  17  18
ENDBRANCH  15  17
ENDBRANCH   6  15
TORSDOF 5
