REMARK  Name = ZINC62798419
REMARK  4 active torsions:
REMARK  status: ('A' for Active; 'I' for Inactive)
REMARK    1  A    between atoms: C_5  and  O_7
REMARK    2  A    between atoms: O_7  and  C_8
REMARK    3  A    between atoms: C_8  and  C_9
REMARK    4  A    between atoms: C_18  and  N_20
REMARK                            x       y       z     vdW  Elec       q    Type
REMARK                         _______ _______ _______ _____ _____    ______ ____
ROOT
ATOM      1  C   UNL     1      -0.017   1.377   0.010  0.00  0.00    +0.004 A 
ATOM      2  C   UNL     1       1.171   2.084   0.002  0.00  0.00    +0.002 A 
ATOM      3  C   UNL     1       2.383   1.415  -0.014  0.00  0.00    -0.055 A 
ATOM      4  C   UNL     1       2.407   0.033  -0.021  0.00  0.00    -0.004 A 
ATOM      5  C   UNL     1       1.214  -0.678  -0.014  0.00  0.00    +0.124 A 
ATOM      6  C   UNL     1       0.002  -0.004   0.002  0.00  0.00    +0.046 A 
ATOM      7  C   UNL     1       3.840  -0.454  -0.038  0.00  0.00    +0.038 C 
ATOM      8  C   UNL     1       4.676   0.766  -0.479  0.00  0.00    -0.007 C 
ATOM      9  C   UNL     1       3.799   1.951  -0.024  0.00  0.00    -0.044 C 
ENDROOT
BRANCH   9  10
ATOM     10  N   UNL     1       4.189   2.386   1.323  0.00  0.00    +0.383 N 
ATOM     11  H   UNL     1       4.115   1.609   1.962  0.00  0.00    -0.089 HD
ATOM     12  H   UNL     1       5.141   2.719   1.307  0.00  0.00    -0.089 HD
ATOM     13  H   UNL     1       3.578   3.130   1.627  0.00  0.00    -0.089 HD
ENDBRANCH   9  10
BRANCH   5  14
ATOM     14  O   UNL     1       1.234  -2.037  -0.021  0.00  0.00    -0.488 OA
BRANCH  14  15
ATOM     15  C   UNL     1      -0.030  -2.705  -0.013  0.00  0.00    +0.275 C 
BRANCH  15  16
ATOM     16  C   UNL     1       0.194  -4.218  -0.024  0.00  0.00    +0.232 C 
ATOM     17  C   UNL     1      -1.154  -4.976   0.037  0.00  0.00    +0.155 C 
ATOM     18  N   UNL     1      -0.907  -6.124  -0.857  0.00  0.00    -0.277 N 
ATOM     19  C   UNL     1       0.204  -5.858  -1.570  0.00  0.00    +0.401 C 
ATOM     20  O   UNL     1       0.684  -6.627  -2.378  0.00  0.00    -0.226 OA
ATOM     21  O   UNL     1       0.725  -4.651  -1.291  0.00  0.00    -0.442 OA
ATOM     22  H   UNL     1      -1.448  -6.927  -0.920  0.00  0.00    +0.152 HD
ENDBRANCH  15  16
ENDBRANCH  14  15
ENDBRANCH   5  14
TORSDOF 4
