REMARK  Name = ZINC09849887
REMARK  9 active torsions:
REMARK  status: ('A' for Active; 'I' for Inactive)
REMARK    1  A    between atoms: C_1  and  C_2
REMARK    2  A    between atoms: C_2  and  C_3
REMARK    3  A    between atoms: C_2  and  C_4
REMARK    4  A    between atoms: C_10  and  S_12
REMARK    5  A    between atoms: S_12  and  C_13
REMARK    6  A    between atoms: C_13  and  C_14
REMARK    7  A    between atoms: C_21  and  C_22
REMARK    8  A    between atoms: C_21  and  C_28
REMARK    9  A    between atoms: C_21  and  N_63
REMARK                            x       y       z     vdW  Elec       q    Type
REMARK                         _______ _______ _______ _____ _____    ______ ____
ROOT
ATOM      1  C   UNL     1       0.243   3.876   2.164  0.00  0.00    +0.226 C 
ATOM      2  O   UNL     1       0.330   5.081   2.064  0.00  0.00    -0.275 OA
ATOM      3  N   UNL     1      -0.331   3.158   1.179  0.00  0.00    -0.304 N 
ATOM      4  C   UNL     1      -0.446   1.695   1.280  0.00  0.00    +0.089 C 
ATOM      5  C   UNL     1       0.115   1.073  -0.003  0.00  0.00    -0.058 C 
ATOM      6  C   UNL     1      -0.279   3.110  -1.258  0.00  0.00    -0.058 C 
ATOM      7  C   UNL     1      -0.857   3.816  -0.027  0.00  0.00    +0.089 C 
ATOM      8  N   UNL     1      -0.584   1.666  -1.164  0.00  0.00    +0.389 N 
ATOM      9  H   UNL     1      -1.596   1.546  -1.039  0.00  0.00    -0.080 HD
ENDROOT
BRANCH   1  10
ATOM     10  C   UNL     1       0.775   3.181   3.391  0.00  0.00    +0.172 C 
BRANCH  10  11
ATOM     11  S   UNL     1       1.480   4.410   4.524  0.00  0.00    -0.088 S 
BRANCH  11  18
ATOM     12  C   UNL     1       3.599   0.620   9.640  0.00  0.00    +0.221 C 
ATOM     13  O   UNL     1       3.129  -0.203   8.883  0.00  0.00    -0.275 OA
ATOM     14  N   UNL     1       3.583   1.926   9.309  0.00  0.00    -0.263 N 
ATOM     15  C   UNL     1       3.026   2.331   8.099  0.00  0.00    +0.189 A 
ATOM     16  N   UNL     1       2.466   1.614   7.138  0.00  0.00    -0.125 NA
ATOM     17  N   UNL     1       2.004   2.144   6.091  0.00  0.00    -0.133 NA
ATOM     18  C   UNL     1       2.052   3.453   5.889  0.00  0.00    +0.160 A 
ATOM     19  S   UNL     1       2.870   3.970   7.395  0.00  0.00    -0.024 S 
ATOM     20  H   UNL     1       3.959   2.584   9.915  0.00  0.00    +0.157 HD
BRANCH  12  22
ATOM     21  C   UNL     1       3.450   0.845  12.105  0.00  0.00    +0.017 C 
ATOM     22  C   UNL     1       4.202   0.181  10.950  0.00  0.00    +0.069 C 
ATOM     23  C   UNL     1       4.093  -1.340  11.078  0.00  0.00    +0.017 C 
ENDBRANCH  12  22
ENDBRANCH  11  18
ENDBRANCH  10  11
ENDBRANCH   1  10
BRANCH   8  24
ATOM     24  C   UNL     1      -0.170   0.981  -2.406  0.00  0.00    -0.007 C 
BRANCH  24  25
ATOM     25  C   UNL     1      -0.497  -0.485  -2.288  0.00  0.00    -0.057 A 
ATOM     26  C   UNL     1      -1.708  -0.882  -1.751  0.00  0.00    +0.002 A 
ATOM     27  C   UNL     1      -2.010  -2.227  -1.648  0.00  0.00    +0.000 A 
ATOM     28  C   UNL     1      -1.098  -3.175  -2.071  0.00  0.00    +0.000 A 
ATOM     29  C   UNL     1       0.115  -2.779  -2.603  0.00  0.00    +0.000 A 
ATOM     30  C   UNL     1       0.415  -1.434  -2.711  0.00  0.00    +0.002 A 
ENDBRANCH  24  25
BRANCH  24  31
ATOM     31  C   UNL     1      -0.927   1.573  -3.566  0.00  0.00    -0.057 A 
ATOM     32  C   UNL     1      -2.280   1.832  -3.448  0.00  0.00    +0.002 A 
ATOM     33  C   UNL     1      -2.974   2.380  -4.510  0.00  0.00    +0.000 A 
ATOM     34  C   UNL     1      -2.318   2.660  -5.694  0.00  0.00    +0.000 A 
ATOM     35  C   UNL     1      -0.966   2.396  -5.814  0.00  0.00    +0.000 A 
ATOM     36  C   UNL     1      -0.271   1.853  -4.750  0.00  0.00    +0.002 A 
ENDBRANCH  24  31
ENDBRANCH   8  24
TORSDOF 7
