REMARK  Name = ZINC43948033
REMARK  4 active torsions:
REMARK  status: ('A' for Active; 'I' for Inactive)
REMARK    1  A    between atoms: C_3  and  N_20
REMARK    2  A    between atoms: C_6  and  N_7
REMARK    3  A    between atoms: N_10  and  C_11
REMARK    4  A    between atoms: N_14  and  C_17
REMARK                            x       y       z     vdW  Elec       q    Type
REMARK                         _______ _______ _______ _____ _____    ______ ____
ROOT
ATOM      1  N   UNL     1      -1.202  -0.721   0.010  0.00  0.00    -0.269 N 
ATOM      2  C   UNL     1      -1.188  -2.065  -0.099  0.00  0.00    +0.304 C 
ATOM      3  O   UNL     1      -0.128  -2.662  -0.113  0.00  0.00    -0.253 OA
ATOM      4  N   UNL     1      -2.347  -2.746  -0.193  0.00  0.00    -0.296 N 
ATOM      5  H   UNL     1      -2.046  -0.251   0.099  0.00  0.00    +0.156 HD
ATOM      6  H   UNL     1      -3.192  -2.270  -0.181  0.00  0.00    +0.151 HD
ENDROOT
BRANCH   4   7
ATOM      7  C   UNL     1      -2.330  -4.206  -0.311  0.00  0.00    +0.071 C 
ATOM      8  C   UNL     1      -2.256  -4.832   1.084  0.00  0.00    +0.004 C 
ATOM      9  C   UNL     1      -2.320  -6.356   0.958  0.00  0.00    -0.077 C 
ATOM     10  N   UNL     1      -3.579  -6.745   0.312  0.00  0.00    +0.382 N 
ATOM     11  C   UNL     1      -3.626  -6.207  -1.053  0.00  0.00    -0.077 C 
ATOM     12  C   UNL     1      -3.612  -4.678  -1.004  0.00  0.00    +0.004 C 
ATOM     13  H   UNL     1      -4.355  -6.379   0.843  0.00  0.00    -0.081 HD
BRANCH  10  14
ATOM     14  C   UNL     1      -3.671  -8.210   0.263  0.00  0.00    -0.069 C 
ATOM     15  C   UNL     1      -4.950  -8.856   0.797  0.00  0.00    -0.017 C 
ATOM     16  C   UNL     1      -3.648  -8.964   1.594  0.00  0.00    -0.017 C 
ENDBRANCH  10  14
ENDBRANCH   4   7
BRANCH   1  22
ATOM     17  C   UNL     1       1.070  -0.455  -0.768  0.00  0.00    +0.025 A 
ATOM     18  C   UNL     1       2.256   0.252  -0.783  0.00  0.00    +0.026 A 
ATOM     19  C   UNL     1       2.380   1.415  -0.035  0.00  0.00    +0.051 A 
ATOM     20  C   UNL     1       1.311   1.867   0.729  0.00  0.00    +0.026 A 
ATOM     21  C   UNL     1       0.126   1.159   0.744  0.00  0.00    +0.025 A 
ATOM     22  C   UNL     1       0.002  -0.004  -0.005  0.00  0.00    +0.035 A 
BRANCH  19  23
ATOM     23  N   UNL     1       3.582   2.131  -0.049  0.00  0.00    -0.207 N 
ATOM     24  C   UNL     1       4.926   1.605  -0.348  0.00  0.00    +0.133 C 
ATOM     25  C   UNL     1       5.818   2.699  -0.964  0.00  0.00    +0.045 C 
ATOM     26  C   UNL     1       5.585   3.959  -0.076  0.00  0.00    +0.190 C 
ATOM     27  S   UNL     1       3.787   3.766   0.262  0.00  0.00    +0.046 S 
ATOM     28  O   UNL     1       3.013   4.440  -0.721  0.00  0.00    -0.155 OA
ATOM     29  O   UNL     1       3.518   3.925   1.648  0.00  0.00    -0.155 OA
ENDBRANCH  19  23
ENDBRANCH   1  22
TORSDOF 4
