REMARK  Name = ZINC22635106
REMARK  7 active torsions:
REMARK  status: ('A' for Active; 'I' for Inactive)
REMARK    1  A    between atoms: C_1  and  C_2
REMARK    2  A    between atoms: C_2  and  C_3
REMARK    3  A    between atoms: C_2  and  N_4
REMARK    4  A    between atoms: C_12  and  O_25
REMARK    5  A    between atoms: C_14  and  C_17
REMARK    6  A    between atoms: C_20  and  O_24
REMARK    7  A    between atoms: C_22  and  O_23
REMARK                            x       y       z     vdW  Elec       q    Type
REMARK                         _______ _______ _______ _____ _____    ______ ____
ROOT
ATOM      1  N   UNL     1      -1.413   7.864  -4.164  0.00  0.00    +0.384 N 
ATOM      2  C   UNL     1      -1.959   7.326  -2.910  0.00  0.00    -0.073 C 
ATOM      3  C   UNL     1      -2.015   5.797  -2.973  0.00  0.00    +0.018 C 
ATOM      4  C   UNL     1      -0.639   5.287  -3.388  0.00  0.00    -0.027 A 
ATOM      5  C   UNL     1       0.248   6.132  -3.967  0.00  0.00    -0.021 A 
ATOM      6  S   UNL     1       1.684   5.140  -4.278  0.00  0.00    -0.080 S 
ATOM      7  C   UNL     1       1.116   3.649  -3.659  0.00  0.00    +0.080 A 
ATOM      8  C   UNL     1      -0.182   3.923  -3.207  0.00  0.00    +0.067 A 
ATOM      9  C   UNL     1      -0.939   2.802  -2.593  0.00  0.00    +0.220 C 
ATOM     10  N   UNL     1      -0.290   1.702  -2.333  0.00  0.00    -0.223 NA
ATOM     11  C   UNL     1       1.146   1.520  -2.507  0.00  0.00    +0.227 C 
ATOM     12  N   UNL     1       1.681   2.401  -3.561  0.00  0.00    -0.313 N 
ATOM     13  C   UNL     1       0.032   7.582  -4.266  0.00  0.00    -0.035 C 
ATOM     14  H   UNL     1       2.490   2.046  -4.217  0.00  0.00    +0.149 HD
ATOM     15  H   UNL     1      -1.923   7.363  -5.000  0.00  0.00    -0.081 HD
ENDROOT
BRANCH  11  16
ATOM     16  C   UNL     1       1.842   1.830  -1.207  0.00  0.00    +0.036 A 
ATOM     17  C   UNL     1       3.096   2.409  -1.217  0.00  0.00    +0.014 A 
ATOM     18  C   UNL     1       3.737   2.694  -0.026  0.00  0.00    +0.046 A 
ATOM     19  C   UNL     1       3.122   2.398   1.182  0.00  0.00    +0.120 A 
ATOM     20  C   UNL     1       1.862   1.822   1.195  0.00  0.00    +0.091 A 
ATOM     21  C   UNL     1       1.223   1.532  -0.001  0.00  0.00    +0.127 A 
BRANCH  21  22
ATOM     22  O   UNL     1      -0.011   0.963   0.007  0.00  0.00    -0.506 OA
ATOM     23  H   UNL     1      -0.501   0.727   0.963  0.00  0.00    +0.292 HD
ENDBRANCH  21  22
BRANCH  19  24
ATOM     24  O   UNL     1       3.753   2.679   2.353  0.00  0.00    -0.507 OA
ATOM     25  H   UNL     1       3.266   2.444   3.311  0.00  0.00    +0.292 HD
ENDBRANCH  19  24
ENDBRANCH  11  16
BRANCH   1  27
ATOM     26  C   UNL     1      -0.973  10.044  -3.139  0.00  0.00    -0.014 C 
ATOM     27  C   UNL     1      -1.677   9.304  -4.278  0.00  0.00    -0.074 C 
ATOM     28  C   UNL     1      -1.150   9.814  -5.621  0.00  0.00    -0.014 C 
ENDBRANCH   1  27
BRANCH   9  29
ATOM     29  O   UNL     1      -2.257   2.919  -2.313  0.00  0.00    -0.492 OA
ATOM     30  H   UNL     1      -2.800   2.078  -1.858  0.00  0.00    +0.294 HD
ENDBRANCH   9  29
TORSDOF 5
