REMARK  Name = ZINC62101668
REMARK  2 active torsions:
REMARK  status: ('A' for Active; 'I' for Inactive)
REMARK    1  A    between atoms: C_3  and  N_16
REMARK    2  A    between atoms: C_5  and  N_8
REMARK                            x       y       z     vdW  Elec       q    Type
REMARK                         _______ _______ _______ _____ _____    ______ ____
ROOT
ATOM      1  C   UNL     1       0.125   1.633   0.116  0.00  0.00    -0.000 C 
ATOM      2  C   UNL     1       1.617   1.992  -0.047  0.00  0.00    -0.015 C 
ATOM      3  C   UNL     1       2.368   0.747   0.487  0.00  0.00    -0.058 C 
ATOM      4  C   UNL     1       1.486  -0.425  -0.014  0.00  0.00    +0.042 C 
ATOM      5  C   UNL     1       0.042   0.097   0.137  0.00  0.00    +0.017 C 
ENDROOT
BRANCH   4   6
ATOM      6  N   UNL     1       1.695  -1.617   0.817  0.00  0.00    -0.299 NA
ATOM      7  C   UNL     1       1.321  -1.361   2.201  0.00  0.00    +0.094 C 
ATOM      8  C   UNL     1       1.898  -2.436   3.126  0.00  0.00    +0.111 C 
ATOM      9  C   UNL     1       0.957  -3.623   3.125  0.00  0.00    +0.214 C 
ATOM     10  O   UNL     1       0.304  -3.880   4.114  0.00  0.00    -0.276 OA
ATOM     11  N   UNL     1       0.847  -4.385   2.033  0.00  0.00    -0.314 N 
ATOM     12  C   UNL     1       1.644  -4.076   0.833  0.00  0.00    +0.119 C 
ATOM     13  C   UNL     1       1.097  -2.793   0.202  0.00  0.00    +0.103 C 
ATOM     14  H   UNL     1       0.241  -5.143   2.030  0.00  0.00    +0.149 HD
ENDBRANCH   4   6
BRANCH   3  15
ATOM     15  N   UNL     1       3.718   0.668  -0.085  0.00  0.00    +0.381 N 
ATOM     16  H   UNL     1       4.247   1.484   0.187  0.00  0.00    -0.090 HD
ATOM     17  H   UNL     1       4.181  -0.161   0.257  0.00  0.00    -0.090 HD
ATOM     18  H   UNL     1       3.656   0.628  -1.091  0.00  0.00    -0.090 HD
ENDBRANCH   3  15
TORSDOF 2
