REMARK  Name = ZINC21285544
REMARK  10 active torsions:
REMARK  status: ('A' for Active; 'I' for Inactive)
REMARK    1  A    between atoms: C_1  and  O_2
REMARK    2  A    between atoms: O_2  and  C_3
REMARK    3  A    between atoms: C_6  and  C_11
REMARK    4  A    between atoms: C_8  and  O_9
REMARK    5  A    between atoms: O_9  and  C_10
REMARK    6  A    between atoms: C_13  and  C_16
REMARK    7  A    between atoms: C_16  and  S_17
REMARK    8  A    between atoms: S_17  and  C_18
REMARK    9  A    between atoms: C_21  and  C_24
REMARK   10  A    between atoms: N_22  and  N_23
REMARK                            x       y       z     vdW  Elec       q    Type
REMARK                         _______ _______ _______ _____ _____    ______ ____
ROOT
ATOM      1  S   UNL     1      -3.251   1.266   0.174  0.00  0.00    -0.078 S 
ENDROOT
BRANCH   1   2
ATOM      2  C   UNL     1      -2.096   1.651  -1.100  0.00  0.00    +0.209 A 
ATOM      3  N   UNL     1      -2.372   2.195  -2.264  0.00  0.00    -0.121 NA
ATOM      4  N   UNL     1      -1.295   2.336  -2.951  0.00  0.00    -0.127 NA
ATOM      5  C   UNL     1      -0.265   1.896  -2.267  0.00  0.00    +0.183 A 
ATOM      6  N   UNL     1      -0.747   1.438  -1.062  0.00  0.00    -0.224 N 
BRANCH   5   7
ATOM      7  C   UNL     1       1.145   1.890  -2.708  0.00  0.00    +0.040 A 
ATOM      8  C   UNL     1       1.923   0.742  -2.554  0.00  0.00    +0.033 A 
ATOM      9  C   UNL     1       3.240   0.743  -2.967  0.00  0.00    +0.042 A 
ATOM     10  C   UNL     1       3.790   1.881  -3.534  0.00  0.00    +0.021 A 
ATOM     11  C   UNL     1       3.025   3.022  -3.691  0.00  0.00    +0.022 A 
ATOM     12  C   UNL     1       1.704   3.032  -3.286  0.00  0.00    +0.052 A 
ATOM     13 CL   UNL     1       0.743   4.463  -3.489  0.00  0.00    -0.083 Cl
ATOM     14 CL   UNL     1       4.210  -0.685  -2.777  0.00  0.00    -0.084 Cl
ENDBRANCH   5   7
BRANCH   6  15
ATOM     15  N   UNL     1      -0.026   0.891  -0.039  0.00  0.00    -0.295 N 
ATOM     16  H   UNL     1       1.063   0.774  -0.135  0.00  0.00    +0.163 HD
ATOM     17  H   UNL     1      -0.536   0.567   0.881  0.00  0.00    +0.163 HD
ENDBRANCH   6  15
ENDBRANCH   1   2
BRANCH   1  18
ATOM     18  C   UNL     1      -4.782   1.828  -0.610  0.00  0.00    +0.133 C 
BRANCH  18  21
ATOM     19  C   UNL     1      -7.620   0.221   1.093  0.00  0.00    +0.109 A 
ATOM     20  N   UNL     1      -6.600   0.457   0.279  0.00  0.00    -0.243 NA
ATOM     21  C   UNL     1      -5.941   1.591   0.324  0.00  0.00    +0.059 A 
ATOM     22  C   UNL     1      -6.309   2.554   1.209  0.00  0.00    +0.071 A 
ATOM     23  S   UNL     1      -7.685   1.749   2.020  0.00  0.00    -0.075 S 
BRANCH  19  27
ATOM     24  C   UNL     1     -10.080  -3.234   1.400  0.00  0.00    +0.162 A 
ATOM     25  C   UNL     1      -9.050  -3.196   0.471  0.00  0.00    +0.050 A 
ATOM     26  C   UNL     1      -8.250  -2.077   0.369  0.00  0.00    +0.014 A 
ATOM     27  C   UNL     1      -8.476  -0.979   1.201  0.00  0.00    +0.011 A 
ATOM     28  C   UNL     1      -9.510  -1.018   2.139  0.00  0.00    +0.060 A 
ATOM     29  C   UNL     1     -10.311  -2.141   2.232  0.00  0.00    +0.162 A 
BRANCH  24  31
ATOM     30  C   UNL     1     -10.572  -5.423   0.613  0.00  0.00    +0.277 C 
ATOM     31  O   UNL     1     -10.865  -4.339   1.497  0.00  0.00    -0.491 OA
ENDBRANCH  24  31
BRANCH  29  32
ATOM     32  O   UNL     1     -11.322  -2.181   3.141  0.00  0.00    -0.491 OA
ATOM     33  C   UNL     1     -11.502  -1.026   3.962  0.00  0.00    +0.277 C 
ENDBRANCH  29  32
ENDBRANCH  19  27
ENDBRANCH  18  21
ENDBRANCH   1  18
TORSDOF 8
