REMARK  Name = ZINC39604465
REMARK  11 active torsions:
REMARK  status: ('A' for Active; 'I' for Inactive)
REMARK    1  A    between atoms: C_1  and  C_2
REMARK    2  A    between atoms: C_2  and  O_3
REMARK    3  A    between atoms: O_3  and  C_4
REMARK    4  A    between atoms: C_4  and  C_5
REMARK    5  A    between atoms: C_5  and  C_6
REMARK    6  A    between atoms: C_6  and  N_7
REMARK    7  A    between atoms: C_8  and  C_10
REMARK    8  A    between atoms: C_21  and  C_23
REMARK    9  A    between atoms: C_28  and  O_29
REMARK   10  A    between atoms: O_29  and  C_30
REMARK   11  A    between atoms: C_33  and  C_36
REMARK                            x       y       z     vdW  Elec       q    Type
REMARK                         _______ _______ _______ _____ _____    ______ ____
ROOT
ATOM      1  C   UNL     1       3.103  -5.821   5.911  0.00  0.00    +0.100 C 
ATOM      2  C   UNL     1       4.562  -5.427   5.588  0.00  0.00    +0.121 C 
ATOM      3  N   UNL     1       5.377  -6.549   6.110  0.00  0.00    -0.296 N 
ATOM      4  C   UNL     1       4.591  -7.761   5.778  0.00  0.00    +0.115 C 
ATOM      5  C   UNL     1       3.126  -7.354   6.034  0.00  0.00    -0.004 C 
ATOM      6  C   UNL     1       2.213  -7.982   4.986  0.00  0.00    -0.010 C 
ATOM      7  C   UNL     1       2.207  -9.503   5.166  0.00  0.00    -0.082 C 
ATOM      8  N   UNL     1       1.737  -9.836   6.516  0.00  0.00    +0.379 N 
ATOM      9  C   UNL     1       2.672  -9.306   7.516  0.00  0.00    -0.082 C 
ATOM     10  C   UNL     1       2.697  -7.778   7.436  0.00  0.00    -0.010 C 
ATOM     11  C   UNL     1       6.565  -6.482   6.743  0.00  0.00    +0.252 C 
ATOM     12  O   UNL     1       7.159  -7.504   7.030  0.00  0.00    -0.270 OA
ATOM     13  H   UNL     1       0.825  -9.430   6.662  0.00  0.00    -0.086 HD
ATOM     14  H   UNL     1       1.676 -10.838   6.612  0.00  0.00    -0.086 HD
ENDROOT
BRANCH  11  15
ATOM     15  C   UNL     1       7.145  -5.170   7.088  0.00  0.00    +0.099 A 
ATOM     16  C   UNL     1       6.964  -4.068   6.244  0.00  0.00    +0.020 A 
ATOM     17  C   UNL     1       7.528  -2.859   6.613  0.00  0.00    +0.021 A 
ATOM     18  C   UNL     1       8.246  -2.775   7.793  0.00  0.00    +0.114 A 
ATOM     19  N   UNL     1       8.403  -3.827   8.573  0.00  0.00    -0.220 NA
ATOM     20  C   UNL     1       7.881  -5.003   8.270  0.00  0.00    +0.233 A 
BRANCH  20  21
ATOM     21  O   UNL     1       8.063  -6.055   9.104  0.00  0.00    -0.437 OA
BRANCH  21  22
ATOM     22  C   UNL     1       8.862  -5.878  10.189  0.00  0.00    +0.130 A 
ATOM     23  C   UNL     1      10.168  -6.348  10.174  0.00  0.00    +0.046 A 
ATOM     24  C   UNL     1      10.978  -6.166  11.278  0.00  0.00    +0.007 A 
ATOM     25  C   UNL     1      10.489  -5.518  12.397  0.00  0.00    -0.050 A 
ATOM     26  C   UNL     1       9.188  -5.049  12.414  0.00  0.00    +0.007 A 
ATOM     27  C   UNL     1       8.376  -5.223  11.311  0.00  0.00    +0.046 A 
ATOM     28  C   UNL     1      11.375  -5.321  13.600  0.00  0.00    +0.044 C 
ENDBRANCH  21  22
ENDBRANCH  20  21
ENDBRANCH  11  15
BRANCH   1  30
ATOM     29  N   UNL     1       0.887  -5.143   5.047  0.00  0.00    -0.315 N 
ATOM     30  C   UNL     1       2.186  -5.398   4.793  0.00  0.00    +0.218 C 
ATOM     31  O   UNL     1       2.616  -5.288   3.664  0.00  0.00    -0.275 OA
ATOM     32  H   UNL     1       0.543  -5.231   5.950  0.00  0.00    +0.149 HD
BRANCH  29  33
ATOM     33  C   UNL     1      -0.005  -4.732   3.960  0.00  0.00    +0.106 C 
BRANCH  33  34
ATOM     34  C   UNL     1      -1.414  -4.507   4.514  0.00  0.00    +0.047 C 
BRANCH  34  35
ATOM     35  C   UNL     1      -2.346  -4.078   3.379  0.00  0.00    +0.161 C 
BRANCH  35  36
ATOM     36  O   UNL     1      -3.661  -3.868   3.896  0.00  0.00    -0.380 OA
BRANCH  36  38
ATOM     37  C   UNL     1      -5.980  -3.268   3.575  0.00  0.00    +0.034 C 
ATOM     38  C   UNL     1      -4.615  -3.462   2.912  0.00  0.00    +0.156 C 
ENDBRANCH  36  38
ENDBRANCH  35  36
ENDBRANCH  34  35
ENDBRANCH  33  34
ENDBRANCH  29  33
ENDBRANCH   1  30
TORSDOF 9
