REMARK  Name = ZINC37867322
REMARK  14 active torsions:
REMARK  status: ('A' for Active; 'I' for Inactive)
REMARK    1  A    between atoms: C_1  and  C_2
REMARK    2  A    between atoms: C_2  and  C_3
REMARK    3  A    between atoms: N_5  and  C_6
REMARK    4  A    between atoms: C_6  and  C_7
REMARK    5  A    between atoms: C_7  and  C_8
REMARK    6  A    between atoms: C_8  and  C_9
REMARK    7  A    between atoms: C_9  and  C_10
REMARK    8  A    between atoms: C_10  and  C_12
REMARK    9  A    between atoms: C_10  and  N_27
REMARK   10  A    between atoms: C_19  and  C_26
REMARK   11  A    between atoms: C_21  and  O_22
REMARK   12  A    between atoms: C_28  and  O_30
REMARK   13  A    between atoms: O_30  and  C_31
REMARK   14  A    between atoms: C_31  and  C_32
REMARK                            x       y       z     vdW  Elec       q    Type
REMARK                         _______ _______ _______ _____ _____    ______ ____
ROOT
ATOM      1  C   UNL     1      -6.460  -6.524  -0.148  0.00  0.00    +0.162 C 
ENDROOT
BRANCH   1   2
ATOM      2  C   UNL     1      -6.186  -8.005  -0.206  0.00  0.00    +0.238 C 
ATOM      3  O   UNL     1      -6.446  -8.710   0.753  0.00  0.00    -0.273 OA
ATOM      4  N   UNL     1      -5.665  -8.537  -1.294  0.00  0.00    -0.284 N 
ATOM      5  C   UNL     1      -5.547  -9.889  -1.401  0.00  0.00    +0.037 A 
ATOM      6  C   UNL     1      -4.697 -10.441  -2.375  0.00  0.00    +0.024 A 
ATOM      7  C   UNL     1      -4.571 -11.789  -2.492  0.00  0.00    +0.013 A 
ATOM      8  C   UNL     1      -5.293 -12.639  -1.635  0.00  0.00    +0.021 A 
ATOM      9  C   UNL     1      -5.175 -14.041  -1.740  0.00  0.00    -0.033 A 
ATOM     10  C   UNL     1      -5.905 -14.831  -0.875  0.00  0.00    +0.091 A 
ATOM     11  C   UNL     1      -6.731 -14.240   0.070  0.00  0.00    +0.285 A 
ATOM     12  O   UNL     1      -6.840 -12.911   0.167  0.00  0.00    -0.425 OA
ATOM     13  C   UNL     1      -6.149 -12.092  -0.654  0.00  0.00    +0.141 A 
ATOM     14  C   UNL     1      -6.267 -10.719  -0.540  0.00  0.00    +0.070 A 
ATOM     15  C   UNL     1      -4.272 -14.662  -2.775  0.00  0.00    +0.045 C 
ATOM     16  H   UNL     1      -5.366  -7.965  -2.018  0.00  0.00    +0.155 HD
BRANCH  11  17
ATOM     17  O   UNL     1      -7.438 -15.022   0.909  0.00  0.00    -0.480 OA
ATOM     18  H   UNL     1      -7.987 -14.531   1.535  0.00  0.00    +0.295 HD
ENDBRANCH  11  17
ENDBRANCH   1   2
BRANCH   1  19
ATOM     19  N   UNL     1      -7.439  -6.249   0.907  0.00  0.00    -0.270 N 
ATOM     20  C   UNL     1      -7.163  -6.579   2.184  0.00  0.00    +0.401 C 
ATOM     21  O   UNL     1      -6.103  -7.105   2.461  0.00  0.00    -0.226 OA
ATOM     22  H   UNL     1      -8.285  -5.830   0.686  0.00  0.00    +0.153 HD
BRANCH  20  23
ATOM     23  O   UNL     1      -8.063  -6.327   3.154  0.00  0.00    -0.446 OA
BRANCH  23  24
ATOM     24  C   UNL     1      -7.704  -6.703   4.485  0.00  0.00    +0.269 C 
BRANCH  24  25
ATOM     25  C   UNL     1      -8.825  -6.346   5.427  0.00  0.00    -0.010 A 
ATOM     26  C   UNL     1      -8.853  -5.101   6.028  0.00  0.00    +0.007 A 
ATOM     27  C   UNL     1      -9.881  -4.774   6.892  0.00  0.00    +0.000 A 
ATOM     28  C   UNL     1     -10.882  -5.690   7.155  0.00  0.00    +0.000 A 
ATOM     29  C   UNL     1     -10.854  -6.935   6.553  0.00  0.00    +0.000 A 
ATOM     30  C   UNL     1      -9.829  -7.261   5.686  0.00  0.00    +0.007 A 
ENDBRANCH  24  25
ENDBRANCH  23  24
ENDBRANCH  20  23
ENDBRANCH   1  19
BRANCH   1  31
ATOM     31  C   UNL     1      -5.161  -5.776   0.155  0.00  0.00    +0.032 C 
BRANCH  31  32
ATOM     32  C   UNL     1      -5.413  -4.268   0.090  0.00  0.00    +0.004 C 
BRANCH  32  33
ATOM     33  C   UNL     1      -4.113  -3.520   0.393  0.00  0.00    +0.019 C 
BRANCH  33  34
ATOM     34  C   UNL     1      -4.365  -2.013   0.329  0.00  0.00    +0.104 C 
BRANCH  34  37
ATOM     35  C   UNL     1      -3.103   0.051   0.618  0.00  0.00    +0.213 C 
ATOM     36  O   UNL     1      -4.117   0.671   0.378  0.00  0.00    -0.276 OA
ATOM     37  N   UNL     1      -3.121  -1.296   0.619  0.00  0.00    -0.315 N 
ATOM     38  H   UNL     1      -2.309  -1.792   0.811  0.00  0.00    +0.149 HD
BRANCH  35  40
ATOM     39  C   UNL     1      -2.075   2.296   0.852  0.00  0.00    +0.013 C 
ATOM     40  C   UNL     1      -1.823   0.788   0.916  0.00  0.00    +0.092 C 
ENDBRANCH  35  40
ENDBRANCH  34  37
ENDBRANCH  33  34
ENDBRANCH  32  33
ENDBRANCH  31  32
ENDBRANCH   1  31
TORSDOF 12
