REMARK  Name = ZINC35458207
REMARK  15 active torsions:
REMARK  status: ('A' for Active; 'I' for Inactive)
REMARK    1  A    between atoms: C_3  and  O_39
REMARK    2  A    between atoms: C_6  and  C_7
REMARK    3  A    between atoms: C_8  and  C_9
REMARK    4  A    between atoms: C_9  and  O_11
REMARK    5  A    between atoms: O_11  and  C_12
REMARK    6  A    between atoms: C_12  and  C_13
REMARK    7  A    between atoms: C_15  and  O_38
REMARK    8  A    between atoms: C_17  and  O_37
REMARK    9  A    between atoms: C_19  and  O_36
REMARK   10  A    between atoms: C_21  and  O_24
REMARK   11  A    between atoms: O_24  and  C_25
REMARK   12  A    between atoms: C_25  and  C_27
REMARK   13  A    between atoms: C_29  and  O_35
REMARK   14  A    between atoms: C_30  and  O_34
REMARK   15  A    between atoms: C_31  and  O_33
REMARK                            x       y       z     vdW  Elec       q    Type
REMARK                         _______ _______ _______ _____ _____    ______ ____
ROOT
ATOM      1  C   UNL     1      -3.473  -6.369   0.002  0.00  0.00    +0.191 C 
ATOM      2  C   UNL     1      -4.821  -7.083  -0.113  0.00  0.00    +0.178 C 
ATOM      3  C   UNL     1      -4.594  -8.597  -0.062  0.00  0.00    +0.180 C 
ATOM      4  C   UNL     1      -3.859  -8.949   1.235  0.00  0.00    +0.214 C 
ATOM      5  C   UNL     1      -2.547  -8.162   1.298  0.00  0.00    +0.343 C 
ATOM      6  O   UNL     1      -2.828  -6.763   1.215  0.00  0.00    -0.330 OA
ENDROOT
BRANCH   4   7
ATOM      7  O   UNL     1      -4.677  -8.607   2.355  0.00  0.00    -0.383 OA
ATOM      8  H   UNL     1      -4.274  -8.803   3.212  0.00  0.00    +0.210 HD
ENDBRANCH   4   7
BRANCH   3   9
ATOM      9  O   UNL     1      -5.853  -9.271  -0.098  0.00  0.00    -0.386 OA
ATOM     10  H   UNL     1      -5.784 -10.236  -0.069  0.00  0.00    +0.210 HD
ENDBRANCH   3   9
BRANCH   2  11
ATOM     11  O   UNL     1      -5.665  -6.689   0.971  0.00  0.00    -0.386 OA
ATOM     12  H   UNL     1      -6.538  -7.105   0.961  0.00  0.00    +0.210 HD
ENDBRANCH   2  11
BRANCH   1  13
ATOM     13  C   UNL     1      -3.696  -4.855   0.013  0.00  0.00    +0.266 C 
BRANCH  13  14
ATOM     14  O   UNL     1      -2.434  -4.186   0.004  0.00  0.00    -0.459 OA
BRANCH  14  15
ATOM     15  C   UNL     1      -2.455  -2.837   0.011  0.00  0.00    +0.332 C 
ATOM     16  O   UNL     1      -3.517  -2.246   0.025  0.00  0.00    -0.246 OA
BRANCH  15  18
ATOM     17  C   UNL     1      -1.259  -0.759   0.011  0.00  0.00    +0.015 C 
ATOM     18  C   UNL     1      -1.238  -2.109   0.003  0.00  0.00    +0.092 C 
BRANCH  17  24
ATOM     19  C   UNL     1      -0.017   1.396   0.010  0.00  0.00    +0.011 A 
ATOM     20  C   UNL     1       1.167   2.098   0.002  0.00  0.00    +0.046 A 
ATOM     21  C   UNL     1       2.380   1.419  -0.013  0.00  0.00    +0.117 A 
ATOM     22  C   UNL     1       2.405   0.029  -0.022  0.00  0.00    +0.046 A 
ATOM     23  C   UNL     1       1.226  -0.683  -0.014  0.00  0.00    +0.011 A 
ATOM     24  C   UNL     1       0.002  -0.004   0.002  0.00  0.00    -0.025 A 
BRANCH  21  25
ATOM     25  O   UNL     1       3.545   2.116  -0.021  0.00  0.00    -0.507 OA
ATOM     26  H   UNL     1       3.891   2.313   0.860  0.00  0.00    +0.292 HD
ENDBRANCH  21  25
ENDBRANCH  17  24
ENDBRANCH  15  18
ENDBRANCH  14  15
ENDBRANCH  13  14
ENDBRANCH   1  13
BRANCH   5  27
ATOM     27  O   UNL     1      -1.883  -8.442   2.532  0.00  0.00    -0.429 OA
BRANCH  27  28
ATOM     28  C   UNL     1      -0.658  -7.907   2.702  0.00  0.00    +0.342 C 
ATOM     29  O   UNL     1      -0.168  -7.221   1.827  0.00  0.00    -0.245 OA
BRANCH  28  30
ATOM     30  C   UNL     1       0.088  -8.154   3.951  0.00  0.00    +0.066 A 
ATOM     31  C   UNL     1      -0.473  -8.947   4.955  0.00  0.00    +0.064 A 
ATOM     32  C   UNL     1       0.228  -9.177   6.124  0.00  0.00    +0.163 A 
ATOM     33  C   UNL     1       1.491  -8.618   6.301  0.00  0.00    +0.201 A 
ATOM     34  C   UNL     1       2.052  -7.827   5.302  0.00  0.00    +0.163 A 
ATOM     35  C   UNL     1       1.358  -7.599   4.129  0.00  0.00    +0.064 A 
BRANCH  34  36
ATOM     36  O   UNL     1       3.285  -7.282   5.479  0.00  0.00    -0.503 OA
ATOM     37  H   UNL     1       4.010  -7.842   5.169  0.00  0.00    +0.292 HD
ENDBRANCH  34  36
BRANCH  33  38
ATOM     38  O   UNL     1       2.178  -8.845   7.452  0.00  0.00    -0.501 OA
ATOM     39  H   UNL     1       2.745  -9.628   7.424  0.00  0.00    +0.292 HD
ENDBRANCH  33  38
BRANCH  32  40
ATOM     40  O   UNL     1      -0.317  -9.949   7.103  0.00  0.00    -0.503 OA
ATOM     41  H   UNL     1      -0.106 -10.890   7.024  0.00  0.00    +0.292 HD
ENDBRANCH  32  40
ENDBRANCH  28  30
ENDBRANCH  27  28
ENDBRANCH   5  27
TORSDOF 15
