REMARK  Name = ZINC63491764
REMARK  11 active torsions:
REMARK  status: ('A' for Active; 'I' for Inactive)
REMARK    1  A    between atoms: C_1  and  C_2
REMARK    2  A    between atoms: C_2  and  O_3
REMARK    3  A    between atoms: O_3  and  C_4
REMARK    4  A    between atoms: C_8  and  C_13
REMARK    5  A    between atoms: C_9  and  O_10
REMARK    6  A    between atoms: O_10  and  C_11
REMARK    7  A    between atoms: C_11  and  C_12
REMARK    8  A    between atoms: C_13  and  C_14
REMARK    9  A    between atoms: C_29  and  C_31
REMARK   10  A    between atoms: C_34  and  S_37
REMARK   11  A    between atoms: S_37  and  C_38
REMARK                            x       y       z     vdW  Elec       q    Type
REMARK                         _______ _______ _______ _____ _____    ______ ____
ROOT
ATOM      1  C   UNL     1       3.728  -4.326  -3.504  0.00  0.00    +0.221 C 
ATOM      2  O   UNL     1       4.207  -3.937  -2.460  0.00  0.00    -0.275 OA
ATOM      3  N   UNL     1       4.530  -4.810  -4.474  0.00  0.00    -0.292 N 
ATOM      4  C   UNL     1       3.943  -5.273  -5.736  0.00  0.00    +0.113 C 
ATOM      5  C   UNL     1       4.561  -4.488  -6.907  0.00  0.00    +0.052 C 
ATOM      6  C   UNL     1       6.050  -4.456  -6.669  0.00  0.00    -0.035 C 
ATOM      7  C   UNL     1       7.071  -4.781  -7.452  0.00  0.00    -0.001 A 
ATOM      8  C   UNL     1       7.132  -5.184  -8.867  0.00  0.00    +0.010 A 
ATOM      9  C   UNL     1       8.367  -5.470  -9.356  0.00  0.00    +0.001 A 
ATOM     10  C   UNL     1       9.534  -5.396  -8.589  0.00  0.00    +0.002 A 
ATOM     11  C   UNL     1       9.573  -5.027  -7.284  0.00  0.00    +0.026 A 
ATOM     12  C   UNL     1       8.336  -4.694  -6.660  0.00  0.00    +0.043 A 
ATOM     13  N   UNL     1       8.086  -4.291  -5.449  0.00  0.00    -0.375 N 
ATOM     14  C   UNL     1       6.653  -4.016  -5.340  0.00  0.00    +0.131 C 
ATOM     15  C   UNL     1       5.984  -4.861  -4.258  0.00  0.00    +0.133 C 
ATOM     16  H   UNL     1       8.739  -4.191  -4.739  0.00  0.00    +0.160 HD
ENDROOT
BRANCH  15  17
ATOM     17  C   UNL     1       6.465  -6.286  -4.358  0.00  0.00    -0.025 A 
ATOM     18  C   UNL     1       6.228  -7.015  -5.509  0.00  0.00    +0.006 A 
ATOM     19  C   UNL     1       6.667  -8.320  -5.604  0.00  0.00    +0.015 A 
ATOM     20  C   UNL     1       7.348  -8.902  -4.541  0.00  0.00    +0.008 A 
ATOM     21  C   UNL     1       7.585  -8.166  -3.386  0.00  0.00    +0.015 A 
ATOM     22  C   UNL     1       7.148  -6.859  -3.301  0.00  0.00    +0.006 A 
BRANCH  20  23
ATOM     23  S   UNL     1       7.910 -10.568  -4.658  0.00  0.00    -0.129 S 
ATOM     24  C   UNL     1       8.722 -10.870  -3.064  0.00  0.00    +0.090 C 
ENDBRANCH  20  23
ENDBRANCH  15  17
BRANCH   1  25
ATOM     25  C   UNL     1       2.237  -4.270  -3.717  0.00  0.00    +0.135 C 
BRANCH  25  30
ATOM     26  C   UNL     1       0.863  -1.791  -1.208  0.00  0.00    +0.162 A 
ATOM     27  C   UNL     1       0.361  -2.640  -0.235  0.00  0.00    +0.049 A 
ATOM     28  C   UNL     1       0.467  -4.010  -0.391  0.00  0.00    +0.004 A 
ATOM     29  C   UNL     1       1.073  -4.535  -1.517  0.00  0.00    +0.008 A 
ATOM     30  C   UNL     1       1.577  -3.694  -2.491  0.00  0.00    +0.007 A 
ATOM     31  C   UNL     1       1.468  -2.320  -2.344  0.00  0.00    +0.165 A 
BRANCH  26  32
ATOM     32  O   UNL     1       0.759  -0.444  -1.057  0.00  0.00    -0.489 OA
BRANCH  32  34
ATOM     33  C   UNL     1       0.101   1.558   0.127  0.00  0.00    +0.048 C 
ATOM     34  C   UNL     1       0.125   0.028   0.134  0.00  0.00    +0.226 C 
ENDBRANCH  32  34
ENDBRANCH  26  32
BRANCH  31  35
ATOM     35  O   UNL     1       1.957  -1.491  -3.305  0.00  0.00    -0.488 OA
BRANCH  35  36
ATOM     36  C   UNL     1       3.318  -1.075  -3.172  0.00  0.00    +0.226 C 
ATOM     37  C   UNL     1       3.686  -0.153  -4.336  0.00  0.00    +0.048 C 
ENDBRANCH  35  36
ENDBRANCH  31  35
ENDBRANCH  25  30
ENDBRANCH   1  25
TORSDOF 8
