REMARK  Name = ZINC36514784
REMARK  21 active torsions:
REMARK  status: ('A' for Active; 'I' for Inactive)
REMARK    1  A    between atoms: C_1  and  C_2
REMARK    2  A    between atoms: C_2  and  C_3
REMARK    3  A    between atoms: C_3  and  C_4
REMARK    4  A    between atoms: C_4  and  C_5
REMARK    5  A    between atoms: C_5  and  C_6
REMARK    6  A    between atoms: C_6  and  N_7
REMARK    7  A    between atoms: N_7  and  C_8
REMARK    8  A    between atoms: C_8  and  C_10
REMARK    9  A    between atoms: C_8  and  C_17
REMARK   10  A    between atoms: C_15  and  O_16
REMARK   11  A    between atoms: N_19  and  C_20
REMARK   12  A    between atoms: C_20  and  C_21
REMARK   13  A    between atoms: C_20  and  C_22
REMARK   14  A    between atoms: C_20  and  C_23
REMARK   15  A    between atoms: C_23  and  C_24
REMARK   16  A    between atoms: C_24  and  C_25
REMARK   17  A    between atoms: C_24  and  C_26
REMARK   18  A    between atoms: C_24  and  C_27
REMARK   19  A    between atoms: C_28  and  C_30
REMARK   20  A    between atoms: C_34  and  O_37
REMARK   21  A    between atoms: C_35  and  O_36
REMARK                            x       y       z     vdW  Elec       q    Type
REMARK                         _______ _______ _______ _____ _____    ______ ____
ROOT
ATOM      1  C   UNL     1       2.388  -4.477   4.022  0.00  0.00    +0.196 C 
ENDROOT
BRANCH   1   2
ATOM      2  C   UNL     1       2.595  -5.970   4.017  0.00  0.00    +0.023 A 
ATOM      3  C   UNL     1       3.233  -6.577   2.952  0.00  0.00    +0.009 A 
ATOM      4  C   UNL     1       3.422  -7.946   2.947  0.00  0.00    +0.001 A 
ATOM      5  C   UNL     1       2.974  -8.712   4.007  0.00  0.00    +0.004 A 
ATOM      6  C   UNL     1       2.336  -8.111   5.074  0.00  0.00    +0.046 A 
ATOM      7  C   UNL     1       2.150  -6.736   5.085  0.00  0.00    +0.122 A 
BRANCH   7   8
ATOM      8  O   UNL     1       1.527  -6.141   6.136  0.00  0.00    -0.506 OA
ATOM      9  H   UNL     1       0.567  -6.075   6.039  0.00  0.00    +0.292 HD
ENDBRANCH   7   8
ENDBRANCH   1   2
BRANCH   1  10
ATOM     10  C   UNL     1       3.383  -3.836   4.954  0.00  0.00    +0.239 C 
ATOM     11  O   UNL     1       4.071  -2.915   4.567  0.00  0.00    -0.273 OA
ATOM     12  N   UNL     1       3.507  -4.284   6.219  0.00  0.00    -0.308 N 
ATOM     13  H   UNL     1       3.049  -5.094   6.494  0.00  0.00    +0.149 HD
BRANCH  12  14
ATOM     14  C   UNL     1       4.334  -3.549   7.179  0.00  0.00    +0.030 C 
ATOM     15  C   UNL     1       5.784  -3.525   6.690  0.00  0.00    +0.031 C 
ATOM     16  C   UNL     1       3.815  -2.115   7.307  0.00  0.00    +0.031 C 
BRANCH  14  17
ATOM     17  C   UNL     1       4.268  -4.239   8.543  0.00  0.00    +0.031 C 
BRANCH  17  18
ATOM     18  C   UNL     1       2.805  -4.392   8.966  0.00  0.00    -0.036 C 
ATOM     19  C   UNL     1       2.224  -5.662   8.341  0.00  0.00    +0.010 C 
ATOM     20  C   UNL     1       2.723  -4.490  10.491  0.00  0.00    +0.010 C 
ATOM     21  C   UNL     1       2.006  -3.177   8.490  0.00  0.00    +0.010 C 
ENDBRANCH  17  18
ENDBRANCH  14  17
ENDBRANCH  12  14
ENDBRANCH   1  10
BRANCH   1  22
ATOM     22  N   UNL     1       2.580  -3.954   2.667  0.00  0.00    -0.282 N 
ATOM     23  C   UNL     1       3.752  -4.146   2.030  0.00  0.00    +0.251 C 
ATOM     24  O   UNL     1       3.966  -3.591   0.970  0.00  0.00    -0.270 OA
BRANCH  23  25
ATOM     25  C   UNL     1       4.776  -5.030   2.620  0.00  0.00    +0.082 A 
ATOM     26  C   UNL     1       4.635  -5.490   3.933  0.00  0.00    +0.017 A 
ATOM     27  C   UNL     1       5.592  -6.316   4.480  0.00  0.00    +0.005 A 
ATOM     28  C   UNL     1       6.699  -6.694   3.736  0.00  0.00    +0.049 A 
ATOM     29  C   UNL     1       6.853  -6.245   2.436  0.00  0.00    +0.159 A 
ATOM     30  C   UNL     1       5.891  -5.416   1.867  0.00  0.00    +0.171 A 
BRANCH  30  31
ATOM     31  O   UNL     1       6.036  -4.979   0.590  0.00  0.00    -0.503 OA
ATOM     32  H   UNL     1       6.520  -4.145   0.512  0.00  0.00    +0.292 HD
ENDBRANCH  30  31
BRANCH  29  33
ATOM     33  O   UNL     1       7.942  -6.620   1.712  0.00  0.00    -0.503 OA
ATOM     34  H   UNL     1       7.816  -7.435   1.206  0.00  0.00    +0.292 HD
ENDBRANCH  29  33
ENDBRANCH  23  25
BRANCH  22  35
ATOM     35  C   UNL     1       1.499  -3.220   2.005  0.00  0.00    +0.109 C 
BRANCH  35  36
ATOM     36  C   UNL     1       1.549  -1.750   2.422  0.00  0.00    +0.019 C 
BRANCH  36  37
ATOM     37  C   UNL     1       0.419  -0.984   1.731  0.00  0.00    +0.002 C 
BRANCH  37  38
ATOM     38  C   UNL     1       0.470   0.487   2.148  0.00  0.00    -0.000 C 
BRANCH  38  40
ATOM     39  C   UNL     1      -0.610   2.724   1.875  0.00  0.00    +0.004 C 
ATOM     40  C   UNL     1      -0.660   1.253   1.457  0.00  0.00    -0.003 C 
ENDBRANCH  38  40
ENDBRANCH  37  38
ENDBRANCH  36  37
ENDBRANCH  35  36
ENDBRANCH  22  35
ENDBRANCH   1  22
TORSDOF 15
