REMARK  Name = ZINC41302069
REMARK  6 active torsions:
REMARK  status: ('A' for Active; 'I' for Inactive)
REMARK    1  A    between atoms: C_1  and  C_2
REMARK    2  A    between atoms: C_2  and  N_3
REMARK    3  A    between atoms: C_12  and  N_27
REMARK    4  A    between atoms: C_13  and  N_15
REMARK    5  A    between atoms: N_15  and  C_16
REMARK    6  A    between atoms: C_17  and  C_24
REMARK                            x       y       z     vdW  Elec       q    Type
REMARK                         _______ _______ _______ _____ _____    ______ ____
ROOT
ATOM      1  N   UNL     1       0.690  -0.478  -1.207  0.00  0.00    +0.382 N 
ATOM      2  C   UNL     1       2.097  -0.060  -1.163  0.00  0.00    -0.060 C 
ATOM      3  C   UNL     1       2.787  -0.454  -2.473  0.00  0.00    +0.089 C 
ATOM      4  N   UNL     1       2.587  -1.895  -2.691  0.00  0.00    -0.303 N 
ATOM      5  C   UNL     1       1.220  -2.429  -2.590  0.00  0.00    +0.089 C 
ATOM      6  C   UNL     1       0.604  -1.942  -1.274  0.00  0.00    -0.060 C 
ATOM      7  C   UNL     1       3.656  -2.725  -2.982  0.00  0.00    +0.221 A 
ATOM      8  N   UNL     1       4.872  -2.207  -3.059  0.00  0.00    -0.197 NA
ATOM      9  C   UNL     1       5.923  -2.975  -3.337  0.00  0.00    +0.154 A 
ATOM     10  C   UNL     1       5.730  -4.337  -3.547  0.00  0.00    +0.205 A 
ATOM     11  C   UNL     1       4.438  -4.845  -3.458  0.00  0.00    +0.161 A 
ATOM     12  N   UNL     1       3.435  -4.017  -3.171  0.00  0.00    -0.197 NA
ATOM     13  N   UNL     1       7.193  -2.425  -3.416  0.00  0.00    -0.341 N 
ATOM     14  H   UNL     1       7.321  -1.475  -3.269  0.00  0.00    +0.144 HD
ATOM     15  H   UNL     1       7.955  -2.990  -3.619  0.00  0.00    +0.144 HD
ATOM     16  H   UNL     1       0.248  -0.079  -2.021  0.00  0.00    -0.082 HD
ENDROOT
BRANCH  10  17
ATOM     17  N   UNL     1       6.873  -5.225  -3.859  0.00  0.00    +0.063 N 
ATOM     18  O   UNL     1       7.480  -5.766  -2.964  0.00  0.00    -0.126 OA
ATOM     19  O   UNL     1       7.199  -5.410  -5.008  0.00  0.00    -0.126 OA
ENDBRANCH  10  17
BRANCH   1  21
ATOM     20  C   UNL     1      -0.019   1.526   0.010  0.00  0.00    -0.017 C 
ATOM     21  C   UNL     1       0.002  -0.004   0.002  0.00  0.00    -0.082 C 
ENDBRANCH   1  21
BRANCH  11  22
ATOM     22  N   UNL     1       4.198  -6.197  -3.660  0.00  0.00    -0.291 N 
ATOM     23  H   UNL     1       4.933  -6.795  -3.865  0.00  0.00    +0.154 HD
BRANCH  22  24
ATOM     24  C   UNL     1       2.908  -6.691  -3.569  0.00  0.00    +0.084 A 
ATOM     25  C   UNL     1       2.485  -7.998  -3.733  0.00  0.00    +0.068 A 
ATOM     26  C   UNL     1       1.054  -8.262  -3.584  0.00  0.00    -0.023 A 
ATOM     27  C   UNL     1       0.322  -7.171  -3.301  0.00  0.00    -0.004 A 
ATOM     28  S   UNL     1       1.501  -5.846  -3.228  0.00  0.00    -0.077 S 
ATOM     29  C   UNL     1      -1.141  -7.497  -3.163  0.00  0.00    +0.043 C 
ATOM     30  C   UNL     1      -1.295  -8.886  -3.821  0.00  0.00    +0.010 C 
ATOM     31  C   UNL     1       0.123  -9.470  -3.658  0.00  0.00    +0.037 C 
BRANCH  25  32
ATOM     32  C   UNL     1       3.431  -9.073  -4.043  0.00  0.00    +0.244 C 
ATOM     33  O   UNL     1       3.963  -9.695  -3.142  0.00  0.00    -0.270 OA
ATOM     34  N   UNL     1       3.711  -9.374  -5.327  0.00  0.00    -0.325 N 
ATOM     35  H   UNL     1       3.287  -8.879  -6.045  0.00  0.00    +0.145 HD
ATOM     36  H   UNL     1       4.337 -10.086  -5.532  0.00  0.00    +0.145 HD
ENDBRANCH  25  32
ENDBRANCH  22  24
ENDBRANCH  11  22
TORSDOF 5
