REMARK  Name = ZINC46773147
REMARK  9 active torsions:
REMARK  status: ('A' for Active; 'I' for Inactive)
REMARK    1  A    between atoms: C_1  and  C_2
REMARK    2  A    between atoms: C_2  and  C_3
REMARK    3  A    between atoms: C_2  and  N_4
REMARK    4  A    between atoms: C_5  and  C_7
REMARK    5  A    between atoms: N_9  and  N_10
REMARK    6  A    between atoms: C_11  and  C_13
REMARK    7  A    between atoms: C_13  and  C_14
REMARK    8  A    between atoms: C_14  and  N_15
REMARK    9  A    between atoms: N_18  and  C_19
REMARK                            x       y       z     vdW  Elec       q    Type
REMARK                         _______ _______ _______ _____ _____    ______ ____
ROOT
ATOM      1  C   UNL     1       8.287  -2.260  -4.609  0.00  0.00    +0.115 C 
ENDROOT
BRANCH   1   2
ATOM      2  N   UNL     1       8.973  -2.732  -5.814  0.00  0.00    -0.299 N 
ATOM      3  C   UNL     1      10.316  -2.843  -5.826  0.00  0.00    +0.300 C 
ATOM      4  O   UNL     1      10.958  -2.550  -4.836  0.00  0.00    -0.253 OA
ATOM      5  N   UNL     1      10.947  -3.278  -6.935  0.00  0.00    -0.294 N 
ATOM      6  H   UNL     1       8.460  -2.966  -6.604  0.00  0.00    +0.150 HD
ATOM      7  H   UNL     1      10.434  -3.511  -7.725  0.00  0.00    +0.151 HD
BRANCH   5   8
ATOM      8  C   UNL     1      12.407  -3.398  -6.948  0.00  0.00    +0.037 C 
ATOM      9  C   UNL     1      13.033  -2.028  -6.679  0.00  0.00    +0.029 C 
ATOM     10  C   UNL     1      14.558  -2.153  -6.692  0.00  0.00    -0.008 C 
ATOM     11  C   UNL     1      15.016  -2.664  -8.059  0.00  0.00    +0.007 C 
ATOM     12  C   UNL     1      14.389  -4.034  -8.328  0.00  0.00    -0.008 C 
ATOM     13  C   UNL     1      12.864  -3.908  -8.315  0.00  0.00    +0.029 C 
ATOM     14  C   UNL     1      14.829  -5.018  -7.243  0.00  0.00    +0.007 C 
ATOM     15  C   UNL     1      14.372  -4.507  -5.875  0.00  0.00    -0.008 C 
ATOM     16  C   UNL     1      14.998  -3.138  -5.606  0.00  0.00    +0.007 C 
ATOM     17  C   UNL     1      12.847  -4.382  -5.862  0.00  0.00    +0.029 C 
ENDBRANCH   5   8
ENDBRANCH   1   2
BRANCH   1  18
ATOM     18  C   UNL     1       6.778  -2.228  -4.860  0.00  0.00    +0.116 C 
BRANCH  18  20
ATOM     19  N   UNL     1       4.729  -1.631  -3.609  0.00  0.00    -0.234 N 
ATOM     20  C   UNL     1       6.073  -1.742  -3.620  0.00  0.00    +0.231 C 
ATOM     21  O   UNL     1       6.714  -1.450  -2.633  0.00  0.00    -0.274 OA
ATOM     22  H   UNL     1       4.217  -1.865  -4.399  0.00  0.00    +0.173 HD
BRANCH  19  25
ATOM     23  C   UNL     1       2.731  -1.069  -2.445  0.00  0.00    +0.315 C 
ATOM     24  O   UNL     1       2.089  -1.361  -3.433  0.00  0.00    -0.264 OA
ATOM     25  N   UNL     1       4.074  -1.179  -2.456  0.00  0.00    -0.227 N 
ATOM     26  H   UNL     1       4.586  -0.946  -1.667  0.00  0.00    +0.173 HD
BRANCH  23  28
ATOM     27  N   UNL     1       0.688  -0.476  -1.203  0.00  0.00    -0.305 N 
ATOM     28  C   UNL     1       2.031  -0.587  -1.215  0.00  0.00    +0.301 C 
ATOM     29  O   UNL     1       2.672  -0.295  -0.227  0.00  0.00    -0.265 OA
ATOM     30  H   UNL     1       0.175  -0.710  -1.993  0.00  0.00    +0.149 HD
BRANCH  27  32
ATOM     31  C   UNL     1      -0.019   1.526   0.010  0.00  0.00    +0.027 C 
ATOM     32  C   UNL     1       0.002  -0.004   0.002  0.00  0.00    +0.067 C 
ATOM     33  C   UNL     1      -1.433  -0.534   0.013  0.00  0.00    +0.027 C 
ENDBRANCH  27  32
ENDBRANCH  23  28
ENDBRANCH  19  25
ENDBRANCH  18  20
ENDBRANCH   1  18
TORSDOF 7
