REMARK  Name = ZINC06136115
REMARK  7 active torsions:
REMARK  status: ('A' for Active; 'I' for Inactive)
REMARK    1  A    between atoms: C_1  and  O_2
REMARK    2  A    between atoms: O_2  and  C_3
REMARK    3  A    between atoms: C_3  and  C_5
REMARK    4  A    between atoms: C_16  and  S_21
REMARK    5  A    between atoms: S_21  and  C_22
REMARK    6  A    between atoms: C_27  and  N_28
REMARK    7  A    between atoms: C_31  and  C_34
REMARK                            x       y       z     vdW  Elec       q    Type
REMARK                         _______ _______ _______ _____ _____    ______ ____
ROOT
ATOM      1  C   UNL     1       1.361   5.363   1.814  0.00  0.00    +0.059 A 
ATOM      2  C   UNL     1       0.417   6.393   1.871  0.00  0.00    +0.017 A 
ATOM      3  C   UNL     1      -0.909   6.106   1.727  0.00  0.00    +0.024 A 
ATOM      4  C   UNL     1      -1.327   4.792   1.524  0.00  0.00    +0.031 A 
ATOM      5  C   UNL     1      -0.402   3.759   1.465  0.00  0.00    -0.021 A 
ATOM      6  C   UNL     1       0.943   4.046   1.611  0.00  0.00    +0.020 A 
ATOM      7  C   UNL     1      -0.800   2.325   1.248  0.00  0.00    +0.045 C 
ATOM      8  C   UNL     1      -2.268   2.208   0.792  0.00  0.00    +0.024 C 
ATOM      9  C   UNL     1      -2.254   2.589  -0.698  0.00  0.00    +0.022 C 
ATOM     10  C   UNL     1      -0.819   2.335  -1.196  0.00  0.00    +0.070 C 
ATOM     11  C   UNL     1      -0.022   1.799   0.012  0.00  0.00    +0.101 C 
ATOM     12 CL   UNL     1       0.002  -0.004   0.002  0.00  0.00    -0.120 Cl
ATOM     13  C   UNL     1      -3.160   3.157   1.582  0.00  0.00    +0.104 C 
ATOM     14  N   UNL     1      -2.688   4.532   1.382  0.00  0.00    -0.336 N 
ATOM     15  H   UNL     1      -3.309   5.242   1.156  0.00  0.00    +0.147 HD
ENDROOT
BRANCH  13  16
ATOM     16  C   UNL     1      -4.581   3.035   1.096  0.00  0.00    -0.027 A 
ATOM     17  C   UNL     1      -4.975   3.689  -0.057  0.00  0.00    +0.008 A 
ATOM     18  C   UNL     1      -6.277   3.575  -0.506  0.00  0.00    +0.038 A 
ATOM     19  C   UNL     1      -7.190   2.813   0.204  0.00  0.00    +0.123 A 
ATOM     20  C   UNL     1      -6.795   2.163   1.361  0.00  0.00    +0.038 A 
ATOM     21  C   UNL     1      -5.492   2.275   1.806  0.00  0.00    +0.008 A 
ATOM     22  F   UNL     1      -8.464   2.704  -0.232  0.00  0.00    -0.205 F 
ENDBRANCH  13  16
BRANCH   1  23
ATOM     23  C   UNL     1       2.795   5.666   1.970  0.00  0.00    +0.339 C 
ATOM     24  O   UNL     1       3.614   4.770   1.920  0.00  0.00    -0.245 OA
BRANCH  23  26
ATOM     25  C   UNL     1       4.625   7.161   2.312  0.00  0.00    +0.280 C 
ATOM     26  O   UNL     1       3.198   6.937   2.167  0.00  0.00    -0.464 OA
ENDBRANCH  23  26
ENDBRANCH   1  23
BRANCH  10  27
ATOM     27  S   UNL     1      -0.831   1.104  -2.528  0.00  0.00    -0.118 S 
BRANCH  27  28
ATOM     28  C   UNL     1       0.852   1.016  -3.043  0.00  0.00    +0.038 A 
ATOM     29  C   UNL     1       1.812   1.808  -2.424  0.00  0.00    +0.017 A 
ATOM     30  C   UNL     1       3.130   1.738  -2.831  0.00  0.00    +0.001 A 
ATOM     31  C   UNL     1       3.495   0.880  -3.853  0.00  0.00    +0.002 A 
ATOM     32  C   UNL     1       2.542   0.091  -4.471  0.00  0.00    +0.034 A 
ATOM     33  C   UNL     1       1.224   0.152  -4.066  0.00  0.00    +0.140 A 
BRANCH  33  34
ATOM     34  N   UNL     1       0.206  -0.698  -4.724  0.00  0.00    +0.058 N 
ATOM     35  O   UNL     1       0.533  -1.456  -5.620  0.00  0.00    -0.126 OA
ATOM     36  O   UNL     1      -0.958  -0.640  -4.370  0.00  0.00    -0.126 OA
ENDBRANCH  33  34
ENDBRANCH  27  28
ENDBRANCH  10  27
TORSDOF 6
