REMARK  Name = ZINC39531075
REMARK  9 active torsions:
REMARK  status: ('A' for Active; 'I' for Inactive)
REMARK    1  A    between atoms: C_1  and  O_2
REMARK    2  A    between atoms: O_2  and  C_3
REMARK    3  A    between atoms: N_6  and  C_10
REMARK    4  A    between atoms: C_10  and  C_12
REMARK    5  A    between atoms: C_10  and  C_15
REMARK    6  A    between atoms: C_12  and  N_13
REMARK    7  A    between atoms: N_13  and  O_14
REMARK    8  A    between atoms: C_18  and  C_21
REMARK    9  A    between atoms: C_21  and  C_22
REMARK                            x       y       z     vdW  Elec       q    Type
REMARK                         _______ _______ _______ _____ _____    ______ ____
ROOT
ATOM      1  C   UNL     1       0.629  -4.064  -2.520  0.00  0.00    -0.021 C 
ENDROOT
BRANCH   1   4
ATOM      2  C   UNL     1       0.785  -0.460  -1.483  0.00  0.00    +0.169 C 
ATOM      3  C   UNL     1       0.427  -1.946  -1.413  0.00  0.00    -0.030 C 
ATOM      4  N   UNL     1       0.989  -2.641  -2.578  0.00  0.00    +0.388 N 
ATOM      5  C   UNL     1       2.451  -2.506  -2.573  0.00  0.00    -0.062 C 
ATOM      6  C   UNL     1       2.827  -1.024  -2.653  0.00  0.00    +0.065 C 
ATOM      7  N   UNL     1       2.247  -0.312  -1.505  0.00  0.00    -0.295 NA
ATOM      8  H   UNL     1       2.512   0.661  -1.512  0.00  0.00    +0.124 HD
ATOM      9  H   UNL     1       0.617  -2.235  -3.424  0.00  0.00    -0.081 HD
BRANCH   2  11
ATOM     10  C   UNL     1       0.233   1.636  -0.460  0.00  0.00    +0.196 C 
ATOM     11  O   UNL     1       0.255   0.212  -0.339  0.00  0.00    -0.367 OA
ENDBRANCH   2  11
ENDBRANCH   1   4
BRANCH   1  12
ATOM     12  C   UNL     1       1.235  -4.784  -3.697  0.00  0.00    -0.060 A 
ATOM     13  C   UNL     1       1.253  -4.181  -4.941  0.00  0.00    +0.002 A 
ATOM     14  C   UNL     1       1.809  -4.842  -6.021  0.00  0.00    +0.004 A 
ATOM     15  C   UNL     1       2.347  -6.105  -5.857  0.00  0.00    -0.043 A 
ATOM     16  C   UNL     1       2.329  -6.707  -4.613  0.00  0.00    +0.004 A 
ATOM     17  C   UNL     1       1.777  -6.045  -3.532  0.00  0.00    +0.002 A 
BRANCH  15  18
ATOM     18  C   UNL     1       2.952  -6.825  -7.034  0.00  0.00    +0.070 C 
BRANCH  18  19
ATOM     19  C   UNL     1       4.418  -6.488  -7.130  0.00  0.00    -0.043 A 
ATOM     20  C   UNL     1       4.829  -5.398  -7.874  0.00  0.00    +0.004 A 
ATOM     21  C   UNL     1       6.174  -5.089  -7.962  0.00  0.00    +0.000 A 
ATOM     22  C   UNL     1       7.107  -5.870  -7.305  0.00  0.00    +0.000 A 
ATOM     23  C   UNL     1       6.695  -6.960  -6.561  0.00  0.00    +0.000 A 
ATOM     24  C   UNL     1       5.350  -7.266  -6.470  0.00  0.00    +0.004 A 
ENDBRANCH  18  19
ENDBRANCH  15  18
ENDBRANCH   1  12
BRANCH   1  25
ATOM     25  C   UNL     1      -0.894  -4.208  -2.563  0.00  0.00    +0.100 C 
BRANCH  25  26
ATOM     26  N   UNL     1      -1.256  -5.625  -2.432  0.00  0.00    -0.205 NA
ATOM     27  H   UNL     1      -0.940  -5.999  -1.550  0.00  0.00    +0.153 HD
BRANCH  26  28
ATOM     28  O   UNL     1      -2.697  -5.815  -2.595  0.00  0.00    -0.315 OA
ATOM     29  H   UNL     1      -2.984  -6.735  -2.517  0.00  0.00    +0.236 HD
ENDBRANCH  26  28
ENDBRANCH  25  26
ENDBRANCH   1  25
TORSDOF 8
