REMARK  Name = ZINC24833440
REMARK  9 active torsions:
REMARK  status: ('A' for Active; 'I' for Inactive)
REMARK    1  A    between atoms: C_1  and  C_2
REMARK    2  A    between atoms: C_2  and  O_3
REMARK    3  A    between atoms: O_3  and  C_4
REMARK    4  A    between atoms: C_7  and  C_25
REMARK    5  A    between atoms: C_9  and  C_10
REMARK    6  A    between atoms: C_10  and  N_11
REMARK    7  A    between atoms: C_20  and  C_22
REMARK    8  A    between atoms: C_25  and  C_27
REMARK    9  A    between atoms: C_25  and  O_28
REMARK                            x       y       z     vdW  Elec       q    Type
REMARK                         _______ _______ _______ _____ _____    ______ ____
ROOT
ATOM      1  N   UNL     1      -1.308   6.021  -0.161  0.00  0.00    +0.393 N 
ATOM      2  C   UNL     1      -0.070   5.448   0.376  0.00  0.00    -0.041 C 
ATOM      3  C   UNL     1      -0.033   3.960   0.145  0.00  0.00    -0.061 A 
ATOM      4  C   UNL     1       1.186   3.306   0.245  0.00  0.00    +0.002 A 
ATOM      5  C   UNL     1       1.265   1.943   0.046  0.00  0.00    +0.000 A 
ATOM      6  C   UNL     1       0.123   1.224  -0.254  0.00  0.00    +0.000 A 
ATOM      7  C   UNL     1      -1.090   1.873  -0.360  0.00  0.00    +0.004 A 
ATOM      8  C   UNL     1      -1.171   3.243  -0.157  0.00  0.00    -0.047 A 
ATOM      9  C   UNL     1      -2.517   3.910  -0.282  0.00  0.00    +0.029 C 
ATOM     10  C   UNL     1      -2.475   5.295   0.364  0.00  0.00    +0.024 C 
ATOM     11  H   UNL     1      -1.292   5.912  -1.256  0.00  0.00    -0.080 HD
ENDROOT
BRANCH  10  12
ATOM     12  C   UNL     1      -3.735   6.051   0.031  0.00  0.00    +0.197 C 
ATOM     13  O   UNL     1      -3.819   6.659  -1.016  0.00  0.00    -0.278 OA
ATOM     14  N   UNL     1      -4.769   6.054   0.896  0.00  0.00    -0.331 N 
ATOM     15  H   UNL     1      -5.688   6.606   0.652  0.00  0.00    +0.145 HD
ATOM     16  H   UNL     1      -4.693   5.503   1.845  0.00  0.00    +0.145 HD
ENDBRANCH  10  12
BRANCH   1  17
ATOM     17  C   UNL     1      -1.400   7.455   0.142  0.00  0.00    -0.038 C 
BRANCH  17  23
ATOM     18  C   UNL     1      -0.462   8.500  -1.935  0.00  0.00    +0.122 A 
ATOM     19  C   UNL     1       0.541   9.185  -2.606  0.00  0.00    +0.046 A 
ATOM     20  C   UNL     1       1.692   9.552  -1.937  0.00  0.00    +0.010 A 
ATOM     21  C   UNL     1       1.842   9.242  -0.597  0.00  0.00    -0.019 A 
ATOM     22  C   UNL     1       0.842   8.564   0.075  0.00  0.00    +0.011 A 
ATOM     23  C   UNL     1      -0.311   8.195  -0.591  0.00  0.00    -0.022 A 
BRANCH  21  24
ATOM     24  C   UNL     1       3.099   9.643   0.131  0.00  0.00    +0.141 C 
ATOM     25  C   UNL     1       2.962  11.083   0.630  0.00  0.00    +0.043 C 
BRANCH  24  26
ATOM     26  O   UNL     1       4.215   9.552  -0.758  0.00  0.00    -0.387 OA
ATOM     27  H   UNL     1       5.224   9.807  -0.403  0.00  0.00    +0.210 HD
ENDBRANCH  24  26
ENDBRANCH  21  24
BRANCH  18  28
ATOM     28  O   UNL     1      -1.593   8.132  -2.593  0.00  0.00    -0.492 OA
BRANCH  28  30
ATOM     29  C   UNL     1      -3.014   7.987  -4.543  0.00  0.00    +0.048 C 
ATOM     30  C   UNL     1      -1.681   8.480  -3.977  0.00  0.00    +0.225 C 
ENDBRANCH  28  30
ENDBRANCH  18  28
ENDBRANCH  17  23
ENDBRANCH   1  17
TORSDOF 7
