REMARK  Name = ZINC49554834
REMARK  10 active torsions:
REMARK  status: ('A' for Active; 'I' for Inactive)
REMARK    1  A    between atoms: C_1  and  C_2
REMARK    2  A    between atoms: C_2  and  C_4
REMARK    3  A    between atoms: C_2  and  N_9
REMARK    4  A    between atoms: C_4  and  C_5
REMARK    5  A    between atoms: C_5  and  N_6
REMARK    6  A    between atoms: N_6  and  C_7
REMARK    7  A    between atoms: N_6  and  C_8
REMARK    8  A    between atoms: N_9  and  S_10
REMARK    9  A    between atoms: S_10  and  C_13
REMARK   10  A    between atoms: C_15  and  N_21
REMARK                            x       y       z     vdW  Elec       q    Type
REMARK                         _______ _______ _______ _____ _____    ______ ____
ROOT
ATOM      1  S   UNL     1       2.288  -0.978   1.069  0.00  0.00    +0.060 S 
ATOM      2  O   UNL     1       3.105   0.052   0.530  0.00  0.00    -0.153 OA
ATOM      3  O   UNL     1       2.521  -1.542   2.353  0.00  0.00    -0.153 OA
ENDROOT
BRANCH   1   4
ATOM      4  C   UNL     1       2.335  -2.311  -0.082  0.00  0.00    +0.125 A 
ATOM      5  C   UNL     1       3.100  -2.207  -1.228  0.00  0.00    +0.055 A 
ATOM      6  C   UNL     1       3.137  -3.257  -2.135  0.00  0.00    +0.062 A 
ATOM      7  C   UNL     1       2.403  -4.413  -1.886  0.00  0.00    +0.145 A 
ATOM      8  C   UNL     1       1.640  -4.511  -0.738  0.00  0.00    +0.062 A 
ATOM      9  C   UNL     1       1.610  -3.463   0.166  0.00  0.00    +0.070 A 
ATOM     10 CL   UNL     1       0.656  -3.592   1.611  0.00  0.00    -0.081 Cl
ATOM     11  F   UNL     1       2.436  -5.437  -2.767  0.00  0.00    -0.204 F 
BRANCH   6  12
ATOM     12  N   UNL     1       3.910  -3.154  -3.296  0.00  0.00    -0.356 N 
ATOM     13  H   UNL     1       4.421  -2.347  -3.468  0.00  0.00    +0.142 HD
ATOM     14  H   UNL     1       3.935  -3.888  -3.929  0.00  0.00    +0.142 HD
ENDBRANCH   6  12
ENDBRANCH   1   4
BRANCH   1  15
ATOM     15  N   UNL     1       0.738  -0.396   1.082  0.00  0.00    -0.187 NA
ATOM     16  H   UNL     1       0.196  -0.479   1.882  0.00  0.00    +0.148 HD
BRANCH  15  18
ATOM     17  C   UNL     1       0.377   1.759  -0.017  0.00  0.00    +0.025 C 
ATOM     18  C   UNL     1       0.186   0.244  -0.115  0.00  0.00    +0.072 C 
BRANCH  18  19
ATOM     19  C   UNL     1      -1.306  -0.077  -0.222  0.00  0.00    +0.001 C 
BRANCH  19  20
ATOM     20  C   UNL     1      -1.490  -1.579  -0.445  0.00  0.00    -0.078 C 
BRANCH  20  21
ATOM     21  N   UNL     1      -2.923  -1.887  -0.548  0.00  0.00    +0.376 N 
ATOM     22  C   UNL     1      -3.477  -1.245  -1.748  0.00  0.00    -0.097 C 
ATOM     23  C   UNL     1      -3.106  -3.341  -0.641  0.00  0.00    -0.097 C 
ATOM     24  H   UNL     1      -3.401  -1.540   0.270  0.00  0.00    -0.083 HD
ENDBRANCH  20  21
ENDBRANCH  19  20
ENDBRANCH  18  19
ENDBRANCH  15  18
ENDBRANCH   1  15
TORSDOF 7
