REMARK  Name = ZINC37016079
REMARK  3 active torsions:
REMARK  status: ('A' for Active; 'I' for Inactive)
REMARK    1  A    between atoms: C_3  and  N_9
REMARK    2  A    between atoms: C_10  and  C_12
REMARK    3  A    between atoms: C_15  and  O_19
REMARK                            x       y       z     vdW  Elec       q    Type
REMARK                         _______ _______ _______ _____ _____    ______ ____
ROOT
ATOM      1  N   UNL     1       3.584   2.126  -0.021  0.00  0.00    -0.286 N 
ATOM      2  C   UNL     1       3.568   3.470  -0.116  0.00  0.00    +0.203 C 
ATOM      3  O   UNL     1       2.512   4.067  -0.103  0.00  0.00    -0.277 OA
ATOM      4  H   UNL     1       4.430   1.654   0.034  0.00  0.00    +0.155 HD
ENDROOT
BRANCH   1   7
ATOM      5  C   UNL     1       0.075   1.243   0.633  0.00  0.00    +0.017 A 
ATOM      6  C   UNL     1       1.261   1.950   0.616  0.00  0.00    +0.025 A 
ATOM      7  C   UNL     1       2.381   1.411  -0.003  0.00  0.00    +0.047 A 
ATOM      8  C   UNL     1       2.304   0.161  -0.604  0.00  0.00    +0.040 A 
ATOM      9  C   UNL     1       1.115  -0.542  -0.584  0.00  0.00    +0.032 A 
ATOM     10  C   UNL     1       0.001  -0.002   0.034  0.00  0.00    +0.019 A 
ATOM     11 BR   UNL     1      -1.625  -0.966   0.059  0.00  0.00    -0.050 Br
ATOM     12 BR   UNL     1       3.826  -0.578  -1.449  0.00  0.00    -0.048 Br
ENDBRANCH   1   7
BRANCH   2  13
ATOM     13  C   UNL     1       4.862   4.233  -0.238  0.00  0.00    +0.019 C 
ATOM     14  C   UNL     1       5.359   4.221  -1.706  0.00  0.00    +0.023 C 
ATOM     15  C   UNL     1       6.247   5.492  -1.746  0.00  0.00    +0.097 C 
ATOM     16  C   UNL     1       5.496   6.471  -0.820  0.00  0.00    -0.050 C 
ATOM     17  N   UNL     1       4.650   5.661   0.079  0.00  0.00    +0.388 N 
ATOM     18  H   UNL     1       3.680   5.900  -0.062  0.00  0.00    -0.085 HD
ATOM     19  H   UNL     1       4.906   5.837   1.039  0.00  0.00    -0.085 HD
BRANCH  15  20
ATOM     20  O   UNL     1       6.327   6.010  -3.076  0.00  0.00    -0.394 OA
ATOM     21  H   UNL     1       6.872   6.805  -3.156  0.00  0.00    +0.210 HD
ENDBRANCH  15  20
ENDBRANCH   2  13
TORSDOF 3
