REMARK  Name = ZINC09846589
REMARK  10 active torsions:
REMARK  status: ('A' for Active; 'I' for Inactive)
REMARK    1  A    between atoms: C_1  and  O_2
REMARK    2  A    between atoms: O_2  and  C_3
REMARK    3  A    between atoms: C_8  and  C_9
REMARK    4  A    between atoms: C_9  and  C_11
REMARK    5  A    between atoms: C_9  and  N_67
REMARK    6  A    between atoms: C_11  and  N_12
REMARK    7  A    between atoms: C_13  and  C_15
REMARK    8  A    between atoms: N_18  and  S_21
REMARK    9  A    between atoms: S_21  and  C_24
REMARK   10  A    between atoms: C_27  and  C_30
REMARK                            x       y       z     vdW  Elec       q    Type
REMARK                         _______ _______ _______ _____ _____    ______ ____
ROOT
ATOM      1  N   UNL     1       0.045   0.072   0.657  0.00  0.00    -0.316 N 
ATOM      2  C   UNL     1      -1.033  -0.550   1.174  0.00  0.00    +0.216 C 
ATOM      3  O   UNL     1      -2.009   0.095   1.496  0.00  0.00    -0.276 OA
ATOM      4  H   UNL     1       0.825  -0.443   0.399  0.00  0.00    +0.149 HD
ENDROOT
BRANCH   2   5
ATOM      5  C   UNL     1      -1.026  -2.046   1.353  0.00  0.00    +0.077 C 
ATOM      6  C   UNL     1      -0.825  -2.721  -0.006  0.00  0.00    +0.030 C 
ATOM      7  C   UNL     1      -0.784  -4.240   0.183  0.00  0.00    +0.110 C 
ATOM      8  N   UNL     1      -2.001  -4.661   0.892  0.00  0.00    -0.177 NA
ATOM      9  C   UNL     1      -2.337  -4.011   2.166  0.00  0.00    +0.110 C 
ATOM     10  C   UNL     1      -2.360  -2.494   1.954  0.00  0.00    +0.030 C 
BRANCH   8  11
ATOM     11  S   UNL     1      -2.974  -5.846   0.267  0.00  0.00    +0.061 S 
ATOM     12  O   UNL     1      -2.157  -6.631  -0.591  0.00  0.00    -0.153 OA
ATOM     13  O   UNL     1      -3.686  -6.406   1.362  0.00  0.00    -0.153 OA
BRANCH  11  14
ATOM     14  C   UNL     1      -4.167  -5.054  -0.759  0.00  0.00    +0.106 A 
ATOM     15  C   UNL     1      -5.372  -4.641  -0.220  0.00  0.00    +0.030 A 
ATOM     16  C   UNL     1      -6.309  -4.015  -1.016  0.00  0.00    +0.021 A 
ATOM     17  C   UNL     1      -6.043  -3.809  -2.371  0.00  0.00    +0.052 A 
ATOM     18  C   UNL     1      -4.827  -4.233  -2.910  0.00  0.00    +0.021 A 
ATOM     19  C   UNL     1      -3.897  -4.853  -2.101  0.00  0.00    +0.030 A 
BRANCH  17  20
ATOM     20  C   UNL     1      -7.013  -3.165  -3.205  0.00  0.00    +0.099 C 
ATOM     21  N   UNL     1      -7.782  -2.654  -3.866  0.00  0.00    -0.191 NA
ENDBRANCH  17  20
ENDBRANCH  11  14
ENDBRANCH   8  11
ENDBRANCH   2   5
BRANCH   1  22
ATOM     22  C   UNL     1       0.038   1.527   0.484  0.00  0.00    +0.093 C 
BRANCH  22  23
ATOM     23  C   UNL     1       1.425   1.993   0.036  0.00  0.00    -0.017 C 
BRANCH  23  29
ATOM     24  C   UNL     1       1.048   4.159  -1.170  0.00  0.00    +0.122 A 
ATOM     25  C   UNL     1       1.071   5.545  -1.217  0.00  0.00    +0.046 A 
ATOM     26  C   UNL     1       1.510   6.265  -0.122  0.00  0.00    +0.004 A 
ATOM     27  C   UNL     1       1.920   5.604   1.021  0.00  0.00    +0.000 A 
ATOM     28  C   UNL     1       1.893   4.223   1.072  0.00  0.00    +0.005 A 
ATOM     29  C   UNL     1       1.455   3.499  -0.020  0.00  0.00    -0.018 A 
BRANCH  24  31
ATOM     30  C   UNL     1       0.217   4.195  -3.398  0.00  0.00    +0.277 C 
ATOM     31  O   UNL     1       0.622   3.449  -2.248  0.00  0.00    -0.495 OA
ENDBRANCH  24  31
ENDBRANCH  23  29
BRANCH  23  36
ATOM     32  C   UNL     1       3.708   2.267   0.838  0.00  0.00    -0.078 C 
ATOM     33  C   UNL     1       4.422   2.036   2.193  0.00  0.00    -0.020 C 
ATOM     34  C   UNL     1       3.257   2.074   3.209  0.00  0.00    -0.020 C 
ATOM     35  C   UNL     1       1.995   1.754   2.386  0.00  0.00    -0.078 C 
ATOM     36  N   UNL     1       2.451   1.522   1.014  0.00  0.00    +0.385 N 
ATOM     37  H   UNL     1       2.619   0.520   0.870  0.00  0.00    -0.081 HD
ENDBRANCH  23  36
ENDBRANCH  22  23
ENDBRANCH   1  22
TORSDOF 9
