REMARK  Name = ZINC45012085
REMARK  8 active torsions:
REMARK  status: ('A' for Active; 'I' for Inactive)
REMARK    1  A    between atoms: C_1  and  C_2
REMARK    2  A    between atoms: C_4  and  C_7
REMARK    3  A    between atoms: C_7  and  N_8
REMARK    4  A    between atoms: N_8  and  S_9
REMARK    5  A    between atoms: S_9  and  C_12
REMARK    6  A    between atoms: C_15  and  C_17
REMARK    7  A    between atoms: C_17  and  C_18
REMARK    8  A    between atoms: C_18  and  N_19
REMARK                            x       y       z     vdW  Elec       q    Type
REMARK                         _______ _______ _______ _____ _____    ______ ____
ROOT
ATOM      1  S   UNL     1       1.758  -5.026  -2.718  0.00  0.00    +0.065 S 
ATOM      2  O   UNL     1       3.165  -5.067  -2.917  0.00  0.00    -0.153 OA
ATOM      3  O   UNL     1       1.066  -6.012  -1.965  0.00  0.00    -0.153 OA
ENDROOT
BRANCH   1   4
ATOM      4  C   UNL     1       1.024  -5.009  -4.320  0.00  0.00    +0.143 A 
ATOM      5  C   UNL     1       1.557  -4.607  -5.499  0.00  0.00    +0.036 A 
ATOM      6  C   UNL     1       0.787  -4.685  -6.645  0.00  0.00    +0.013 A 
ATOM      7  C   UNL     1      -0.479  -5.161  -6.554  0.00  0.00    -0.010 A 
ATOM      8  S   UNL     1      -0.613  -5.525  -4.812  0.00  0.00    -0.074 S 
BRANCH   7   9
ATOM      9  C   UNL     1      -1.504  -5.342  -7.644  0.00  0.00    +0.023 C 
BRANCH   9  10
ATOM     10  C   UNL     1      -1.365  -6.740  -8.248  0.00  0.00    -0.081 C 
BRANCH  10  11
ATOM     11  N   UNL     1      -2.365  -6.917  -9.310  0.00  0.00    +0.378 N 
ATOM     12  H   UNL     1      -3.290  -6.808  -8.922  0.00  0.00    -0.090 HD
ATOM     13  H   UNL     1      -2.219  -6.223 -10.028  0.00  0.00    -0.090 HD
ATOM     14  H   UNL     1      -2.273  -7.839  -9.709  0.00  0.00    -0.090 HD
ENDBRANCH  10  11
ENDBRANCH   9  10
ENDBRANCH   7   9
ENDBRANCH   1   4
BRANCH   1  15
ATOM     15  N   UNL     1       1.423  -3.567  -2.011  0.00  0.00    -0.180 NA
ATOM     16  H   UNL     1       2.143  -2.951  -1.804  0.00  0.00    +0.149 HD
BRANCH  15  17
ATOM     17  C   UNL     1       0.038  -3.206  -1.697  0.00  0.00    +0.204 C 
BRANCH  17  21
ATOM     18  C   UNL     1      -0.018   1.503   0.010  0.00  0.00    +0.091 C 
ATOM     19  C   UNL     1       0.002  -0.004   0.002  0.00  0.00    +0.169 A 
ATOM     20  N   UNL     1       0.008  -0.776  -1.091  0.00  0.00    -0.195 NA
ATOM     21  C   UNL     1       0.026  -2.034  -0.750  0.00  0.00    +0.243 A 
ATOM     22  O   UNL     1       0.033  -2.107   0.587  0.00  0.00    -0.337 OA
ATOM     23  N   UNL     1       0.023  -0.767   1.057  0.00  0.00    -0.062 NA
ENDBRANCH  17  21
ENDBRANCH  15  17
ENDBRANCH   1  15
TORSDOF 7
