REMARK  Name = ZINC61805515
REMARK  10 active torsions:
REMARK  status: ('A' for Active; 'I' for Inactive)
REMARK    1  A    between atoms: C_1  and  C_2
REMARK    2  A    between atoms: C_2  and  C_3
REMARK    3  A    between atoms: C_3  and  C_5
REMARK    4  A    between atoms: C_3  and  N_21
REMARK    5  A    between atoms: C_5  and  C_7
REMARK    6  A    between atoms: C_5  and  N_12
REMARK    7  A    between atoms: N_12  and  C_13
REMARK    8  A    between atoms: N_12  and  C_17
REMARK    9  A    between atoms: C_13  and  C_14
REMARK   10  A    between atoms: C_17  and  C_18
REMARK                            x       y       z     vdW  Elec       q    Type
REMARK                         _______ _______ _______ _____ _____    ______ ____
ROOT
ATOM      1  C   UNL     1      -1.437  -1.979  -0.218  0.00  0.00    +0.080 C 
ENDROOT
BRANCH   1   2
ATOM      2  C   UNL     1      -2.851  -2.496  -0.271  0.00  0.00    +0.005 A 
ATOM      3  C   UNL     1      -3.612  -3.003   0.730  0.00  0.00    +0.013 A 
ATOM      4  C   UNL     1      -4.900  -3.420   0.447  0.00  0.00    +0.008 A 
ATOM      5  C   UNL     1      -5.363  -3.309  -0.822  0.00  0.00    +0.045 A 
ATOM      6  S   UNL     1      -3.963  -2.591  -1.665  0.00  0.00    -0.100 S 
ENDBRANCH   1   2
BRANCH   1   7
ATOM      7  C   UNL     1      -1.455  -0.457  -0.068  0.00  0.00    -0.053 C 
BRANCH   7   8
ATOM      8  N   UNL     1      -2.195  -0.093   1.148  0.00  0.00    +0.381 N 
ATOM      9  H   UNL     1      -2.208   0.911   1.247  0.00  0.00    -0.090 HD
ATOM     10  H   UNL     1      -3.142  -0.436   1.080  0.00  0.00    -0.090 HD
ATOM     11  H   UNL     1      -1.745  -0.505   1.951  0.00  0.00    -0.090 HD
ENDBRANCH   7   8
BRANCH   7  13
ATOM     12  C   UNL     1      -0.038   1.585   0.191  0.00  0.00    +0.002 C 
ATOM     13  C   UNL     1      -0.020   0.063   0.035  0.00  0.00    -0.018 C 
ENDBRANCH   7  13
ENDBRANCH   1   7
BRANCH   1  14
ATOM     14  N   UNL     1      -0.737  -2.340  -1.458  0.00  0.00    -0.280 NA
BRANCH  14  15
ATOM     15  C   UNL     1      -1.004  -1.359  -2.519  0.00  0.00    +0.181 C 
BRANCH  15  16
ATOM     16  C   UNL     1      -0.628  -1.947  -3.854  0.00  0.00    +0.225 C 
ATOM     17  O   UNL     1      -0.281  -3.107  -3.930  0.00  0.00    -0.275 OA
ATOM     18  N   UNL     1      -0.677  -1.185  -4.964  0.00  0.00    -0.328 N 
ATOM     19  H   UNL     1      -0.954  -0.257  -4.904  0.00  0.00    +0.145 HD
ATOM     20  H   UNL     1      -0.434  -1.563  -5.824  0.00  0.00    +0.145 HD
ENDBRANCH  15  16
ENDBRANCH  14  15
BRANCH  14  21
ATOM     21  C   UNL     1       0.706  -2.484  -1.226  0.00  0.00    +0.181 C 
BRANCH  21  22
ATOM     22  C   UNL     1       0.977  -3.801  -0.544  0.00  0.00    +0.225 C 
ATOM     23  O   UNL     1       0.072  -4.589  -0.368  0.00  0.00    -0.275 OA
ATOM     24  N   UNL     1       2.223  -4.102  -0.130  0.00  0.00    -0.328 N 
ATOM     25  H   UNL     1       2.947  -3.471  -0.271  0.00  0.00    +0.145 HD
ATOM     26  H   UNL     1       2.397  -4.949   0.308  0.00  0.00    +0.145 HD
ENDBRANCH  21  22
ENDBRANCH  14  21
ENDBRANCH   1  14
TORSDOF 9
