REMARK  Name = ZINC36608358
REMARK  11 active torsions:
REMARK  status: ('A' for Active; 'I' for Inactive)
REMARK    1  A    between atoms: C_1  and  C_2
REMARK    2  A    between atoms: C_5  and  S_8
REMARK    3  A    between atoms: S_8  and  C_11
REMARK    4  A    between atoms: C_11  and  N_12
REMARK    5  A    between atoms: C_13  and  C_15
REMARK    6  A    between atoms: C_15  and  C_17
REMARK    7  A    between atoms: C_15  and  N_22
REMARK    8  A    between atoms: N_22  and  C_23
REMARK    9  A    between atoms: C_29  and  C_31
REMARK   10  A    between atoms: C_34  and  O_37
REMARK   11  A    between atoms: O_37  and  C_38
REMARK                            x       y       z     vdW  Elec       q    Type
REMARK                         _______ _______ _______ _____ _____    ______ ____
ROOT
ATOM      1  C   UNL     1       3.327  -4.437   4.502  0.00  0.00    +0.233 C 
ENDROOT
BRANCH   1   2
ATOM      2  C   UNL     1       2.965  -3.486   5.614  0.00  0.00    +0.135 A 
ATOM      3  C   UNL     1       3.547  -2.297   5.853  0.00  0.00    +0.047 A 
ATOM      4  C   UNL     1       2.902  -1.745   6.983  0.00  0.00    +0.041 A 
ATOM      5  C   UNL     1       1.964  -2.629   7.367  0.00  0.00    +0.195 A 
ATOM      6  O   UNL     1       2.002  -3.679   6.530  0.00  0.00    -0.465 OA
ENDBRANCH   1   2
BRANCH   1   8
ATOM      7  N   UNL     1       2.215  -3.091   2.749  0.00  0.00    -0.294 N 
ATOM      8  C   UNL     1       2.346  -4.281   3.368  0.00  0.00    +0.243 C 
ATOM      9  O   UNL     1       1.675  -5.226   3.013  0.00  0.00    -0.273 OA
ATOM     10  H   UNL     1       2.752  -2.335   3.033  0.00  0.00    +0.150 HD
BRANCH   7  11
ATOM     11  C   UNL     1       1.262  -2.939   1.647  0.00  0.00    +0.278 C 
BRANCH  11  12
ATOM     12  S   UNL     1      -0.305  -2.289   2.289  0.00  0.00    +0.013 S 
ATOM     13  O   UNL     1      -0.698  -3.013   3.447  0.00  0.00    -0.168 OA
ATOM     14  O   UNL     1      -1.220  -2.077   1.222  0.00  0.00    -0.168 OA
BRANCH  12  19
ATOM     15  C   UNL     1       1.016   3.242   4.306  0.00  0.00    +0.044 C 
ATOM     16  C   UNL     1       0.686   1.860   3.802  0.00  0.00    -0.050 A 
ATOM     17  C   UNL     1       0.283   1.680   2.492  0.00  0.00    +0.005 A 
ATOM     18  C   UNL     1      -0.020   0.413   2.030  0.00  0.00    +0.027 A 
ATOM     19  C   UNL     1       0.082  -0.674   2.878  0.00  0.00    +0.090 A 
ATOM     20  C   UNL     1       0.486  -0.494   4.187  0.00  0.00    +0.027 A 
ATOM     21  C   UNL     1       0.793   0.772   4.648  0.00  0.00    +0.005 A 
ENDBRANCH  12  19
ENDBRANCH  11  12
ENDBRANCH   7  11
ENDBRANCH   1   8
BRANCH   1  22
ATOM     22  N   UNL     1       3.280  -5.813   5.002  0.00  0.00    -0.248 N 
ATOM     23  C   UNL     1       4.419  -6.522   5.130  0.00  0.00    +0.252 C 
ATOM     24  O   UNL     1       4.389  -7.641   5.607  0.00  0.00    -0.270 OA
BRANCH  22  25
ATOM     25  C   UNL     1       2.054  -6.391   5.347  0.00  0.00    +0.038 A 
ATOM     26  C   UNL     1       0.900  -5.619   5.359  0.00  0.00    +0.023 A 
ATOM     27  C   UNL     1      -0.309  -6.192   5.700  0.00  0.00    +0.002 A 
ATOM     28  C   UNL     1      -0.371  -7.534   6.029  0.00  0.00    +0.000 A 
ATOM     29  C   UNL     1       0.776  -8.306   6.017  0.00  0.00    +0.002 A 
ATOM     30  C   UNL     1       1.988  -7.740   5.671  0.00  0.00    +0.023 A 
ENDBRANCH  22  25
BRANCH  23  31
ATOM     31  C   UNL     1       5.703  -5.942   4.692  0.00  0.00    +0.037 A 
ATOM     32  C   UNL     1       5.744  -5.078   3.594  0.00  0.00    +0.016 A 
ATOM     33  C   UNL     1       6.944  -4.539   3.188  0.00  0.00    +0.046 A 
ATOM     34  C   UNL     1       8.114  -4.852   3.869  0.00  0.00    +0.120 A 
ATOM     35  C   UNL     1       8.079  -5.711   4.962  0.00  0.00    +0.046 A 
ATOM     36  C   UNL     1       6.882  -6.249   5.378  0.00  0.00    +0.016 A 
BRANCH  34  37
ATOM     37  O   UNL     1       9.295  -4.318   3.466  0.00  0.00    -0.495 OA
ATOM     38  C   UNL     1      10.459  -4.682   4.210  0.00  0.00    +0.277 C 
ENDBRANCH  34  37
ENDBRANCH  23  31
ENDBRANCH   1  22
TORSDOF 9
