REMARK  Name = ZINC63572142
REMARK  6 active torsions:
REMARK  status: ('A' for Active; 'I' for Inactive)
REMARK    1  A    between atoms: C_1  and  O_2
REMARK    2  A    between atoms: O_2  and  C_3
REMARK    3  A    between atoms: C_6  and  C_9
REMARK    4  A    between atoms: N_27  and  C_28
REMARK    5  A    between atoms: C_33  and  O_34
REMARK    6  A    between atoms: O_34  and  C_35
REMARK                            x       y       z     vdW  Elec       q    Type
REMARK                         _______ _______ _______ _____ _____    ______ ____
ROOT
ATOM      1  C   UNL     1      -5.336  -2.437   0.715  0.00  0.00    +0.134 C 
ATOM      2  C   UNL     1      -5.600  -2.479  -0.794  0.00  0.00    +0.131 C 
ATOM      3  C   UNL     1      -6.625  -3.582  -1.026  0.00  0.00    -0.035 C 
ATOM      4  C   UNL     1      -7.643  -3.020  -1.665  0.00  0.00    +0.001 A 
ATOM      5  C   UNL     1      -8.886  -3.585  -2.214  0.00  0.00    +0.030 A 
ATOM      6  C   UNL     1      -9.734  -2.704  -2.810  0.00  0.00    +0.042 A 
ATOM      7  C   UNL     1      -9.471  -1.333  -2.912  0.00  0.00    +0.022 A 
ATOM      8  C   UNL     1      -8.351  -0.730  -2.440  0.00  0.00    +0.027 A 
ATOM      9  C   UNL     1      -7.383  -1.554  -1.796  0.00  0.00    +0.043 A 
ATOM     10  N   UNL     1      -6.211  -1.238  -1.275  0.00  0.00    -0.375 N 
ATOM     11 CL   UNL     1     -11.218  -3.310  -3.477  0.00  0.00    -0.084 Cl
ATOM     12  C   UNL     1      -6.435  -4.986  -0.505  0.00  0.00    +0.052 C 
ATOM     13  C   UNL     1      -6.085  -4.862   0.989  0.00  0.00    +0.114 C 
ATOM     14  N   UNL     1      -5.076  -3.812   1.167  0.00  0.00    -0.276 N 
ATOM     15  C   UNL     1      -3.898  -4.112   1.750  0.00  0.00    +0.307 C 
ATOM     16  O   UNL     1      -3.117  -3.224   2.033  0.00  0.00    -0.252 OA
ATOM     17  N   UNL     1      -3.586  -5.395   2.019  0.00  0.00    -0.266 N 
ATOM     18  H   UNL     1      -4.178  -6.108   1.733  0.00  0.00    +0.156 HD
ATOM     19  H   UNL     1      -5.821  -0.352  -1.211  0.00  0.00    +0.160 HD
ENDROOT
BRANCH  17  20
ATOM     20  C   UNL     1      -2.406  -5.699   2.711  0.00  0.00    +0.078 A 
ATOM     21  C   UNL     1      -1.331  -4.824   2.671  0.00  0.00    +0.047 A 
ATOM     22  C   UNL     1      -0.168  -5.126   3.356  0.00  0.00    +0.043 A 
ATOM     23  C   UNL     1      -0.074  -6.300   4.081  0.00  0.00    +0.024 A 
ATOM     24  C   UNL     1      -1.142  -7.177   4.125  0.00  0.00    +0.049 A 
ATOM     25  C   UNL     1      -2.312  -6.878   3.446  0.00  0.00    +0.141 A 
ATOM     26 CL   UNL     1       1.177  -4.029   3.304  0.00  0.00    -0.083 Cl
BRANCH  25  27
ATOM     27  O   UNL     1      -3.365  -7.738   3.493  0.00  0.00    -0.493 OA
ATOM     28  C   UNL     1      -3.197  -8.928   4.267  0.00  0.00    +0.277 C 
ENDBRANCH  25  27
ENDBRANCH  17  20
BRANCH   1  32
ATOM     29  C   UNL     1      -1.932   0.018   1.520  0.00  0.00    +0.120 A 
ATOM     30  C   UNL     1      -3.075   0.137   2.299  0.00  0.00    +0.046 A 
ATOM     31  C   UNL     1      -4.174  -0.657   2.036  0.00  0.00    +0.009 A 
ATOM     32  C   UNL     1      -4.136  -1.571   0.999  0.00  0.00    -0.024 A 
ATOM     33  C   UNL     1      -2.999  -1.691   0.222  0.00  0.00    +0.009 A 
ATOM     34  C   UNL     1      -1.899  -0.895   0.476  0.00  0.00    +0.046 A 
BRANCH  29  36
ATOM     35  C   UNL     1      -0.956   1.717   2.866  0.00  0.00    +0.277 C 
ATOM     36  O   UNL     1      -0.850   0.799   1.776  0.00  0.00    -0.495 OA
ENDBRANCH  29  36
ENDBRANCH   1  32
TORSDOF 4
