REMARK  Name = ZINC43737078
REMARK  9 active torsions:
REMARK  status: ('A' for Active; 'I' for Inactive)
REMARK    1  A    between atoms: C_1  and  C_2
REMARK    2  A    between atoms: C_13  and  C_15
REMARK    3  A    between atoms: C_15  and  C_17
REMARK    4  A    between atoms: C_17  and  C_18
REMARK    5  A    between atoms: C_25  and  O_26
REMARK    6  A    between atoms: O_26  and  C_27
REMARK    7  A    between atoms: N_33  and  C_34
REMARK    8  A    between atoms: C_38  and  C_45
REMARK    9  A    between atoms: C_41  and  O_44
REMARK                            x       y       z     vdW  Elec       q    Type
REMARK                         _______ _______ _______ _____ _____    ______ ____
ROOT
ATOM      1  C   UNL     1       0.897   1.432  -1.050  0.00  0.00    +0.012 C 
ATOM      2  C   UNL     1       0.532  -0.027  -0.769  0.00  0.00    -0.019 C 
ATOM      3  C   UNL     1       0.957  -0.876  -1.946  0.00  0.00    +0.008 C 
ATOM      4  C   UNL     1       0.734  -2.358  -1.651  0.00  0.00    +0.005 C 
ATOM      5  C   UNL     1       1.570  -2.752  -0.426  0.00  0.00    +0.003 C 
ATOM      6  C   UNL     1       1.098  -1.940   0.780  0.00  0.00    +0.000 C 
ATOM      7  C   UNL     1       1.193  -0.462   0.548  0.00  0.00    -0.001 C 
ATOM      8  C   UNL     1       0.268   0.217   1.602  0.00  0.00    +0.005 C 
ATOM      9  C   UNL     1      -1.150   0.040   1.016  0.00  0.00    +0.012 C 
ATOM     10  C   UNL     1      -0.976  -0.123  -0.507  0.00  0.00    +0.061 C 
ATOM     11  C   UNL     1       1.986  -2.298   1.982  0.00  0.00    +0.031 C 
ATOM     12  C   UNL     1       2.018  -3.784   2.172  0.00  0.00    -0.027 C 
ATOM     13  C   UNL     1       1.743  -4.633   1.234  0.00  0.00    -0.065 C 
ATOM     14  C   UNL     1       1.378  -4.244  -0.178  0.00  0.00    -0.008 C 
ATOM     15  C   UNL     1      -0.066  -4.662  -0.445  0.00  0.00    +0.014 C 
ATOM     16  C   UNL     1      -0.424  -5.881   0.405  0.00  0.00    +0.032 C 
ATOM     17  C   UNL     1       0.782  -6.802   0.579  0.00  0.00    +0.119 C 
ATOM     18  C   UNL     1       1.778  -6.124   1.532  0.00  0.00    +0.062 C 
ATOM     19  C   UNL     1       2.271  -5.011  -1.154  0.00  0.00    +0.016 C 
ENDROOT
BRANCH  10  20
ATOM     20  C   UNL     1      -1.496  -1.467  -0.949  0.00  0.00    +0.136 C 
ATOM     21  O   UNL     1      -1.662  -2.346  -0.138  0.00  0.00    -0.297 OA
BRANCH  20  22
ATOM     22  C   UNL     1      -1.808  -1.714  -2.402  0.00  0.00    +0.064 C 
BRANCH  22  23
ATOM     23  C   UNL     1      -3.321  -1.643  -2.618  0.00  0.00    -0.027 C 
ATOM     24  C   UNL     1      -3.828  -0.304  -2.150  0.00  0.00    -0.012 A 
ATOM     25  C   UNL     1      -5.008  -0.181  -1.447  0.00  0.00    -0.040 A 
ATOM     26  C   UNL     1      -5.443   1.069  -1.036  0.00  0.00    +0.053 A 
ATOM     27  C   UNL     1      -4.701   2.202  -1.325  0.00  0.00    +0.170 A 
ATOM     28  C   UNL     1      -3.509   2.082  -2.033  0.00  0.00    +0.208 A 
ATOM     29  C   UNL     1      -3.076   0.829  -2.443  0.00  0.00    +0.167 A 
ATOM     30  O   UNL     1      -2.968   3.326  -2.190  0.00  0.00    -0.449 OA
ATOM     31  C   UNL     1      -4.042   4.249  -1.929  0.00  0.00    +0.467 C 
ATOM     32  O   UNL     1      -4.908   3.520  -1.038  0.00  0.00    -0.452 OA
ATOM     33  C   UNL     1      -5.848  -1.385  -1.104  0.00  0.00    +0.017 C 
ATOM     34  C   UNL     1      -5.426  -2.573  -1.970  0.00  0.00    -0.074 C 
ATOM     35  N   UNL     1      -3.966  -2.728  -1.873  0.00  0.00    +0.383 N 
ATOM     36  C   UNL     1      -3.571  -4.021  -2.445  0.00  0.00    -0.095 C 
ATOM     37  H   UNL     1      -3.686  -2.686  -0.904  0.00  0.00    -0.081 HD
BRANCH  29  38
ATOM     38  O   UNL     1      -1.912   0.708  -3.135  0.00  0.00    -0.491 OA
ATOM     39  C   UNL     1      -1.992   0.789  -4.559  0.00  0.00    +0.277 C 
ENDBRANCH  29  38
ENDBRANCH  22  23
ENDBRANCH  20  22
ENDBRANCH  10  20
BRANCH  17  40
ATOM     40  O   UNL     1       0.356  -8.040   1.150  0.00  0.00    -0.391 OA
ATOM     41  H   UNL     1       1.072  -8.676   1.290  0.00  0.00    +0.210 HD
ENDBRANCH  17  40
TORSDOF 5
