REMARK  Name = ZINC20842714
REMARK  10 active torsions:
REMARK  status: ('A' for Active; 'I' for Inactive)
REMARK    1  A    between atoms: C_1  and  C_2
REMARK    2  A    between atoms: C_5  and  S_8
REMARK    3  A    between atoms: N_6  and  N_7
REMARK    4  A    between atoms: S_8  and  C_9
REMARK    5  A    between atoms: C_9  and  C_10
REMARK    6  A    between atoms: C_10  and  C_11
REMARK    7  A    between atoms: N_13  and  C_14
REMARK    8  A    between atoms: C_17  and  S_20
REMARK    9  A    between atoms: S_20  and  N_23
REMARK   10  A    between atoms: N_23  and  C_24
REMARK                            x       y       z     vdW  Elec       q    Type
REMARK                         _______ _______ _______ _____ _____    ______ ____
ROOT
ATOM      1  C   UNL     1       8.350  -3.273   0.347  0.00  0.00    +0.033 A 
ATOM      2  C   UNL     1       8.729  -1.937   0.351  0.00  0.00    +0.025 A 
ATOM      3  C   UNL     1      10.069  -1.601   0.341  0.00  0.00    +0.030 A 
ATOM      4  C   UNL     1      11.031  -2.593   0.316  0.00  0.00    +0.109 A 
ATOM      5  C   UNL     1      10.657  -3.924   0.306  0.00  0.00    +0.030 A 
ATOM      6  C   UNL     1       9.319  -4.267   0.322  0.00  0.00    +0.025 A 
ENDROOT
BRANCH   1   9
ATOM      7  C   UNL     1       6.584  -4.713   1.033  0.00  0.00    +0.218 C 
ATOM      8  O   UNL     1       7.399  -5.448   1.549  0.00  0.00    -0.275 OA
ATOM      9  N   UNL     1       6.993  -3.616   0.364  0.00  0.00    -0.285 N 
ATOM     10  H   UNL     1       6.261  -2.992  -0.169  0.00  0.00    +0.155 HD
BRANCH   7  11
ATOM     11  C   UNL     1       5.113  -5.025   1.139  0.00  0.00    +0.107 C 
BRANCH  11  12
ATOM     12  C   UNL     1       4.923  -6.313   1.943  0.00  0.00    +0.086 C 
BRANCH  12  13
ATOM     13  S   UNL     1       3.156  -6.688   2.071  0.00  0.00    -0.084 S 
BRANCH  13  18
ATOM     14  C   UNL     1       1.932 -11.088   4.788  0.00  0.00    +0.090 C 
ATOM     15  C   UNL     1       2.699  -9.973   4.123  0.00  0.00    +0.148 A 
ATOM     16  N   UNL     1       3.993  -9.827   4.111  0.00  0.00    -0.132 NA
ATOM     17  N   UNL     1       4.311  -8.766   3.458  0.00  0.00    -0.121 NA
ATOM     18  C   UNL     1       3.227  -8.173   3.016  0.00  0.00    +0.208 A 
ATOM     19  N   UNL     1       2.164  -8.925   3.426  0.00  0.00    -0.228 N 
BRANCH  19  20
ATOM     20  N   UNL     1       0.841  -8.682   3.189  0.00  0.00    -0.295 N 
ATOM     21  H   UNL     1       0.539  -7.797   2.610  0.00  0.00    +0.163 HD
ATOM     22  H   UNL     1       0.076  -9.371   3.578  0.00  0.00    +0.163 HD
ENDBRANCH  19  20
ENDBRANCH  13  18
ENDBRANCH  12  13
ENDBRANCH  11  12
ENDBRANCH   7  11
ENDBRANCH   1   9
BRANCH   4  23
ATOM     23  S   UNL     1      12.739  -2.160   0.296  0.00  0.00    +0.072 S 
ATOM     24  O   UNL     1      12.849  -0.910   0.962  0.00  0.00    -0.150 OA
ATOM     25  O   UNL     1      13.455  -3.313   0.717  0.00  0.00    -0.150 OA
BRANCH  23  26
ATOM     26  N   UNL     1      13.159  -1.894  -1.284  0.00  0.00    -0.216 N 
ATOM     27  H   UNL     1      13.907  -2.537  -1.770  0.00  0.00    +0.174 HD
BRANCH  26  28
ATOM     28  C   UNL     1      12.562  -0.852  -1.998  0.00  0.00    +0.048 A 
ATOM     29  C   UNL     1      11.596  -1.129  -2.957  0.00  0.00    +0.024 A 
ATOM     30  C   UNL     1      11.005  -0.097  -3.658  0.00  0.00    +0.002 A 
ATOM     31  C   UNL     1      11.382   1.211  -3.414  0.00  0.00    +0.000 A 
ATOM     32  C   UNL     1      12.347   1.490  -2.465  0.00  0.00    +0.002 A 
ATOM     33  C   UNL     1      12.939   0.463  -1.756  0.00  0.00    +0.024 A 
ENDBRANCH  26  28
ENDBRANCH  23  26
ENDBRANCH   4  23
TORSDOF 9
