REMARK  Name = ZINC26116849
REMARK  6 active torsions:
REMARK  status: ('A' for Active; 'I' for Inactive)
REMARK    1  A    between atoms: C_4  and  C_7
REMARK    2  A    between atoms: C_7  and  C_9
REMARK    3  A    between atoms: C_7  and  O_30
REMARK    4  A    between atoms: N_12  and  C_15
REMARK    5  A    between atoms: C_15  and  C_16
REMARK    6  A    between atoms: N_18  and  C_19
REMARK                            x       y       z     vdW  Elec       q    Type
REMARK                         _______ _______ _______ _____ _____    ______ ____
ROOT
ATOM      1  C   UNL     1      -1.839   0.431   1.361  0.00  0.00    +0.019 C 
ATOM      2  C   UNL     1      -0.388   0.916   1.322  0.00  0.00    -0.012 C 
ATOM      3  C   UNL     1       0.198   0.650  -0.066  0.00  0.00    -0.078 C 
ATOM      4  N   UNL     1      -0.600   1.354  -1.078  0.00  0.00    +0.385 N 
ATOM      5  C   UNL     1      -1.986   0.871  -1.092  0.00  0.00    -0.078 C 
ATOM      6  C   UNL     1      -2.637   1.144   0.266  0.00  0.00    -0.012 C 
ATOM      7  H   UNL     1      -0.619   2.420  -0.808  0.00  0.00    -0.081 HD
ENDROOT
BRANCH   1   8
ATOM      8  C   UNL     1      -2.450   0.749   2.728  0.00  0.00    +0.147 C 
BRANCH   8  12
ATOM      9  C   UNL     1      -0.222  -1.243   5.781  0.00  0.00    +0.000 A 
ATOM     10  C   UNL     1      -0.003   0.099   5.528  0.00  0.00    +0.000 A 
ATOM     11  C   UNL     1      -0.723   0.743   4.540  0.00  0.00    +0.006 A 
ATOM     12  C   UNL     1      -1.663   0.046   3.804  0.00  0.00    -0.019 A 
ATOM     13  C   UNL     1      -1.887  -1.294   4.061  0.00  0.00    +0.006 A 
ATOM     14  C   UNL     1      -1.162  -1.940   5.045  0.00  0.00    +0.000 A 
ENDBRANCH   8  12
BRANCH   8  15
ATOM     15  O   UNL     1      -3.806   0.300   2.759  0.00  0.00    -0.387 OA
ATOM     16  H   UNL     1      -4.535   0.705   2.042  0.00  0.00    +0.210 HD
ENDBRANCH   8  15
ENDBRANCH   1   8
BRANCH   4  17
ATOM     17  C   UNL     1       0.013   1.235  -2.408  0.00  0.00    +0.019 C 
BRANCH  17  18
ATOM     18  C   UNL     1       1.329   1.969  -2.423  0.00  0.00    +0.197 C 
ATOM     19  O   UNL     1       1.665   2.630  -1.463  0.00  0.00    -0.278 OA
ATOM     20  N   UNL     1       2.131   1.892  -3.503  0.00  0.00    -0.310 N 
ATOM     21  H   UNL     1       1.826   1.293  -4.374  0.00  0.00    +0.149 HD
BRANCH  20  22
ATOM     22  C   UNL     1       3.410   2.606  -3.518  0.00  0.00    +0.103 C 
ATOM     23  C   UNL     1       4.374   1.893  -4.464  0.00  0.00    +0.027 C 
ATOM     24  C   UNL     1       5.622   2.769  -4.634  0.00  0.00    +0.007 C 
ATOM     25  C   UNL     1       5.235   4.006  -5.441  0.00  0.00    +0.035 C 
ATOM     26  C   UNL     1       4.023   4.671  -4.843  0.00  0.00    -0.042 A 
ATOM     27  C   UNL     1       3.181   4.026  -3.965  0.00  0.00    -0.024 A 
ATOM     28  C   UNL     1       2.072   4.692  -3.461  0.00  0.00    +0.006 A 
ATOM     29  C   UNL     1       1.810   5.996  -3.828  0.00  0.00    +0.000 A 
ATOM     30  C   UNL     1       2.659   6.646  -4.705  0.00  0.00    +0.000 A 
ATOM     31  C   UNL     1       3.760   5.985  -5.210  0.00  0.00    +0.004 A 
ENDBRANCH  20  22
ENDBRANCH  17  18
ENDBRANCH   4  17
TORSDOF 6
