REMARK  Name = ZINC43086279
REMARK  14 active torsions:
REMARK  status: ('A' for Active; 'I' for Inactive)
REMARK    1  A    between atoms: C_1  and  C_2
REMARK    2  A    between atoms: C_2  and  C_3
REMARK    3  A    between atoms: C_3  and  C_5
REMARK    4  A    between atoms: C_3  and  C_6
REMARK    5  A    between atoms: C_6  and  C_8
REMARK    6  A    between atoms: C_6  and  N_24
REMARK    7  A    between atoms: N_10  and  C_11
REMARK    8  A    between atoms: C_11  and  C_12
REMARK    9  A    between atoms: C_17  and  C_18
REMARK   10  A    between atoms: C_18  and  N_19
REMARK   11  A    between atoms: N_19  and  C_20
REMARK   12  A    between atoms: N_19  and  C_21
REMARK   13  A    between atoms: C_21  and  C_22
REMARK   14  A    between atoms: C_21  and  C_23
REMARK                            x       y       z     vdW  Elec       q    Type
REMARK                         _______ _______ _______ _____ _____    ______ ____
ROOT
ATOM      1  C   UNL     1      -1.073  -3.673  -0.935  0.00  0.00    +0.234 C 
ATOM      2  O   UNL     1      -1.656  -4.467  -0.227  0.00  0.00    -0.274 OA
ATOM      3  N   UNL     1      -1.649  -3.233  -2.072  0.00  0.00    -0.310 N 
ATOM      4  H   UNL     1      -1.217  -2.543  -2.598  0.00  0.00    +0.149 HD
ENDROOT
BRANCH   1   5
ATOM      5  C   UNL     1       0.296  -3.178  -0.544  0.00  0.00    +0.163 C 
BRANCH   5   6
ATOM      6  N   UNL     1       0.811  -3.991   0.561  0.00  0.00    -0.288 N 
ATOM      7  C   UNL     1       2.141  -4.099   0.754  0.00  0.00    +0.298 C 
ATOM      8  O   UNL     1       2.912  -3.523   0.012  0.00  0.00    -0.253 OA
ATOM      9  N   UNL     1       2.615  -4.847   1.770  0.00  0.00    -0.313 N 
ATOM     10  H   UNL     1       0.196  -4.451   1.153  0.00  0.00    +0.151 HD
ATOM     11  H   UNL     1       2.000  -5.307   2.362  0.00  0.00    +0.146 HD
ATOM     12  H   UNL     1       3.572  -4.925   1.909  0.00  0.00    +0.146 HD
ENDBRANCH   5   6
BRANCH   5  13
ATOM     13  C   UNL     1       0.202  -1.717  -0.101  0.00  0.00    +0.015 C 
ATOM     14  C   UNL     1      -0.728  -1.609   1.109  0.00  0.00    +0.010 C 
BRANCH  13  16
ATOM     15  C   UNL     1       1.522   0.285   0.602  0.00  0.00    +0.004 C 
ATOM     16  C   UNL     1       1.595  -1.209   0.279  0.00  0.00    +0.002 C 
ENDBRANCH  13  16
ENDBRANCH   5  13
ENDBRANCH   1   5
BRANCH   3  17
ATOM     17  C   UNL     1      -2.927  -3.799  -2.511  0.00  0.00    +0.139 C 
BRANCH  17  18
ATOM     18  C   UNL     1      -3.292  -3.229  -3.858  0.00  0.00    -0.029 A 
ATOM     19  C   UNL     1      -4.183  -2.176  -3.944  0.00  0.00    +0.005 A 
ATOM     20  C   UNL     1      -4.518  -1.653  -5.179  0.00  0.00    +0.000 A 
ATOM     21  C   UNL     1      -3.961  -2.183  -6.328  0.00  0.00    +0.000 A 
ATOM     22  C   UNL     1      -3.069  -3.235  -6.242  0.00  0.00    +0.002 A 
ATOM     23  C   UNL     1      -2.731  -3.755  -5.006  0.00  0.00    -0.059 A 
BRANCH  23  24
ATOM     24  C   UNL     1      -1.754  -4.899  -4.912  0.00  0.00    -0.043 C 
BRANCH  24  25
ATOM     25  N   UNL     1      -0.413  -4.375  -4.622  0.00  0.00    +0.382 N 
ATOM     26  C   UNL     1       0.052  -3.565  -5.755  0.00  0.00    -0.095 C 
ATOM     27  H   UNL     1      -0.448  -3.804  -3.791  0.00  0.00    -0.081 HD
BRANCH  25  28
ATOM     28  C   UNL     1       0.514  -5.495  -4.407  0.00  0.00    -0.075 C 
ATOM     29  C   UNL     1       1.911  -4.949  -4.105  0.00  0.00    -0.014 C 
ATOM     30  C   UNL     1       0.030  -6.339  -3.227  0.00  0.00    -0.014 C 
ENDBRANCH  25  28
ENDBRANCH  24  25
ENDBRANCH  23  24
ENDBRANCH  17  18
ENDBRANCH   3  17
TORSDOF 9
