REMARK  Name = ZINC38657161
REMARK  15 active torsions:
REMARK  status: ('A' for Active; 'I' for Inactive)
REMARK    1  A    between atoms: C_1  and  C_2
REMARK    2  A    between atoms: C_2  and  C_3
REMARK    3  A    between atoms: C_2  and  C_4
REMARK    4  A    between atoms: C_7  and  O_10
REMARK    5  A    between atoms: O_10  and  C_11
REMARK    6  A    between atoms: C_11  and  C_12
REMARK    7  A    between atoms: C_12  and  O_14
REMARK    8  A    between atoms: O_14  and  C_15
REMARK    9  A    between atoms: C_22  and  N_38
REMARK   10  A    between atoms: C_23  and  C_36
REMARK   11  A    between atoms: C_24  and  C_26
REMARK   12  A    between atoms: C_29  and  O_34
REMARK   13  A    between atoms: C_31  and  O_32
REMARK   14  A    between atoms: O_32  and  C_33
REMARK   15  A    between atoms: O_34  and  C_35
REMARK                            x       y       z     vdW  Elec       q    Type
REMARK                         _______ _______ _______ _____ _____    ______ ____
ROOT
ATOM      1  C   UNL     1      -8.983  -4.420  -1.657  0.00  0.00    +0.135 A 
ATOM      2  C   UNL     1      -9.750  -3.997  -0.580  0.00  0.00    +0.047 A 
ATOM      3  C   UNL     1     -11.050  -4.442  -0.443  0.00  0.00    +0.012 A 
ATOM      4  C   UNL     1     -11.593  -5.310  -1.374  0.00  0.00    +0.008 A 
ATOM      5  C   UNL     1     -10.831  -5.735  -2.451  0.00  0.00    +0.138 A 
ATOM      6  C   UNL     1      -9.525  -5.284  -2.594  0.00  0.00    +0.093 A 
ATOM      7  O   UNL     1     -11.344  -6.585  -3.374  0.00  0.00    -0.441 OA
ATOM      8  C   UNL     1     -12.428  -7.322  -3.077  0.00  0.00    +0.199 C 
ATOM      9  C   UNL     1     -13.260  -6.995  -2.060  0.00  0.00    +0.098 C 
ATOM     10  C   UNL     1     -13.012  -5.784  -1.206  0.00  0.00    +0.101 C 
ENDROOT
BRANCH  10  11
ATOM     11  C   UNL     1     -13.957  -4.683  -1.615  0.00  0.00    +0.007 A 
ATOM     12  C   UNL     1     -13.923  -4.187  -2.904  0.00  0.00    +0.012 A 
ATOM     13  C   UNL     1     -14.789  -3.178  -3.282  0.00  0.00    +0.046 A 
ATOM     14  C   UNL     1     -15.694  -2.660  -2.366  0.00  0.00    +0.124 A 
ATOM     15  C   UNL     1     -15.730  -3.156  -1.072  0.00  0.00    +0.091 A 
ATOM     16  C   UNL     1     -14.864  -4.172  -0.698  0.00  0.00    +0.128 A 
BRANCH  16  17
ATOM     17  O   UNL     1     -14.901  -4.664   0.569  0.00  0.00    -0.495 OA
ATOM     18  C   UNL     1     -15.860  -4.091   1.460  0.00  0.00    +0.277 C 
ENDBRANCH  16  17
BRANCH  14  19
ATOM     19  O   UNL     1     -16.544  -1.668  -2.738  0.00  0.00    -0.495 OA
ATOM     20  C   UNL     1     -16.452  -1.205  -4.087  0.00  0.00    +0.277 C 
ENDBRANCH  14  19
ENDBRANCH  10  11
BRANCH   8  21
ATOM     21  N   UNL     1     -12.700  -8.438  -3.828  0.00  0.00    -0.328 N 
ATOM     22  H   UNL     1     -12.114  -8.685  -4.560  0.00  0.00    +0.145 HD
ATOM     23  H   UNL     1     -13.479  -8.980  -3.626  0.00  0.00    +0.145 HD
ENDBRANCH   8  21
BRANCH   9  24
ATOM     24  C   UNL     1     -14.399  -7.821  -1.793  0.00  0.00    +0.101 C 
ATOM     25  N   UNL     1     -15.303  -8.475  -1.581  0.00  0.00    -0.191 NA
ENDBRANCH   9  24
BRANCH   1  26
ATOM     26  O   UNL     1      -7.703  -3.983  -1.793  0.00  0.00    -0.423 OA
BRANCH  26  27
ATOM     27  C   UNL     1      -6.760  -4.540  -1.016  0.00  0.00    +0.350 C 
ATOM     28  O   UNL     1      -7.073  -5.337  -0.164  0.00  0.00    -0.247 OA
BRANCH  27  29
ATOM     29  C   UNL     1      -5.312  -4.170  -1.207  0.00  0.00    +0.349 C 
BRANCH  29  30
ATOM     30  O   UNL     1      -4.509  -4.889  -0.268  0.00  0.00    -0.481 OA
BRANCH  30  34
ATOM     31  C   UNL     1      -0.440  -4.222  -0.385  0.00  0.00    -0.045 A 
ATOM     32  C   UNL     1      -0.968  -5.109   0.535  0.00  0.00    +0.007 A 
ATOM     33  C   UNL     1      -2.330  -5.334   0.577  0.00  0.00    +0.046 A 
ATOM     34  C   UNL     1      -3.169  -4.669  -0.306  0.00  0.00    +0.121 A 
ATOM     35  C   UNL     1      -2.637  -3.780  -1.229  0.00  0.00    +0.046 A 
ATOM     36  C   UNL     1      -1.274  -3.554  -1.263  0.00  0.00    +0.007 A 
BRANCH  31  38
ATOM     37  C   UNL     1       1.515  -3.439   0.924  0.00  0.00    +0.012 C 
ATOM     38  C   UNL     1       1.047  -3.979  -0.428  0.00  0.00    +0.013 C 
ATOM     39  C   UNL     1       1.770  -5.293  -0.730  0.00  0.00    +0.012 C 
ENDBRANCH  31  38
ENDBRANCH  30  34
ENDBRANCH  29  30
ENDBRANCH  27  29
ENDBRANCH  26  27
ENDBRANCH   1  26
TORSDOF 11
