REMARK  Name = ZINC06907293
REMARK  8 active torsions:
REMARK  status: ('A' for Active; 'I' for Inactive)
REMARK    1  A    between atoms: C_1  and  C_2
REMARK    2  A    between atoms: C_3  and  C_24
REMARK    3  A    between atoms: C_4  and  C_19
REMARK    4  A    between atoms: C_6  and  C_17
REMARK    5  A    between atoms: C_7  and  S_9
REMARK    6  A    between atoms: S_9  and  C_10
REMARK    7  A    between atoms: C_10  and  C_11
REMARK    8  A    between atoms: N_13  and  C_14
REMARK                            x       y       z     vdW  Elec       q    Type
REMARK                         _______ _______ _______ _____ _____    ______ ____
ROOT
ATOM      1  C   UNL     1      -0.293  -4.317  -2.241  0.00  0.00    +0.061 C 
ATOM      2  C   UNL     1       0.442  -3.733  -1.062  0.00  0.00    +0.015 C 
ATOM      3  C   UNL     1       1.099  -2.572  -1.203  0.00  0.00    +0.046 C 
ATOM      4  C   UNL     1       1.855  -1.948  -0.065  0.00  0.00    +0.134 C 
ATOM      5  C   UNL     1       1.445  -2.557   1.246  0.00  0.00    +0.072 C 
ATOM      6  C   UNL     1       0.765  -3.734   1.295  0.00  0.00    +0.080 C 
ATOM      7  N   UNL     1       0.427  -4.395   0.135  0.00  0.00    -0.312 N 
ATOM      8  H   UNL     1       0.145  -5.457   0.173  0.00  0.00    +0.152 HD
ENDROOT
BRANCH   4   9
ATOM      9  C   UNL     1       1.574  -0.468  -0.035  0.00  0.00    +0.118 A 
ATOM     10  C   UNL     1       2.495   0.509  -0.105  0.00  0.00    +0.045 A 
ATOM     11  C   UNL     1       1.795   1.736  -0.042  0.00  0.00    +0.041 A 
ATOM     12  C   UNL     1       0.488   1.435   0.063  0.00  0.00    +0.195 A 
ATOM     13  O   UNL     1       0.360   0.098   0.067  0.00  0.00    -0.467 OA
ENDBRANCH   4   9
BRANCH   3  14
ATOM     14  C   UNL     1       1.079  -1.916  -2.458  0.00  0.00    +0.240 C 
ATOM     15  O   UNL     1       2.044  -1.987  -3.198  0.00  0.00    -0.271 OA
ATOM     16  N   UNL     1      -0.008  -1.214  -2.834  0.00  0.00    -0.326 N 
ATOM     17  H   UNL     1      -0.024  -0.705  -3.809  0.00  0.00    +0.145 HD
ATOM     18  H   UNL     1      -0.880  -1.150  -2.166  0.00  0.00    +0.145 HD
ENDBRANCH   3  14
BRANCH   5  19
ATOM     19  C   UNL     1       1.776  -1.885   2.466  0.00  0.00    +0.098 C 
ATOM     20  N   UNL     1       2.038  -1.352   3.434  0.00  0.00    -0.191 NA
ENDBRANCH   5  19
BRANCH   6  21
ATOM     21  S   UNL     1       0.312  -4.417   2.855  0.00  0.00    -0.100 S 
BRANCH  21  22
ATOM     22  C   UNL     1      -0.534  -5.920   2.306  0.00  0.00    +0.171 C 
BRANCH  22  23
ATOM     23  C   UNL     1      -1.022  -6.689   3.506  0.00  0.00    +0.223 C 
ATOM     24  O   UNL     1      -0.819  -6.263   4.623  0.00  0.00    -0.275 OA
ATOM     25  N   UNL     1      -1.685  -7.850   3.339  0.00  0.00    -0.312 N 
ATOM     26  H   UNL     1      -1.870  -8.237   2.326  0.00  0.00    +0.149 HD
BRANCH  25  27
ATOM     27  C   UNL     1      -2.160  -8.598   4.506  0.00  0.00    +0.073 C 
ATOM     28  C   UNL     1      -1.950 -10.113   4.508  0.00  0.00    +0.024 C 
ATOM     29  C   UNL     1      -3.353  -9.535   4.307  0.00  0.00    +0.024 C 
ENDBRANCH  25  27
ENDBRANCH  22  23
ENDBRANCH  21  22
ENDBRANCH   6  21
TORSDOF 7
