REMARK  Name = ZINC55028980
REMARK  7 active torsions:
REMARK  status: ('A' for Active; 'I' for Inactive)
REMARK    1  A    between atoms: C_1  and  C_2
REMARK    2  A    between atoms: C_4  and  N_7
REMARK    3  A    between atoms: C_8  and  C_10
REMARK    4  A    between atoms: C_10  and  C_12
REMARK    5  A    between atoms: C_10  and  N_13
REMARK    6  A    between atoms: C_16  and  N_19
REMARK    7  A    between atoms: N_22  and  C_23
REMARK                            x       y       z     vdW  Elec       q    Type
REMARK                         _______ _______ _______ _____ _____    ______ ____
ROOT
ATOM      1  N   UNL     1       0.213  -6.890  -1.085  0.00  0.00    +0.387 N 
ATOM      2  C   UNL     1       0.336  -8.061  -1.961  0.00  0.00    -0.076 C 
ATOM      3  C   UNL     1       0.403  -9.333  -1.113  0.00  0.00    +0.004 C 
ATOM      4  C   UNL     1       1.619  -9.258  -0.185  0.00  0.00    +0.071 C 
ATOM      5  C   UNL     1       1.518  -7.993   0.672  0.00  0.00    +0.004 C 
ATOM      6  C   UNL     1       1.409  -6.771  -0.242  0.00  0.00    -0.076 C 
ATOM      7  H   UNL     1      -0.601  -6.995  -0.498  0.00  0.00    -0.081 HD
ENDROOT
BRANCH   4   8
ATOM      8  N   UNL     1       1.647 -10.437   0.683  0.00  0.00    -0.297 N 
ATOM      9  C   UNL     1       2.814 -10.863   1.205  0.00  0.00    +0.300 C 
ATOM     10  O   UNL     1       3.845 -10.268   0.955  0.00  0.00    -0.253 OA
ATOM     11  N   UNL     1       2.839 -11.948   2.004  0.00  0.00    -0.297 N 
ATOM     12  H   UNL     1       0.824 -10.912   0.883  0.00  0.00    +0.151 HD
ATOM     13  H   UNL     1       2.017 -12.422   2.204  0.00  0.00    +0.151 HD
BRANCH  11  14
ATOM     14  C   UNL     1       4.108 -12.411   2.571  0.00  0.00    +0.074 C 
ATOM     15  C   UNL     1       4.816 -13.318   1.563  0.00  0.00    +0.022 C 
ATOM     16  C   UNL     1       6.142 -13.801   2.156  0.00  0.00    +0.002 C 
ATOM     17  C   UNL     1       5.870 -14.583   3.443  0.00  0.00    +0.000 C 
ATOM     18  C   UNL     1       5.162 -13.676   4.450  0.00  0.00    +0.002 C 
ATOM     19  C   UNL     1       3.836 -13.193   3.858  0.00  0.00    +0.022 C 
ENDBRANCH  11  14
ENDBRANCH   4   8
BRANCH   1  20
ATOM     20  C   UNL     1       0.071  -5.679  -1.905  0.00  0.00    +0.016 C 
ATOM     21  C   UNL     1      -1.180  -5.798  -2.777  0.00  0.00    -0.004 C 
BRANCH  20  23
ATOM     22  N   UNL     1       0.369  -3.269  -1.433  0.00  0.00    -0.256 N 
ATOM     23  C   UNL     1      -0.054  -4.476  -1.007  0.00  0.00    +0.206 C 
ATOM     24  O   UNL     1      -0.537  -4.593   0.100  0.00  0.00    -0.277 OA
ATOM     25  H   UNL     1       0.755  -3.176  -2.318  0.00  0.00    +0.158 HD
BRANCH  22  29
ATOM     26  C   UNL     1       0.609   1.402   0.293  0.00  0.00    +0.069 C 
ATOM     27  C   UNL     1       0.346  -0.079   0.196  0.00  0.00    +0.082 A 
ATOM     28  C   UNL     1       0.637  -0.895  -0.907  0.00  0.00    +0.092 A 
ATOM     29  C   UNL     1       0.253  -2.162  -0.606  0.00  0.00    +0.224 A 
ATOM     30  O   UNL     1      -0.260  -2.151   0.636  0.00  0.00    -0.339 OA
ATOM     31  N   UNL     1      -0.186  -0.824   1.125  0.00  0.00    -0.081 NA
ENDBRANCH  22  29
ENDBRANCH  20  23
ENDBRANCH   1  20
TORSDOF 5
