REMARK  Name = ZINC16292698
REMARK  11 active torsions:
REMARK  status: ('A' for Active; 'I' for Inactive)
REMARK    1  A    between atoms: C_1  and  C_2
REMARK    2  A    between atoms: C_5  and  N_8
REMARK    3  A    between atoms: C_12  and  N_13
REMARK    4  A    between atoms: N_13  and  C_14
REMARK    5  A    between atoms: C_17  and  C_36
REMARK    6  A    between atoms: C_18  and  N_20
REMARK    7  A    between atoms: N_20  and  C_21
REMARK    8  A    between atoms: C_23  and  C_35
REMARK    9  A    between atoms: N_25  and  C_28
REMARK   10  A    between atoms: C_31  and  C_34
REMARK   11  A    between atoms: C_37  and  C_39
REMARK                            x       y       z     vdW  Elec       q    Type
REMARK                         _______ _______ _______ _____ _____    ______ ____
ROOT
ATOM      1  C   UNL     1      -1.075  -9.633   1.414  0.00  0.00    +0.033 A 
ATOM      2  C   UNL     1      -1.362  -9.622   2.774  0.00  0.00    +0.023 A 
ATOM      3  C   UNL     1      -1.577 -10.809   3.446  0.00  0.00    +0.007 A 
ATOM      4  C   UNL     1      -1.506 -12.012   2.769  0.00  0.00    -0.029 A 
ATOM      5  C   UNL     1      -1.220 -12.031   1.410  0.00  0.00    +0.036 A 
ATOM      6  C   UNL     1      -1.009 -10.839   0.730  0.00  0.00    +0.046 A 
ATOM      7  C   UNL     1      -1.740 -13.305   3.507  0.00  0.00    +0.045 C 
ENDROOT
BRANCH   1   8
ATOM      8  N   UNL     1      -0.858  -8.431   0.735  0.00  0.00    -0.320 N 
ATOM      9  H   UNL     1      -0.662  -8.439  -0.215  0.00  0.00    +0.152 HD
BRANCH   8  14
ATOM     10  N   UNL     1      -0.533  -3.878   0.236  0.00  0.00    -0.156 N 
ATOM     11  C   UNL     1      -0.857  -4.705   1.251  0.00  0.00    +0.273 C 
ATOM     12  O   UNL     1      -1.207  -4.385   2.375  0.00  0.00    -0.268 OA
ATOM     13  C   UNL     1      -0.702  -6.068   0.728  0.00  0.00    +0.075 C 
ATOM     14  C   UNL     1      -0.922  -7.259   1.400  0.00  0.00    +0.087 C 
ATOM     15  C   UNL     1      -0.265  -5.893  -0.665  0.00  0.00    +0.070 C 
ATOM     16  N   UNL     1      -0.190  -4.618  -0.894  0.00  0.00    -0.176 NA
ATOM     17  C   UNL     1       0.036  -6.995  -1.648  0.00  0.00    +0.068 C 
BRANCH  10  22
ATOM     18  C   UNL     1      -0.585   1.789   0.519  0.00  0.00    +0.044 C 
ATOM     19  C   UNL     1      -0.571   0.284   0.444  0.00  0.00    -0.050 A 
ATOM     20  C   UNL     1      -0.211  -0.344  -0.734  0.00  0.00    +0.005 A 
ATOM     21  C   UNL     1      -0.198  -1.724  -0.806  0.00  0.00    +0.026 A 
ATOM     22  C   UNL     1      -0.545  -2.479   0.306  0.00  0.00    +0.060 A 
ATOM     23  C   UNL     1      -0.906  -1.845   1.488  0.00  0.00    +0.026 A 
ATOM     24  C   UNL     1      -0.912  -0.465   1.555  0.00  0.00    +0.005 A 
ENDBRANCH  10  22
ENDBRANCH   8  14
ENDBRANCH   1   8
BRANCH   5  25
ATOM     25  N   UNL     1      -1.148 -13.248   0.726  0.00  0.00    -0.320 N 
ATOM     26  H   UNL     1      -1.299 -14.080   1.201  0.00  0.00    +0.152 HD
BRANCH  25  27
ATOM     27  C   UNL     1      -0.870 -13.265  -0.594  0.00  0.00    +0.087 C 
ATOM     28  C   UNL     1      -0.794 -14.471  -1.270  0.00  0.00    +0.075 C 
ATOM     29  C   UNL     1      -0.865 -15.824  -0.699  0.00  0.00    +0.070 C 
ATOM     30  N   UNL     1      -0.754 -16.669  -1.678  0.00  0.00    -0.176 NA
ATOM     31  N   UNL     1      -0.610 -16.013  -2.900  0.00  0.00    -0.156 N 
ATOM     32  C   UNL     1      -0.632 -14.678  -2.715  0.00  0.00    +0.273 C 
ATOM     33  O   UNL     1      -0.536 -13.816  -3.573  0.00  0.00    -0.268 OA
ATOM     34  C   UNL     1      -1.036 -16.167   0.759  0.00  0.00    +0.068 C 
BRANCH  31  35
ATOM     35  C   UNL     1      -0.468 -16.649  -4.140  0.00  0.00    +0.060 A 
ATOM     36  C   UNL     1      -0.324 -15.894  -5.297  0.00  0.00    +0.026 A 
ATOM     37  C   UNL     1      -0.184 -16.524  -6.518  0.00  0.00    +0.005 A 
ATOM     38  C   UNL     1      -0.187 -17.905  -6.589  0.00  0.00    -0.050 A 
ATOM     39  C   UNL     1      -0.330 -18.659  -5.439  0.00  0.00    +0.005 A 
ATOM     40  C   UNL     1      -0.464 -18.035  -4.215  0.00  0.00    +0.026 A 
ATOM     41  C   UNL     1      -0.035 -18.589  -7.923  0.00  0.00    +0.044 C 
ENDBRANCH  31  35
ENDBRANCH  25  27
ENDBRANCH   5  25
TORSDOF 6
