REMARK  Name = ZINC08532548
REMARK  10 active torsions:
REMARK  status: ('A' for Active; 'I' for Inactive)
REMARK    1  A    between atoms: C_1  and  C_2
REMARK    2  A    between atoms: C_2  and  C_4
REMARK    3  A    between atoms: C_2  and  N_52
REMARK    4  A    between atoms: N_6  and  C_7
REMARK    5  A    between atoms: C_8  and  C_15
REMARK    6  A    between atoms: C_18  and  N_52
REMARK    7  A    between atoms: C_19  and  C_20
REMARK    8  A    between atoms: C_19  and  N_52
REMARK    9  A    between atoms: C_20  and  O_21
REMARK   10  A    between atoms: O_21  and  C_22
REMARK                            x       y       z     vdW  Elec       q    Type
REMARK                         _______ _______ _______ _____ _____    ______ ____
ROOT
ATOM      1  C   UNL     1      -0.841   1.562  -3.666  0.00  0.00    +0.204 C 
ATOM      2  O   UNL     1      -1.589   2.503  -3.502  0.00  0.00    -0.277 OA
ATOM      3  N   UNL     1      -0.601   1.101  -4.909  0.00  0.00    -0.281 N 
ATOM      4  H   UNL     1      -0.003   0.348  -5.041  0.00  0.00    +0.155 HD
ENDROOT
BRANCH   3   5
ATOM      5  C   UNL     1      -1.210   1.701  -6.001  0.00  0.00    +0.084 A 
ATOM      6  C   UNL     1      -1.086   1.377  -7.341  0.00  0.00    +0.068 A 
ATOM      7  C   UNL     1      -1.847   2.173  -8.304  0.00  0.00    -0.023 A 
ATOM      8  C   UNL     1      -2.591   3.158  -7.769  0.00  0.00    -0.004 A 
ATOM      9  S   UNL     1      -2.304   3.042  -6.020  0.00  0.00    -0.077 S 
ATOM     10  C   UNL     1      -3.340   3.933  -8.819  0.00  0.00    +0.043 C 
ATOM     11  C   UNL     1      -3.306   3.026 -10.069  0.00  0.00    +0.010 C 
ATOM     12  C   UNL     1      -2.030   2.197  -9.822  0.00  0.00    +0.037 C 
BRANCH   6  13
ATOM     13  C   UNL     1      -0.226   0.274  -7.779  0.00  0.00    +0.244 C 
ATOM     14  O   UNL     1      -0.681  -0.851  -7.876  0.00  0.00    -0.270 OA
ATOM     15  N   UNL     1       1.069   0.505  -8.076  0.00  0.00    -0.325 N 
ATOM     16  H   UNL     1       1.431   1.401  -7.999  0.00  0.00    +0.145 HD
ATOM     17  H   UNL     1       1.638  -0.226  -8.366  0.00  0.00    +0.145 HD
ENDBRANCH   6  13
ENDBRANCH   3   5
BRANCH   1  19
ATOM     18  C   UNL     1      -0.847  -0.439  -2.201  0.00  0.00    -0.004 C 
ATOM     19  C   UNL     1      -0.179   0.910  -2.480  0.00  0.00    +0.016 C 
BRANCH  19  21
ATOM     20  C   UNL     1       0.620   1.383  -0.243  0.00  0.00    -0.095 C 
ATOM     21  N   UNL     1      -0.313   1.804  -1.310  0.00  0.00    +0.387 N 
ATOM     22  H   UNL     1      -0.082   2.763  -1.596  0.00  0.00    -0.081 HD
BRANCH  21  23
ATOM     23  C   UNL     1      -1.702   1.774  -0.808  0.00  0.00    -0.037 C 
BRANCH  23  24
ATOM     24  C   UNL     1      -1.868   2.867   0.251  0.00  0.00    +0.210 C 
BRANCH  24  25
ATOM     25  O   UNL     1      -1.686   4.148  -0.355  0.00  0.00    -0.494 OA
BRANCH  25  26
ATOM     26  C   UNL     1      -1.801   5.235   0.453  0.00  0.00    +0.120 A 
ATOM     27  C   UNL     1      -2.088   5.071   1.800  0.00  0.00    +0.047 A 
ATOM     28  C   UNL     1      -2.200   6.176   2.621  0.00  0.00    +0.023 A 
ATOM     29  C   UNL     1      -2.035   7.447   2.098  0.00  0.00    +0.041 A 
ATOM     30  C   UNL     1      -1.754   7.613   0.754  0.00  0.00    +0.023 A 
ATOM     31  C   UNL     1      -1.636   6.509  -0.069  0.00  0.00    +0.047 A 
ATOM     32 CL   UNL     1      -2.182   8.835   3.131  0.00  0.00    -0.084 Cl
ENDBRANCH  25  26
ENDBRANCH  24  25
ENDBRANCH  23  24
ENDBRANCH  21  23
ENDBRANCH  19  21
ENDBRANCH   1  19
TORSDOF 8
