REMARK  Name = ZINC40297450
REMARK  12 active torsions:
REMARK  status: ('A' for Active; 'I' for Inactive)
REMARK    1  A    between atoms: C_1  and  C_2
REMARK    2  A    between atoms: C_2  and  N_3
REMARK    3  A    between atoms: N_3  and  C_4
REMARK    4  A    between atoms: N_3  and  C_6
REMARK    5  A    between atoms: C_4  and  C_5
REMARK    6  A    between atoms: C_6  and  C_7
REMARK    7  A    between atoms: C_7  and  C_8
REMARK    8  A    between atoms: C_8  and  C_9
REMARK    9  A    between atoms: C_9  and  C_11
REMARK   10  A    between atoms: C_9  and  N_12
REMARK   11  A    between atoms: C_13  and  C_15
REMARK   12  A    between atoms: C_19  and  N_21
REMARK                            x       y       z     vdW  Elec       q    Type
REMARK                         _______ _______ _______ _____ _____    ______ ____
ROOT
ATOM      1  N   UNL     1       1.284  -3.571   3.412  0.00  0.00    -0.309 N 
ATOM      2  C   UNL     1       1.963  -3.219   4.522  0.00  0.00    +0.244 C 
ATOM      3  O   UNL     1       1.393  -3.176   5.595  0.00  0.00    -0.270 OA
ATOM      4  H   UNL     1       1.739  -3.605   2.556  0.00  0.00    +0.149 HD
ENDROOT
BRANCH   2   5
ATOM      5  C   UNL     1       3.400  -2.884   4.434  0.00  0.00    +0.039 A 
ATOM      6  C   UNL     1       4.055  -2.927   3.202  0.00  0.00    +0.014 A 
ATOM      7  C   UNL     1       5.396  -2.614   3.122  0.00  0.00    +0.018 A 
ATOM      8  C   UNL     1       6.097  -2.257   4.260  0.00  0.00    +0.039 A 
ATOM      9  C   UNL     1       5.453  -2.212   5.492  0.00  0.00    +0.039 A 
ATOM     10  C   UNL     1       4.105  -2.519   5.581  0.00  0.00    +0.037 A 
ATOM     11 BR   UNL     1       7.935  -1.831   4.141  0.00  0.00    -0.048 Br
BRANCH   9  12
ATOM     12  N   UNL     1       6.165  -1.852   6.640  0.00  0.00    -0.357 N 
ATOM     13  H   UNL     1       7.108  -1.633   6.577  0.00  0.00    +0.142 HD
ATOM     14  H   UNL     1       5.716  -1.820   7.499  0.00  0.00    +0.142 HD
ENDBRANCH   9  12
ENDBRANCH   2   5
BRANCH   1  15
ATOM     15  C   UNL     1      -0.140  -3.903   3.499  0.00  0.00    +0.070 C 
ATOM     16  C   UNL     1      -0.298  -5.375   3.886  0.00  0.00    +0.028 C 
BRANCH  15  17
ATOM     17  C   UNL     1      -0.805  -3.658   2.143  0.00  0.00    +0.020 C 
BRANCH  17  18
ATOM     18  C   UNL     1      -0.756  -2.164   1.814  0.00  0.00    -0.017 C 
BRANCH  18  19
ATOM     19  C   UNL     1      -1.421  -1.919   0.458  0.00  0.00    -0.079 C 
BRANCH  19  20
ATOM     20  N   UNL     1      -1.374  -0.485   0.142  0.00  0.00    +0.379 N 
ATOM     21  H   UNL     1      -1.792   0.039   0.895  0.00  0.00    -0.082 HD
BRANCH  20  23
ATOM     22  C   UNL     1       0.082   1.451  -0.216  0.00  0.00    -0.017 C 
ATOM     23  C   UNL     1       0.024  -0.066  -0.029  0.00  0.00    -0.082 C 
ENDBRANCH  20  23
BRANCH  20  24
ATOM     24  C   UNL     1      -2.116  -0.233  -1.101  0.00  0.00    -0.082 C 
ATOM     25  C   UNL     1      -3.600  -0.533  -0.879  0.00  0.00    -0.017 C 
ENDBRANCH  20  24
ENDBRANCH  19  20
ENDBRANCH  18  19
ENDBRANCH  17  18
ENDBRANCH  15  17
ENDBRANCH   1  15
TORSDOF 9
