REMARK  Name = ZINC37530468
REMARK  11 active torsions:
REMARK  status: ('A' for Active; 'I' for Inactive)
REMARK    1  A    between atoms: C_2  and  N_34
REMARK    2  A    between atoms: C_4  and  N_10
REMARK    3  A    between atoms: N_13  and  C_14
REMARK    4  A    between atoms: C_14  and  C_15
REMARK    5  A    between atoms: C_15  and  C_16
REMARK    6  A    between atoms: C_16  and  C_17
REMARK    7  A    between atoms: C_17  and  C_18
REMARK    8  A    between atoms: C_18  and  C_19
REMARK    9  A    between atoms: C_19  and  N_20
REMARK   10  A    between atoms: N_23  and  C_24
REMARK   11  A    between atoms: C_31  and  N_33
REMARK                            x       y       z     vdW  Elec       q    Type
REMARK                         _______ _______ _______ _____ _____    ______ ____
ROOT
ATOM      1  C   UNL     1      10.830  -1.153   1.900  0.00  0.00    +0.002 C 
ENDROOT
BRANCH   1   2
ATOM      2  C   UNL     1       9.467  -1.406   2.548  0.00  0.00    +0.002 C 
BRANCH   2   3
ATOM      3  C   UNL     1       8.381  -1.395   1.470  0.00  0.00    +0.019 C 
BRANCH   3   4
ATOM      4  C   UNL     1       7.018  -1.647   2.118  0.00  0.00    +0.106 C 
BRANCH   4   8
ATOM      5  N   UNL     1       3.732  -1.830   0.477  0.00  0.00    -0.293 N 
ATOM      6  C   UNL     1       4.689  -1.839   1.426  0.00  0.00    +0.300 C 
ATOM      7  O   UNL     1       4.390  -2.031   2.589  0.00  0.00    -0.253 OA
ATOM      8  N   UNL     1       5.978  -1.637   1.086  0.00  0.00    -0.299 N 
ATOM      9  H   UNL     1       3.971  -1.677  -0.451  0.00  0.00    +0.151 HD
ATOM     10  H   UNL     1       6.216  -1.484   0.158  0.00  0.00    +0.150 HD
BRANCH   5  13
ATOM     11  C   UNL     1      -0.043  -1.895  -0.001  0.00  0.00    +0.186 C 
ATOM     12  C   UNL     1       1.411  -1.401  -0.200  0.00  0.00    +0.094 C 
ATOM     13  C   UNL     1       2.332  -2.050   0.846  0.00  0.00    +0.114 C 
ATOM     14  C   UNL     1       2.031  -3.576   0.877  0.00  0.00    +0.189 C 
ATOM     15  S   UNL     1       0.194  -3.560   0.743  0.00  0.00    -0.028 S 
ATOM     16  O   UNL     1      -0.210  -4.547  -0.196  0.00  0.00    -0.174 OA
ATOM     17  O   UNL     1      -0.366  -3.566   2.049  0.00  0.00    -0.174 OA
BRANCH  12  18
ATOM     18  N   UNL     1       1.455   0.059  -0.049  0.00  0.00    -0.324 NA
ATOM     19  H   UNL     1       0.882   0.512  -0.745  0.00  0.00    +0.119 HD
ATOM     20  H   UNL     1       1.180   0.335   0.882  0.00  0.00    +0.119 HD
ENDBRANCH  12  18
ENDBRANCH   5  13
ENDBRANCH   4   8
ENDBRANCH   3   4
ENDBRANCH   2   3
ENDBRANCH   1   2
BRANCH   1  21
ATOM     21  C   UNL     1      11.916  -1.164   2.978  0.00  0.00    +0.019 C 
BRANCH  21  22
ATOM     22  C   UNL     1      13.279  -0.911   2.330  0.00  0.00    +0.106 C 
BRANCH  22  23
ATOM     23  N   UNL     1      14.319  -0.922   3.362  0.00  0.00    -0.299 N 
ATOM     24  C   UNL     1      15.608  -0.719   3.022  0.00  0.00    +0.300 C 
ATOM     25  O   UNL     1      15.907  -0.527   1.859  0.00  0.00    -0.253 OA
ATOM     26  N   UNL     1      16.565  -0.729   3.971  0.00  0.00    -0.297 N 
ATOM     27  H   UNL     1      14.081  -1.074   4.290  0.00  0.00    +0.150 HD
ATOM     28  H   UNL     1      16.326  -0.881   4.899  0.00  0.00    +0.151 HD
BRANCH  26  29
ATOM     29  C   UNL     1      17.965  -0.508   3.602  0.00  0.00    +0.082 C 
ATOM     30  C   UNL     1      18.841  -1.535   4.354  0.00  0.00    +0.186 C 
ATOM     31  S   UNL     1      20.341  -0.525   4.725  0.00  0.00    -0.031 S 
ATOM     32  O   UNL     1      20.870  -0.912   5.986  0.00  0.00    -0.174 OA
ATOM     33  O   UNL     1      21.187  -0.502   3.583  0.00  0.00    -0.174 OA
ATOM     34  C   UNL     1      19.493   1.106   4.892  0.00  0.00    +0.151 C 
ATOM     35  C   UNL     1      18.324   0.939   3.901  0.00  0.00    -0.032 C 
BRANCH  35  36
ATOM     36  N   UNL     1      17.141   1.611   4.455  0.00  0.00    +0.382 N 
ATOM     37  H   UNL     1      16.843   1.131   5.292  0.00  0.00    -0.090 HD
ATOM     38  H   UNL     1      17.372   2.567   4.680  0.00  0.00    -0.090 HD
ATOM     39  H   UNL     1      16.396   1.596   3.775  0.00  0.00    -0.090 HD
ENDBRANCH  35  36
ENDBRANCH  26  29
ENDBRANCH  22  23
ENDBRANCH  21  22
ENDBRANCH   1  21
TORSDOF 11
