REMARK  Name = ZINC57788997
REMARK  7 active torsions:
REMARK  status: ('A' for Active; 'I' for Inactive)
REMARK    1  A    between atoms: C_1  and  C_2
REMARK    2  A    between atoms: C_2  and  C_3
REMARK    3  A    between atoms: N_9  and  C_20
REMARK    4  A    between atoms: C_11  and  C_14
REMARK    5  A    between atoms: C_20  and  C_22
REMARK    6  A    between atoms: C_20  and  C_23
REMARK    7  A    between atoms: C_23  and  N_24
REMARK                            x       y       z     vdW  Elec       q    Type
REMARK                         _______ _______ _______ _____ _____    ______ ____
ROOT
ATOM      1  C   UNL     1       0.620  -0.319   1.190  0.00  0.00    -0.046 A 
ATOM      2  C   UNL     1       1.993  -0.462   1.107  0.00  0.00    +0.007 A 
ATOM      3  C   UNL     1       2.714  -0.917   2.195  0.00  0.00    +0.048 A 
ATOM      4  C   UNL     1       2.062  -1.232   3.377  0.00  0.00    +0.142 A 
ATOM      5  C   UNL     1       0.680  -1.085   3.460  0.00  0.00    +0.073 A 
ATOM      6  C   UNL     1      -0.037  -0.625   2.367  0.00  0.00    +0.030 A 
ATOM      7  N   UNL     1       0.017  -1.395   4.657  0.00  0.00    -0.322 N 
ATOM      8  C   UNL     1       0.762  -2.156   5.675  0.00  0.00    +0.154 C 
ATOM      9  C   UNL     1       2.184  -1.580   5.736  0.00  0.00    +0.221 C 
ATOM     10  O   UNL     1       2.779  -1.683   4.441  0.00  0.00    -0.481 OA
ENDROOT
BRANCH   9  11
ATOM     11  C   UNL     1       3.002  -2.358   6.734  0.00  0.00    -0.006 A 
ATOM     12  C   UNL     1       3.640  -3.522   6.347  0.00  0.00    +0.007 A 
ATOM     13  C   UNL     1       4.390  -4.236   7.263  0.00  0.00    +0.000 A 
ATOM     14  C   UNL     1       4.503  -3.787   8.565  0.00  0.00    +0.000 A 
ATOM     15  C   UNL     1       3.865  -2.622   8.952  0.00  0.00    +0.000 A 
ATOM     16  C   UNL     1       3.119  -1.906   8.035  0.00  0.00    +0.007 A 
ENDBRANCH   9  11
BRANCH   1  18
ATOM     17  C   UNL     1      -0.248   1.703   0.047  0.00  0.00    +0.009 C 
ATOM     18  C   UNL     1      -0.159   0.176  -0.001  0.00  0.00    +0.032 C 
ENDBRANCH   1  18
BRANCH   7  19
ATOM     19  C   UNL     1      -1.368  -0.978   4.887  0.00  0.00    +0.053 C 
ATOM     20  C   UNL     1      -2.256  -2.215   5.033  0.00  0.00    +0.026 C 
BRANCH  19  21
ATOM     21  C   UNL     1      -1.444  -0.141   6.165  0.00  0.00    -0.064 C 
BRANCH  21  22
ATOM     22  N   UNL     1      -0.530   1.003   6.056  0.00  0.00    +0.379 N 
ATOM     23  H   UNL     1       0.414   0.669   5.928  0.00  0.00    -0.090 HD
ATOM     24  H   UNL     1      -0.795   1.572   5.266  0.00  0.00    -0.090 HD
ATOM     25  H   UNL     1      -0.579   1.555   6.900  0.00  0.00    -0.090 HD
ENDBRANCH  21  22
ENDBRANCH  19  21
ENDBRANCH   7  19
TORSDOF 5
