REMARK  Name = ZINC54805326
REMARK  10 active torsions:
REMARK  status: ('A' for Active; 'I' for Inactive)
REMARK    1  A    between atoms: C_1  and  C_2
REMARK    2  A    between atoms: N_7  and  C_9
REMARK    3  A    between atoms: C_9  and  C_10
REMARK    4  A    between atoms: C_9  and  C_11
REMARK    5  A    between atoms: C_9  and  C_12
REMARK    6  A    between atoms: C_12  and  N_13
REMARK    7  A    between atoms: N_16  and  N_17
REMARK    8  A    between atoms: N_17  and  C_18
REMARK    9  A    between atoms: C_18  and  N_20
REMARK   10  A    between atoms: N_20  and  C_21
REMARK                            x       y       z     vdW  Elec       q    Type
REMARK                         _______ _______ _______ _____ _____    ______ ____
ROOT
ATOM      1  N   UNL     1       2.186  -4.461   1.142  0.00  0.00    -0.300 N 
ATOM      2  C   UNL     1       2.321  -5.782   0.914  0.00  0.00    +0.316 C 
ATOM      3  O   UNL     1       1.924  -6.584   1.738  0.00  0.00    -0.251 OA
ATOM      4  N   UNL     1       2.894  -6.215  -0.226  0.00  0.00    -0.219 N 
ATOM      5  H   UNL     1       2.502  -3.821   0.485  0.00  0.00    +0.150 HD
ATOM      6  H   UNL     1       2.991  -7.166  -0.390  0.00  0.00    +0.174 HD
ENDROOT
BRANCH   4   7
ATOM      7  N   UNL     1       3.351  -5.290  -1.175  0.00  0.00    -0.245 N 
ATOM      8  H   UNL     1       3.254  -4.339  -1.011  0.00  0.00    +0.172 HD
BRANCH   7   9
ATOM      9  C   UNL     1       3.925  -5.723  -2.315  0.00  0.00    +0.147 C 
ATOM     10  S   UNL     1       4.483  -4.593  -3.474  0.00  0.00    -0.017 S 
BRANCH   9  11
ATOM     11  N   UNL     1       4.059  -7.044  -2.543  0.00  0.00    -0.323 N 
ATOM     12  H   UNL     1       3.743  -7.684  -1.886  0.00  0.00    +0.148 HD
BRANCH  11  13
ATOM     13  C   UNL     1       4.683  -7.514  -3.782  0.00  0.00    +0.072 C 
ATOM     14  C   UNL     1       3.618  -7.652  -4.890  0.00  0.00    +0.022 C 
ATOM     15  C   UNL     1       4.051  -8.914  -5.677  0.00  0.00    +0.002 C 
ATOM     16  C   UNL     1       4.563  -9.856  -4.559  0.00  0.00    +0.002 C 
ATOM     17  C   UNL     1       5.283  -8.915  -3.572  0.00  0.00    +0.022 C 
ENDBRANCH  11  13
ENDBRANCH   9  11
ENDBRANCH   7   9
ENDBRANCH   4   7
BRANCH   1  18
ATOM     18  C   UNL     1       1.562  -3.991   2.382  0.00  0.00    +0.093 C 
BRANCH  18  19
ATOM     19  C   UNL     1       1.534  -2.461   2.390  0.00  0.00    -0.055 C 
ATOM     20  C   UNL     1       2.963  -1.924   2.303  0.00  0.00    -0.008 C 
ATOM     21  C   UNL     1       0.882  -1.970   3.685  0.00  0.00    -0.008 C 
BRANCH  19  27
ATOM     22  C   UNL     1      -0.019   1.526   0.010  0.00  0.00    +0.005 C 
ATOM     23  C   UNL     1       0.002  -0.004   0.002  0.00  0.00    -0.031 C 
ATOM     24  C   UNL     1      -1.434  -0.535   0.015  0.00  0.00    -0.001 C 
ATOM     25  C   UNL     1      -1.402  -2.064   0.086  0.00  0.00    -0.018 C 
ATOM     26  C   UNL     1      -0.613  -2.496   1.324  0.00  0.00    -0.078 C 
ATOM     27  N   UNL     1       0.758  -1.980   1.239  0.00  0.00    +0.384 N 
ATOM     28  C   UNL     1       0.740  -0.512   1.242  0.00  0.00    -0.075 C 
ATOM     29  H   UNL     1       1.188  -2.307   0.386  0.00  0.00    -0.081 HD
ENDBRANCH  19  27
ENDBRANCH  18  19
ENDBRANCH   1  18
TORSDOF 7
