REMARK  Name = ZINC36013955
REMARK  14 active torsions:
REMARK  status: ('A' for Active; 'I' for Inactive)
REMARK    1  A    between atoms: C_1  and  C_2
REMARK    2  A    between atoms: C_2  and  N_3
REMARK    3  A    between atoms: C_4  and  C_23
REMARK    4  A    between atoms: C_5  and  C_18
REMARK    5  A    between atoms: C_6  and  C_11
REMARK    6  A    between atoms: C_15  and  C_17
REMARK    7  A    between atoms: C_18  and  O_20
REMARK    8  A    between atoms: O_20  and  C_21
REMARK    9  A    between atoms: C_21  and  C_22
REMARK   10  A    between atoms: C_23  and  N_24
REMARK   11  A    between atoms: N_33  and  C_34
REMARK   12  A    between atoms: C_34  and  C_35
REMARK   13  A    between atoms: C_34  and  C_36
REMARK   14  A    between atoms: C_34  and  C_37
REMARK                            x       y       z     vdW  Elec       q    Type
REMARK                         _______ _______ _______ _____ _____    ______ ____
ROOT
ATOM      1  N   UNL     1      -2.596  -0.311  -0.269  0.00  0.00    -0.261 N 
ATOM      2  C   UNL     1      -2.820  -0.729   1.012  0.00  0.00    +0.010 C 
ATOM      3  C   UNL     1      -3.896  -1.484   1.321  0.00  0.00    +0.076 C 
ATOM      4  C   UNL     1      -4.845  -1.851   0.199  0.00  0.00    +0.143 C 
ATOM      5  N   UNL     1      -4.514  -1.351  -1.146  0.00  0.00    -0.288 N 
ATOM      6  C   UNL     1      -3.404  -0.602  -1.296  0.00  0.00    +0.307 C 
ATOM      7  O   UNL     1      -3.124  -0.181  -2.401  0.00  0.00    -0.252 OA
ATOM      8  H   UNL     1      -5.084  -1.552  -1.905  0.00  0.00    +0.151 HD
ENDROOT
BRANCH   4   9
ATOM      9  C   UNL     1      -4.922  -3.354   0.129  0.00  0.00    -0.022 A 
ATOM     10  C   UNL     1      -3.919  -4.069  -0.499  0.00  0.00    +0.006 A 
ATOM     11  C   UNL     1      -3.989  -5.448  -0.564  0.00  0.00    +0.001 A 
ATOM     12  C   UNL     1      -5.062  -6.113   0.000  0.00  0.00    +0.003 A 
ATOM     13  C   UNL     1      -6.065  -5.398   0.629  0.00  0.00    -0.050 A 
ATOM     14  C   UNL     1      -5.992  -4.019   0.698  0.00  0.00    +0.009 A 
ATOM     15  C   UNL     1      -7.234  -6.123   1.244  0.00  0.00    +0.044 C 
ENDBRANCH   4   9
BRANCH   1  17
ATOM     16  C   UNL     1      -1.753   1.984  -0.338  0.00  0.00    +0.025 C 
ATOM     17  C   UNL     1      -1.409   0.505  -0.532  0.00  0.00    +0.111 C 
ENDBRANCH   1  17
BRANCH   3  18
ATOM     18  C   UNL     1      -4.128  -1.918   2.648  0.00  0.00    +0.339 C 
ATOM     19  O   UNL     1      -3.377  -1.573   3.541  0.00  0.00    -0.245 OA
BRANCH  18  20
ATOM     20  O   UNL     1      -5.182  -2.714   2.922  0.00  0.00    -0.462 OA
BRANCH  20  21
ATOM     21  C   UNL     1      -5.356  -3.114   4.283  0.00  0.00    +0.229 C 
ATOM     22  C   UNL     1      -6.594  -4.006   4.398  0.00  0.00    +0.048 C 
ENDBRANCH  20  21
ENDBRANCH  18  20
ENDBRANCH   3  18
BRANCH   2  23
ATOM     23  C   UNL     1      -1.849  -0.341   2.098  0.00  0.00    -0.026 C 
BRANCH  23  24
ATOM     24  N   UNL     1      -0.950  -1.468   2.377  0.00  0.00    +0.384 N 
ATOM     25  C   UNL     1      -0.205  -1.173   3.599  0.00  0.00    -0.077 C 
ATOM     26  C   UNL     1       0.141  -2.468   4.299  0.00  0.00    +0.000 C 
ATOM     27  C   UNL     1       1.542  -2.930   3.858  0.00  0.00    +0.107 C 
ATOM     28  N   UNL     1       1.749  -2.695   2.415  0.00  0.00    -0.287 N 
ATOM     29  C   UNL     1       0.719  -2.957   1.431  0.00  0.00    +0.091 C 
ATOM     30  C   UNL     1      -0.152  -1.695   1.234  0.00  0.00    -0.059 C 
ATOM     31  C   UNL     1       2.939  -2.219   1.999  0.00  0.00    +0.303 C 
ATOM     32  O   UNL     1       3.848  -2.074   2.794  0.00  0.00    -0.253 OA
ATOM     33  N   UNL     1       3.123  -1.905   0.701  0.00  0.00    -0.294 N 
ATOM     34  H   UNL     1       2.378  -1.952   0.081  0.00  0.00    +0.151 HD
ATOM     35  H   UNL     1      -1.512  -2.289   2.540  0.00  0.00    -0.081 HD
BRANCH  33  36
ATOM     36  C   UNL     1       4.446  -1.492   0.227  0.00  0.00    +0.028 C 
ATOM     37  C   UNL     1       5.452  -2.616   0.481  0.00  0.00    +0.031 C 
ATOM     38  C   UNL     1       4.381  -1.194  -1.272  0.00  0.00    +0.031 C 
ATOM     39  C   UNL     1       4.887  -0.234   0.979  0.00  0.00    +0.031 C 
ENDBRANCH  33  36
ENDBRANCH  23  24
ENDBRANCH   2  23
TORSDOF 8
