REMARK  Name = ZINC43260410
REMARK  8 active torsions:
REMARK  status: ('A' for Active; 'I' for Inactive)
REMARK    1  A    between atoms: C_1  and  C_2
REMARK    2  A    between atoms: C_2  and  C_4
REMARK    3  A    between atoms: C_2  and  N_21
REMARK    4  A    between atoms: C_4  and  C_6
REMARK    5  A    between atoms: C_4  and  N_12
REMARK    6  A    between atoms: N_15  and  C_18
REMARK    7  A    between atoms: C_18  and  C_19
REMARK    8  A    between atoms: C_19  and  O_20
REMARK                            x       y       z     vdW  Elec       q    Type
REMARK                         _______ _______ _______ _____ _____    ______ ____
ROOT
ATOM      1  C   UNL     1       0.742  -0.511   1.242  0.00  0.00    +0.079 C 
ENDROOT
BRANCH   1   2
ATOM      2  C   UNL     1       0.099  -0.056   2.526  0.00  0.00    +0.006 A 
ATOM      3  C   UNL     1       0.481   0.935   3.368  0.00  0.00    +0.014 A 
ATOM      4  C   UNL     1      -0.270   1.178   4.503  0.00  0.00    +0.023 A 
ATOM      5  C   UNL     1      -1.368   0.418   4.740  0.00  0.00    +0.055 A 
ATOM      6  S   UNL     1      -1.369  -0.678   3.330  0.00  0.00    -0.085 S 
ATOM      7 BR   UNL     1      -2.585   0.502   6.184  0.00  0.00    -0.043 Br
ENDBRANCH   1   2
BRANCH   1   8
ATOM      8  N   UNL     1       0.902  -1.971   1.264  0.00  0.00    -0.294 NA
ATOM      9  C   UNL     1      -0.403  -2.644   1.211  0.00  0.00    +0.100 C 
ATOM     10  C   UNL     1      -0.191  -4.159   1.156  0.00  0.00    +0.100 C 
ATOM     11  N   UNL     1       0.572  -4.587   2.337  0.00  0.00    -0.298 NA
ATOM     12  C   UNL     1       1.877  -3.914   2.390  0.00  0.00    +0.100 C 
ATOM     13  C   UNL     1       1.665  -2.399   2.445  0.00  0.00    +0.100 C 
BRANCH  11  14
ATOM     14  C   UNL     1       0.732  -6.048   2.359  0.00  0.00    +0.112 C 
BRANCH  14  15
ATOM     15  C   UNL     1       1.305  -6.477   3.711  0.00  0.00    +0.171 C 
BRANCH  15  16
ATOM     16  O   UNL     1       0.361  -6.184   4.743  0.00  0.00    -0.394 OA
ATOM     17  H   UNL     1       0.658  -6.431   5.630  0.00  0.00    +0.209 HD
ENDBRANCH  15  16
ENDBRANCH  14  15
ENDBRANCH  11  14
ENDBRANCH   1   8
BRANCH   1  19
ATOM     18  C   UNL     1      -0.310   1.408   0.036  0.00  0.00    -0.012 C 
ATOM     19  C   UNL     1      -0.144  -0.113   0.059  0.00  0.00    -0.056 C 
BRANCH  19  20
ATOM     20  N   UNL     1       0.483  -0.556  -1.193  0.00  0.00    +0.381 N 
ATOM     21  H   UNL     1       1.388  -0.120  -1.289  0.00  0.00    -0.090 HD
ATOM     22  H   UNL     1       0.593  -1.559  -1.178  0.00  0.00    -0.090 HD
ATOM     23  H   UNL     1      -0.101  -0.294  -1.973  0.00  0.00    -0.090 HD
ENDBRANCH  19  20
ENDBRANCH   1  19
TORSDOF 7
