REMARK  Name = ZINC36637582
REMARK  12 active torsions:
REMARK  status: ('A' for Active; 'I' for Inactive)
REMARK    1  A    between atoms: C_1  and  C_2
REMARK    2  A    between atoms: C_7  and  C_8
REMARK    3  A    between atoms: N_12  and  C_13
REMARK    4  A    between atoms: C_13  and  C_14
REMARK    5  A    between atoms: C_14  and  N_15
REMARK    6  A    between atoms: N_15  and  C_16
REMARK    7  A    between atoms: N_15  and  C_17
REMARK    8  A    between atoms: C_18  and  C_20
REMARK    9  A    between atoms: C_23  and  S_26
REMARK   10  A    between atoms: S_26  and  N_29
REMARK   11  A    between atoms: C_31  and  C_38
REMARK   12  A    between atoms: C_34  and  C_37
REMARK                            x       y       z     vdW  Elec       q    Type
REMARK                         _______ _______ _______ _____ _____    ______ ____
ROOT
ATOM      1  C   UNL     1       1.025   1.853   1.204  0.00  0.00    +0.044 C 
ATOM      2  C   UNL     1       0.785   0.381   0.985  0.00  0.00    -0.045 A 
ATOM      3  C   UNL     1       0.710  -0.107  -0.312  0.00  0.00    +0.005 A 
ATOM      4  C   UNL     1       0.491  -1.457  -0.515  0.00  0.00    +0.017 A 
ATOM      5  C   UNL     1       0.351  -2.291   0.566  0.00  0.00    +0.041 A 
ATOM      6  C   UNL     1       0.422  -1.829   1.900  0.00  0.00    +0.083 A 
ATOM      7  C   UNL     1       0.653  -0.445   2.070  0.00  0.00    -0.021 A 
ATOM      8  C   UNL     1       0.749   0.130   3.460  0.00  0.00    +0.046 C 
ATOM      9  N   UNL     1       0.265  -2.772   2.855  0.00  0.00    -0.224 NA
ATOM     10  C   UNL     1       0.059  -4.037   2.571  0.00  0.00    +0.168 A 
ATOM     11  S   UNL     1       0.066  -4.032   0.783  0.00  0.00    -0.052 S 
ATOM     12  N   UNL     1      -0.117  -5.104   3.435  0.00  0.00    -0.248 N 
ATOM     13  C   UNL     1      -0.088  -4.903   4.767  0.00  0.00    +0.252 C 
ATOM     14  O   UNL     1       0.021  -3.776   5.210  0.00  0.00    -0.270 OA
ENDROOT
BRANCH  13  15
ATOM     15  C   UNL     1      -0.188  -6.053   5.690  0.00  0.00    +0.037 A 
ATOM     16  C   UNL     1       0.464  -7.251   5.391  0.00  0.00    +0.015 A 
ATOM     17  C   UNL     1       0.366  -8.321   6.256  0.00  0.00    +0.029 A 
ATOM     18  C   UNL     1      -0.377  -8.209   7.419  0.00  0.00    +0.106 A 
ATOM     19  C   UNL     1      -1.025  -7.024   7.721  0.00  0.00    +0.029 A 
ATOM     20  C   UNL     1      -0.931  -5.945   6.867  0.00  0.00    +0.015 A 
BRANCH  18  21
ATOM     21  S   UNL     1      -0.497  -9.580   8.518  0.00  0.00    +0.061 S 
ATOM     22  O   UNL     1      -1.694  -9.400   9.263  0.00  0.00    -0.153 OA
ATOM     23  O   UNL     1      -0.251 -10.745   7.743  0.00  0.00    -0.153 OA
BRANCH  21  24
ATOM     24  N   UNL     1       0.754  -9.456   9.596  0.00  0.00    -0.176 NA
ATOM     25  C   UNL     1       2.054 -10.077   9.309  0.00  0.00    +0.112 C 
ATOM     26  C   UNL     1       3.148  -9.013   9.439  0.00  0.00    +0.002 C 
ATOM     27  C   UNL     1       3.056  -8.358  10.819  0.00  0.00    +0.009 C 
ATOM     28  C   UNL     1       1.696  -7.673  10.970  0.00  0.00    +0.002 C 
ATOM     29  C   UNL     1       0.587  -8.716  10.854  0.00  0.00    +0.112 C 
ATOM     30  C   UNL     1       1.617  -6.989  12.337  0.00  0.00    +0.009 C 
ATOM     31  C   UNL     1       2.959  -7.950   8.354  0.00  0.00    +0.009 C 
ENDBRANCH  21  24
ENDBRANCH  18  21
ENDBRANCH  13  15
BRANCH  12  32
ATOM     32  C   UNL     1      -0.335  -6.450   2.901  0.00  0.00    +0.097 C 
BRANCH  32  33
ATOM     33  C   UNL     1       0.983  -7.003   2.355  0.00  0.00    -0.060 C 
BRANCH  33  34
ATOM     34  N   UNL     1       0.798  -8.403   1.953  0.00  0.00    +0.377 N 
ATOM     35  C   UNL     1      -0.146  -8.470   0.830  0.00  0.00    -0.097 C 
ATOM     36  C   UNL     1       2.090  -8.969   1.541  0.00  0.00    -0.097 C 
ATOM     37  H   UNL     1       0.433  -8.931   2.732  0.00  0.00    -0.083 HD
ENDBRANCH  33  34
ENDBRANCH  32  33
ENDBRANCH  12  32
TORSDOF 6
