REMARK  Name = ZINC67452224
REMARK  10 active torsions:
REMARK  status: ('A' for Active; 'I' for Inactive)
REMARK    1  A    between atoms: C_1  and  O_2
REMARK    2  A    between atoms: O_2  and  C_3
REMARK    3  A    between atoms: C_5  and  C_14
REMARK    4  A    between atoms: C_8  and  O_9
REMARK    5  A    between atoms: O_9  and  C_10
REMARK    6  A    between atoms: C_10  and  C_11
REMARK    7  A    between atoms: C_14  and  N_15
REMARK    8  A    between atoms: N_15  and  C_16
REMARK    9  A    between atoms: C_16  and  C_17
REMARK   10  A    between atoms: C_22  and  C_23
REMARK                            x       y       z     vdW  Elec       q    Type
REMARK                         _______ _______ _______ _____ _____    ______ ____
ROOT
ATOM      1  C   UNL     1      -4.871   0.257   0.037  0.00  0.00    -0.046 C 
ENDROOT
BRANCH   1   4
ATOM      2  C   UNL     1      -1.201  -0.638   0.010  0.00  0.00    +0.162 A 
ATOM      3  C   UNL     1      -2.374   0.099   0.019  0.00  0.00    +0.051 A 
ATOM      4  C   UNL     1      -3.596  -0.546   0.027  0.00  0.00    -0.061 A 
ATOM      5  C   UNL     1      -3.652  -1.928   0.026  0.00  0.00    +0.005 A 
ATOM      6  C   UNL     1      -2.485  -2.669   0.017  0.00  0.00    +0.049 A 
ATOM      7  C   UNL     1      -1.257  -2.028   0.003  0.00  0.00    +0.163 A 
BRANCH   2   9
ATOM      8  C   UNL     1      -0.017   1.425   0.010  0.00  0.00    +0.277 C 
ATOM      9  O   UNL     1       0.002  -0.004   0.002  0.00  0.00    -0.491 OA
ENDBRANCH   2   9
BRANCH   7  10
ATOM     10  O   UNL     1      -0.108  -2.756  -0.012  0.00  0.00    -0.479 OA
BRANCH  10  11
ATOM     11  C   UNL     1      -0.242  -4.179  -0.018  0.00  0.00    +0.324 C 
BRANCH  11  12
ATOM     12  C   UNL     1       1.125  -4.812  -0.034  0.00  0.00    +0.248 C 
ATOM     13  O   UNL     1       2.117  -4.114  -0.040  0.00  0.00    -0.272 OA
ATOM     14  N   UNL     1       1.247  -6.154  -0.043  0.00  0.00    -0.327 N 
ATOM     15  H   UNL     1       0.454  -6.713  -0.038  0.00  0.00    +0.145 HD
ATOM     16  H   UNL     1       2.127  -6.562  -0.053  0.00  0.00    +0.145 HD
ENDBRANCH  11  12
ENDBRANCH  10  11
ENDBRANCH   7  10
ENDBRANCH   1   4
BRANCH   1  17
ATOM     17  N   UNL     1      -5.295   0.520  -1.344  0.00  0.00    +0.384 N 
ATOM     18  H   UNL     1      -4.575   1.038  -1.824  0.00  0.00    -0.085 HD
ATOM     19  H   UNL     1      -5.454  -0.355  -1.820  0.00  0.00    -0.085 HD
BRANCH  17  20
ATOM     20  C   UNL     1      -6.538   1.303  -1.334  0.00  0.00    -0.043 C 
BRANCH  20  21
ATOM     21  C   UNL     1      -6.973   1.573  -2.752  0.00  0.00    -0.019 A 
ATOM     22  C   UNL     1      -6.775   2.718  -3.440  0.00  0.00    +0.107 A 
ATOM     23  N   UNL     1      -7.309   2.563  -4.671  0.00  0.00    -0.284 N 
ATOM     24  H   UNL     1      -7.312   3.228  -5.378  0.00  0.00    +0.188 HD
ATOM     25  N   UNL     1      -7.859   1.277  -4.750  0.00  0.00    -0.173 NA
ATOM     26  C   UNL     1      -7.654   0.673  -3.597  0.00  0.00    +0.100 A 
BRANCH  26  27
ATOM     27  C   UNL     1      -8.068  -0.704  -3.250  0.00  0.00    +0.039 A 
ATOM     28  C   UNL     1      -9.183  -1.394  -3.642  0.00  0.00    +0.018 A 
ATOM     29  C   UNL     1      -9.359  -2.683  -3.186  0.00  0.00    +0.008 A 
ATOM     30  C   UNL     1      -8.425  -3.227  -2.365  0.00  0.00    +0.046 A 
ATOM     31  S   UNL     1      -7.239  -1.901  -2.217  0.00  0.00    -0.095 S 
ENDBRANCH  26  27
ENDBRANCH  20  21
ENDBRANCH  17  20
ENDBRANCH   1  17
TORSDOF 9
