REMARK  Name = ZINC12407107
REMARK  3 active torsions:
REMARK  status: ('A' for Active; 'I' for Inactive)
REMARK    1  A    between atoms: C_21  and  O_29
REMARK    2  A    between atoms: C_23  and  C_25
REMARK    3  A    between atoms: N_27  and  N_28
REMARK                            x       y       z     vdW  Elec       q    Type
REMARK                         _______ _______ _______ _____ _____    ______ ____
ROOT
ATOM      1  C   UNL     1      -2.078   4.354   7.043  0.00  0.00    +0.001 A 
ATOM      2  C   UNL     1      -1.365   3.452   7.816  0.00  0.00    +0.002 A 
ATOM      3  C   UNL     1      -0.619   2.429   7.258  0.00  0.00    +0.026 A 
ATOM      4  C   UNL     1      -0.612   2.338   5.867  0.00  0.00    +0.047 A 
ATOM      5  C   UNL     1      -1.343   3.265   5.080  0.00  0.00    +0.001 A 
ATOM      6  C   UNL     1      -2.088   4.290   5.671  0.00  0.00    +0.010 A 
ATOM      7  C   UNL     1      -1.115   2.884   3.702  0.00  0.00    -0.036 A 
ATOM      8  C   UNL     1      -0.302   1.804   3.719  0.00  0.00    +0.017 A 
ATOM      9  N   UNL     1       0.003   1.471   5.010  0.00  0.00    -0.358 N 
ATOM     10  H   UNL     1       0.570   0.730   5.276  0.00  0.00    +0.166 HD
ATOM     11  C   UNL     1       0.163   1.122   2.459  0.00  0.00    +0.038 C 
ATOM     12  C   UNL     1      -0.718   1.574   1.279  0.00  0.00    -0.062 C 
ATOM     13  C   UNL     1      -0.013   1.086   0.008  0.00  0.00    -0.011 C 
ATOM     14  C   UNL     1      -0.739   1.586  -1.239  0.00  0.00    +0.003 C 
ATOM     15  C   UNL     1      -0.761   3.119  -1.188  0.00  0.00    -0.024 C 
ATOM     16  C   UNL     1       0.676   3.641  -1.124  0.00  0.00    +0.004 C 
ATOM     17  C   UNL     1       1.440   3.187  -2.369  0.00  0.00    +0.032 C 
ATOM     18  C   UNL     1       1.456   1.658  -2.429  0.00  0.00    +0.127 C 
ATOM     19  C   UNL     1       0.019   1.135  -2.489  0.00  0.00    +0.108 C 
ATOM     20  C   UNL     1      -1.518   3.539   0.069  0.00  0.00    -0.074 C 
ATOM     21  C   UNL     1      -1.640   3.506   2.440  0.00  0.00    -0.040 C 
ATOM     22  N   UNL     1      -0.846   3.064   1.288  0.00  0.00    +0.385 N 
ATOM     23  H   UNL     1       0.093   3.477   1.341  0.00  0.00    -0.081 HD
ENDROOT
BRANCH  19  24
ATOM     24  C   UNL     1       0.035  -0.371  -2.551  0.00  0.00    +0.232 C 
ATOM     25  O   UNL     1      -0.506  -1.020  -1.681  0.00  0.00    -0.274 OA
ATOM     26  N   UNL     1       0.652  -0.997  -3.573  0.00  0.00    -0.253 N 
ATOM     27  H   UNL     1       1.086  -0.478  -4.269  0.00  0.00    +0.169 HD
BRANCH  26  28
ATOM     28  N   UNL     1       0.667  -2.362  -3.629  0.00  0.00    -0.254 NA
ATOM     29  H   UNL     1       1.162  -2.685  -4.446  0.00  0.00    +0.140 HD
ATOM     30  H   UNL     1       1.062  -2.754  -2.788  0.00  0.00    +0.140 HD
ENDBRANCH  26  28
ENDBRANCH  19  24
BRANCH  18  31
ATOM     31  O   UNL     1       2.103   1.141  -1.265  0.00  0.00    -0.391 OA
ATOM     32  H   UNL     1       3.020   1.432  -1.163  0.00  0.00    +0.210 HD
ENDBRANCH  18  31
TORSDOF 3
