REMARK  Name = ZINC03329160
REMARK  11 active torsions:
REMARK  status: ('A' for Active; 'I' for Inactive)
REMARK    1  A    between atoms: C_1  and  C_2
REMARK    2  A    between atoms: C_2  and  O_3
REMARK    3  A    between atoms: O_3  and  C_4
REMARK    4  A    between atoms: C_4  and  C_6
REMARK    5  A    between atoms: C_7  and  N_17
REMARK    6  A    between atoms: C_9  and  C_16
REMARK    7  A    between atoms: C_11  and  C_15
REMARK    8  A    between atoms: C_18  and  C_20
REMARK    9  A    between atoms: C_23  and  S_26
REMARK   10  A    between atoms: S_26  and  N_29
REMARK   11  A    between atoms: N_29  and  C_30
REMARK                            x       y       z     vdW  Elec       q    Type
REMARK                         _______ _______ _______ _____ _____    ______ ____
ROOT
ATOM      1  N   UNL     1      -2.386   5.040   1.238  0.00  0.00    -0.280 N 
ATOM      2  C   UNL     1      -2.163   6.242   0.670  0.00  0.00    +0.248 C 
ATOM      3  O   UNL     1      -1.026   6.655   0.549  0.00  0.00    -0.270 OA
ATOM      4  H   UNL     1      -3.295   4.734   1.384  0.00  0.00    +0.155 HD
ENDROOT
BRANCH   1   6
ATOM      5  C   UNL     1      -0.336   3.896   0.707  0.00  0.00    +0.120 A 
ATOM      6  C   UNL     1      -1.314   4.239   1.615  0.00  0.00    +0.065 A 
ATOM      7  C   UNL     1      -1.197   3.743   2.977  0.00  0.00    +0.033 A 
ATOM      8  C   UNL     1      -2.066   3.958   4.075  0.00  0.00    -0.037 A 
ATOM      9  C   UNL     1      -1.764   3.383   5.287  0.00  0.00    +0.027 A 
ATOM     10  C   UNL     1      -0.619   2.614   5.433  0.00  0.00    +0.040 A 
ATOM     11  N   UNL     1       0.188   2.416   4.409  0.00  0.00    -0.245 NA
ATOM     12  C   UNL     1      -0.061   2.940   3.228  0.00  0.00    +0.111 A 
ATOM     13  S   UNL     1       0.779   2.888   1.664  0.00  0.00    -0.060 S 
ATOM     14  C   UNL     1      -0.298   1.995   6.769  0.00  0.00    +0.065 C 
ATOM     15  C   UNL     1      -3.307   4.799   3.916  0.00  0.00    +0.044 C 
BRANCH   5  16
ATOM     16  C   UNL     1      -0.240   4.258  -0.660  0.00  0.00    +0.348 C 
ATOM     17  O   UNL     1      -1.008   5.077  -1.128  0.00  0.00    -0.244 OA
BRANCH  16  18
ATOM     18  O   UNL     1       0.704   3.694  -1.442  0.00  0.00    -0.461 OA
BRANCH  18  20
ATOM     19  C   UNL     1       1.870   3.365  -3.533  0.00  0.00    +0.048 C 
ATOM     20  C   UNL     1       0.744   4.106  -2.810  0.00  0.00    +0.229 C 
ENDBRANCH  18  20
ENDBRANCH  16  18
ENDBRANCH   5  16
ENDBRANCH   1   6
BRANCH   2  21
ATOM     21  C   UNL     1      -3.300   7.057   0.195  0.00  0.00    +0.037 A 
ATOM     22  C   UNL     1      -4.607   6.583   0.327  0.00  0.00    +0.015 A 
ATOM     23  C   UNL     1      -5.664   7.351  -0.114  0.00  0.00    +0.029 A 
ATOM     24  C   UNL     1      -5.431   8.585  -0.697  0.00  0.00    +0.109 A 
ATOM     25  C   UNL     1      -4.139   9.058  -0.836  0.00  0.00    +0.029 A 
ATOM     26  C   UNL     1      -3.072   8.302  -0.394  0.00  0.00    +0.015 A 
BRANCH  24  27
ATOM     27  S   UNL     1      -6.787   9.556  -1.264  0.00  0.00    +0.072 S 
ATOM     28  O   UNL     1      -7.901   9.212  -0.452  0.00  0.00    -0.150 OA
ATOM     29  O   UNL     1      -6.311  10.890  -1.378  0.00  0.00    -0.150 OA
BRANCH  27  30
ATOM     30  N   UNL     1      -7.145   9.049  -2.799  0.00  0.00    -0.216 N 
ATOM     31  H   UNL     1      -7.105   9.675  -3.538  0.00  0.00    +0.174 HD
BRANCH  30  32
ATOM     32  C   UNL     1      -7.504   7.719  -3.029  0.00  0.00    +0.048 A 
ATOM     33  C   UNL     1      -6.619   6.859  -3.667  0.00  0.00    +0.024 A 
ATOM     34  C   UNL     1      -6.976   5.543  -3.888  0.00  0.00    +0.002 A 
ATOM     35  C   UNL     1      -8.216   5.084  -3.485  0.00  0.00    +0.000 A 
ATOM     36  C   UNL     1      -9.101   5.939  -2.854  0.00  0.00    +0.002 A 
ATOM     37  C   UNL     1      -8.749   7.254  -2.625  0.00  0.00    +0.024 A 
ENDBRANCH  30  32
ENDBRANCH  27  30
ENDBRANCH  24  27
ENDBRANCH   2  21
TORSDOF 8
