REMARK  Name = ZINC39355739
REMARK  11 active torsions:
REMARK  status: ('A' for Active; 'I' for Inactive)
REMARK    1  A    between atoms: C_1  and  C_2
REMARK    2  A    between atoms: C_4  and  C_9
REMARK    3  A    between atoms: C_5  and  O_8
REMARK    4  A    between atoms: C_9  and  C_11
REMARK    5  A    between atoms: C_9  and  C_23
REMARK    6  A    between atoms: C_13  and  N_20
REMARK    7  A    between atoms: C_14  and  O_19
REMARK    8  A    between atoms: C_15  and  O_17
REMARK    9  A    between atoms: O_17  and  C_18
REMARK   10  A    between atoms: C_25  and  C_30
REMARK   11  A    between atoms: C_28  and  O_29
REMARK                            x       y       z     vdW  Elec       q    Type
REMARK                         _______ _______ _______ _____ _____    ______ ____
ROOT
ATOM      1  C   UNL     1       0.064  -0.182  -2.737  0.00  0.00    +0.089 C 
ENDROOT
BRANCH   1   2
ATOM      2  C   UNL     1      -1.361  -0.516  -2.381  0.00  0.00    +0.047 A 
ATOM      3  C   UNL     1      -2.199  -1.300  -3.099  0.00  0.00    +0.041 A 
ATOM      4  N   UNL     1      -3.379  -1.350  -2.446  0.00  0.00    -0.278 N 
ATOM      5  N   UNL     1      -3.266  -0.572  -1.287  0.00  0.00    -0.136 NA
ATOM      6  C   UNL     1      -2.054  -0.075  -1.243  0.00  0.00    +0.236 A 
ATOM      7  C   UNL     1      -1.872  -1.992  -4.397  0.00  0.00    +0.065 C 
ATOM      8  H   UNL     1      -4.167  -1.839  -2.730  0.00  0.00    +0.189 HD
BRANCH   6  10
ATOM      9  H   UNL     1      -1.698   1.673  -0.425  0.00  0.00    +0.294 HD
ATOM     10  O   UNL     1      -1.555   0.730  -0.267  0.00  0.00    -0.491 OA
ENDBRANCH   6  10
ENDBRANCH   1   2
BRANCH   1  13
ATOM     11  C   UNL     1       1.508   1.257  -0.165  0.00  0.00    +0.039 C 
ATOM     12  C   UNL     1       1.090  -0.214  -0.218  0.00  0.00    +0.157 C 
ATOM     13  C   UNL     1       0.984  -0.690  -1.657  0.00  0.00    +0.031 C 
ATOM     14  C   UNL     1       1.897  -1.666  -1.741  0.00  0.00    +0.234 C 
ATOM     15  N   UNL     1       2.529  -1.834  -0.554  0.00  0.00    -0.116 NA
ATOM     16  N   UNL     1       2.144  -1.075   0.344  0.00  0.00    -0.176 NA
BRANCH  14  17
ATOM     17  O   UNL     1       2.155  -2.389  -2.863  0.00  0.00    -0.491 OA
ATOM     18  H   UNL     1       2.846  -3.056  -2.751  0.00  0.00    +0.294 HD
ENDBRANCH  14  17
ENDBRANCH   1  13
BRANCH   1  19
ATOM     19  C   UNL     1       0.213   1.312  -2.863  0.00  0.00    -0.030 A 
ATOM     20  C   UNL     1      -0.910   2.113  -2.947  0.00  0.00    +0.041 A 
ATOM     21  C   UNL     1      -0.779   3.484  -3.063  0.00  0.00    +0.171 A 
ATOM     22  C   UNL     1       0.482   4.059  -3.094  0.00  0.00    +0.189 A 
ATOM     23  C   UNL     1       1.613   3.253  -3.009  0.00  0.00    +0.164 A 
ATOM     24  C   UNL     1       1.474   1.879  -2.889  0.00  0.00    +0.054 A 
BRANCH  21  25
ATOM     25  N   UNL     1      -1.984   4.338  -3.154  0.00  0.00    +0.060 N 
ATOM     26  O   UNL     1      -3.084   3.837  -3.126  0.00  0.00    -0.126 OA
ATOM     27  O   UNL     1      -1.869   5.538  -3.255  0.00  0.00    -0.126 OA
ENDBRANCH  21  25
BRANCH  23  28
ATOM     28  O   UNL     1       2.852   3.812  -3.040  0.00  0.00    -0.491 OA
ATOM     29  C   UNL     1       3.968   2.924  -2.948  0.00  0.00    +0.277 C 
ENDBRANCH  23  28
BRANCH  22  30
ATOM     30  O   UNL     1       0.613   5.408  -3.208  0.00  0.00    -0.502 OA
ATOM     31  H   UNL     1       0.639   5.873  -2.361  0.00  0.00    +0.292 HD
ENDBRANCH  22  30
ENDBRANCH   1  19
TORSDOF 8
