REMARK  Name = ZINC39308691
REMARK  8 active torsions:
REMARK  status: ('A' for Active; 'I' for Inactive)
REMARK    1  A    between atoms: C_1  and  C_2
REMARK    2  A    between atoms: C_6  and  O_30
REMARK    3  A    between atoms: C_7  and  O_29
REMARK    4  A    between atoms: N_12  and  C_13
REMARK    5  A    between atoms: C_13  and  C_14
REMARK    6  A    between atoms: N_16  and  C_17
REMARK    7  A    between atoms: C_22  and  C_23
REMARK    8  A    between atoms: C_23  and  C_25
REMARK                            x       y       z     vdW  Elec       q    Type
REMARK                         _______ _______ _______ _____ _____    ______ ____
ROOT
ATOM      1  C   UNL     1      -0.071  -0.100   2.400  0.00  0.00    +0.020 C 
ENDROOT
BRANCH   1  12
ATOM      2  C   UNL     1       0.002   1.570   0.026  0.00  0.00    -0.008 C 
ATOM      3  C   UNL     1       0.006   0.040   0.008  0.00  0.00    -0.040 C 
ATOM      4  C   UNL     1       0.694  -0.441  -1.242  0.00  0.00    -0.054 A 
ATOM      5  C   UNL     1       0.441   0.224  -2.433  0.00  0.00    +0.051 A 
ATOM      6  C   UNL     1       1.050  -0.185  -3.606  0.00  0.00    +0.158 A 
ATOM      7  C   UNL     1       1.922  -1.270  -3.589  0.00  0.00    +0.158 A 
ATOM      8  C   UNL     1       2.172  -1.930  -2.399  0.00  0.00    +0.053 A 
ATOM      9  C   UNL     1       1.559  -1.515  -1.226  0.00  0.00    -0.044 A 
ATOM     10  C   UNL     1       1.867  -2.257   0.050  0.00  0.00    +0.017 C 
ATOM     11  C   UNL     1       0.819  -1.919   1.111  0.00  0.00    -0.073 C 
ATOM     12  N   UNL     1       0.699  -0.456   1.201  0.00  0.00    +0.390 N 
ATOM     13  H   UNL     1       1.618  -0.043   1.253  0.00  0.00    -0.080 HD
BRANCH   7  14
ATOM     14  O   UNL     1       2.524  -1.681  -4.737  0.00  0.00    -0.503 OA
ATOM     15  H   UNL     1       3.374  -1.254  -4.910  0.00  0.00    +0.292 HD
ENDBRANCH   7  14
BRANCH   6  16
ATOM     16  O   UNL     1       0.799   0.471  -4.771  0.00  0.00    -0.503 OA
ATOM     17  H   UNL     1       1.402   1.206  -4.946  0.00  0.00    +0.292 HD
ENDBRANCH   6  16
ENDBRANCH   1  12
BRANCH   1  18
ATOM     18  C   UNL     1       0.701  -0.501   3.631  0.00  0.00    +0.201 C 
ATOM     19  O   UNL     1       1.786  -1.032   3.519  0.00  0.00    -0.278 OA
ATOM     20  N   UNL     1       0.186  -0.271   4.855  0.00  0.00    -0.286 N 
ATOM     21  H   UNL     1      -0.650   0.212   4.946  0.00  0.00    +0.155 HD
BRANCH  20  22
ATOM     22  C   UNL     1       0.856  -0.725   5.989  0.00  0.00    +0.048 A 
ATOM     23  C   UNL     1       2.241  -0.733   6.022  0.00  0.00    +0.073 A 
ATOM     24  C   UNL     1       2.908  -1.185   7.149  0.00  0.00    +0.168 A 
ATOM     25  C   UNL     1       2.188  -1.636   8.261  0.00  0.00    +0.167 A 
ATOM     26  C   UNL     1       0.811  -1.633   8.241  0.00  0.00    +0.062 A 
ATOM     27  C   UNL     1       0.127  -1.173   7.106  0.00  0.00    +0.042 A 
ATOM     28  O   UNL     1       3.076  -2.022   9.225  0.00  0.00    -0.453 OA
ATOM     29  C   UNL     1       4.333  -2.189   8.544  0.00  0.00    +0.466 C 
ATOM     30  O   UNL     1       4.240  -1.290   7.424  0.00  0.00    -0.453 OA
BRANCH  27  31
ATOM     31  C   UNL     1      -1.337  -1.163   7.082  0.00  0.00    +0.162 C 
ATOM     32  O   UNL     1      -1.925  -0.861   6.065  0.00  0.00    -0.292 OA
ATOM     33  C   UNL     1      -2.113  -1.530   8.321  0.00  0.00    +0.091 C 
ENDBRANCH  27  31
ENDBRANCH  20  22
ENDBRANCH   1  18
TORSDOF 6
