REMARK  Name = ZINC13776534
REMARK  15 active torsions:
REMARK  status: ('A' for Active; 'I' for Inactive)
REMARK    1  A    between atoms: C_1  and  C_2
REMARK    2  A    between atoms: C_2  and  N_3
REMARK    3  A    between atoms: N_3  and  C_4
REMARK    4  A    between atoms: N_3  and  C_6
REMARK    5  A    between atoms: C_4  and  C_5
REMARK    6  A    between atoms: C_9  and  C_12
REMARK    7  A    between atoms: C_20  and  O_38
REMARK    8  A    between atoms: C_23  and  C_24
REMARK    9  A    between atoms: C_23  and  N_78
REMARK   10  A    between atoms: N_26  and  C_27
REMARK   11  A    between atoms: C_28  and  C_34
REMARK   12  A    between atoms: C_29  and  C_33
REMARK   13  A    between atoms: C_30  and  C_32
REMARK   14  A    between atoms: C_34  and  O_36
REMARK   15  A    between atoms: O_36  and  C_37
REMARK                            x       y       z     vdW  Elec       q    Type
REMARK                         _______ _______ _______ _____ _____    ______ ____
ROOT
ATOM      1  C   UNL     1       0.972   6.915   3.609  0.00  0.00    -0.031 C 
ATOM      2  C   UNL     1       2.300   6.972   4.370  0.00  0.00    +0.011 C 
ATOM      3  C   UNL     1       3.416   6.429   3.473  0.00  0.00    +0.005 C 
ATOM      4  C   UNL     1       4.752   6.507   4.213  0.00  0.00    +0.000 C 
ATOM      5  C   UNL     1       5.053   7.965   4.566  0.00  0.00    +0.003 C 
ATOM      6  C   UNL     1       3.943   8.508   5.468  0.00  0.00    +0.035 C 
ATOM      7  C   UNL     1       2.597   8.425   4.748  0.00  0.00    +0.066 C 
ATOM      8  C   UNL     1       2.648   9.275   3.476  0.00  0.00    +0.016 C 
ATOM      9  C   UNL     1       1.315   9.150   2.733  0.00  0.00    -0.075 C 
ATOM     10  N   UNL     1       1.091   7.731   2.382  0.00  0.00    +0.390 N 
ATOM     11  H   UNL     1       1.892   7.394   1.834  0.00  0.00    -0.080 HD
ENDROOT
BRANCH   1  15
ATOM     12  C   UNL     1       0.130   2.872   2.511  0.00  0.00    +0.030 A 
ATOM     13  C   UNL     1       1.026   3.624   1.763  0.00  0.00    +0.023 A 
ATOM     14  C   UNL     1       1.292   4.932   2.117  0.00  0.00    +0.004 A 
ATOM     15  C   UNL     1       0.675   5.489   3.222  0.00  0.00    -0.060 A 
ATOM     16  C   UNL     1      -0.215   4.742   3.972  0.00  0.00    +0.004 A 
ATOM     17  C   UNL     1      -0.489   3.435   3.620  0.00  0.00    +0.023 A 
BRANCH  12  18
ATOM     18  N   UNL     1      -0.145   1.550   2.152  0.00  0.00    -0.330 N 
BRANCH  18  20
ATOM     19  C   UNL     1      -0.350   1.203  -0.260  0.00  0.00    +0.024 C 
ATOM     20  C   UNL     1       0.508   0.957   0.983  0.00  0.00    +0.102 C 
ENDBRANCH  18  20
BRANCH  18  21
ATOM     21  C   UNL     1      -1.087   0.756   2.946  0.00  0.00    +0.102 C 
ATOM     22  C   UNL     1      -0.329   0.028   4.058  0.00  0.00    +0.024 C 
ENDBRANCH  18  21
ENDBRANCH  12  18
ENDBRANCH   1  15
BRANCH   7  23
ATOM     23  O   UNL     1       1.560   8.915   5.601  0.00  0.00    -0.388 OA
ATOM     24  H   UNL     1       1.682   9.832   5.881  0.00  0.00    +0.210 HD
ENDBRANCH   7  23
BRANCH  10  25
ATOM     25  C   UNL     1      -0.135   7.601   1.568  0.00  0.00    +0.020 C 
BRANCH  25  26
ATOM     26  C   UNL     1      -1.326   8.145   2.314  0.00  0.00    +0.201 C 
ATOM     27  O   UNL     1      -1.207   8.509   3.465  0.00  0.00    -0.278 OA
ATOM     28  N   UNL     1      -2.524   8.228   1.702  0.00  0.00    -0.281 N 
ATOM     29  H   UNL     1      -2.619   7.937   0.781  0.00  0.00    +0.155 HD
BRANCH  28  30
ATOM     30  C   UNL     1      -3.620   8.728   2.387  0.00  0.00    +0.086 A 
ATOM     31  C   UNL     1      -4.924   8.890   1.931  0.00  0.00    +0.091 A 
ATOM     32  C   UNL     1      -5.875   9.440   2.869  0.00  0.00    -0.025 A 
ATOM     33  C   UNL     1      -5.420   9.748   4.096  0.00  0.00    -0.008 A 
ATOM     34  S   UNL     1      -3.699   9.297   4.021  0.00  0.00    -0.078 S 
ATOM     35  C   UNL     1      -6.184  10.328   5.258  0.00  0.00    +0.052 C 
ATOM     36  C   UNL     1      -7.316   9.661   2.487  0.00  0.00    +0.045 C 
BRANCH  31  37
ATOM     37  C   UNL     1      -5.314   8.521   0.569  0.00  0.00    +0.342 C 
ATOM     38  O   UNL     1      -5.712   7.396   0.334  0.00  0.00    -0.245 OA
BRANCH  37  39
ATOM     39  O   UNL     1      -5.231   9.429  -0.425  0.00  0.00    -0.464 OA
ATOM     40  C   UNL     1      -5.633   8.994  -1.751  0.00  0.00    +0.280 C 
ENDBRANCH  37  39
ENDBRANCH  31  37
ENDBRANCH  28  30
ENDBRANCH  25  26
ENDBRANCH  10  25
TORSDOF 10
