REMARK  Name = ZINC60399572
REMARK  7 active torsions:
REMARK  status: ('A' for Active; 'I' for Inactive)
REMARK    1  A    between atoms: C_1  and  C_2
REMARK    2  A    between atoms: C_3  and  C_22
REMARK    3  A    between atoms: C_7  and  N_8
REMARK    4  A    between atoms: C_9  and  C_11
REMARK    5  A    between atoms: C_13  and  S_18
REMARK    6  A    between atoms: S_18  and  N_21
REMARK    7  A    between atoms: N_24  and  C_25
REMARK                            x       y       z     vdW  Elec       q    Type
REMARK                         _______ _______ _______ _____ _____    ______ ____
ROOT
ATOM      1  N   UNL     1       0.165   0.029   2.453  0.00  0.00    -0.281 N 
ATOM      2  C   UNL     1      -0.234  -0.580   3.587  0.00  0.00    +0.250 C 
ATOM      3  O   UNL     1      -0.729  -1.689   3.539  0.00  0.00    -0.270 OA
ATOM      4  H   UNL     1       0.489   0.943   2.481  0.00  0.00    +0.155 HD
ENDROOT
BRANCH   1  11
ATOM      5  C   UNL     1       0.138   1.558   0.055  0.00  0.00    +0.046 C 
ATOM      6  C   UNL     1       0.095   0.051   0.042  0.00  0.00    -0.017 A 
ATOM      7  C   UNL     1       0.046  -0.637  -1.171  0.00  0.00    +0.041 A 
ATOM      8  C   UNL     1       0.008  -2.032  -1.175  0.00  0.00    +0.013 A 
ATOM      9  C   UNL     1       0.018  -2.726   0.018  0.00  0.00    +0.003 A 
ATOM     10  C   UNL     1       0.066  -2.045   1.219  0.00  0.00    +0.023 A 
ATOM     11  C   UNL     1       0.110  -0.655   1.234  0.00  0.00    +0.037 A 
BRANCH   7  12
ATOM     12  C   UNL     1       0.035   0.110  -2.447  0.00  0.00    +0.244 C 
ATOM     13  O   UNL     1       0.196   1.314  -2.448  0.00  0.00    -0.270 OA
ATOM     14  N   UNL     1      -0.153  -0.546  -3.610  0.00  0.00    -0.314 N 
ATOM     15  C   UNL     1      -0.164   0.193  -4.874  0.00  0.00    +0.128 C 
ATOM     16  H   UNL     1      -0.281  -1.508  -3.609  0.00  0.00    +0.149 HD
ENDBRANCH   7  12
ENDBRANCH   1  11
BRANCH   2  17
ATOM     17  C   UNL     1      -0.070   0.100   4.888  0.00  0.00    +0.057 A 
ATOM     18  C   UNL     1       0.493   1.377   4.946  0.00  0.00    +0.043 A 
ATOM     19  C   UNL     1       0.643   2.006   6.163  0.00  0.00    +0.106 A 
ATOM     20  C   UNL     1       0.238   1.376   7.327  0.00  0.00    +0.030 A 
ATOM     21  C   UNL     1      -0.319   0.112   7.279  0.00  0.00    +0.022 A 
ATOM     22  C   UNL     1      -0.482  -0.528   6.065  0.00  0.00    +0.053 A 
ATOM     23 CL   UNL     1      -1.189  -2.113   6.005  0.00  0.00    -0.083 Cl
BRANCH  19  24
ATOM     24  S   UNL     1       1.354   3.617   6.238  0.00  0.00    +0.056 S 
ATOM     25  O   UNL     1       1.886   3.766   7.547  0.00  0.00    -0.153 OA
ATOM     26  O   UNL     1       2.150   3.764   5.071  0.00  0.00    -0.153 OA
BRANCH  24  27
ATOM     27  N   UNL     1       0.113   4.706   6.105  0.00  0.00    -0.204 NA
ATOM     28  H   UNL     1       0.181   5.573   6.534  0.00  0.00    +0.144 HD
ATOM     29  H   UNL     1      -0.681   4.476   5.598  0.00  0.00    +0.144 HD
ENDBRANCH  24  27
ENDBRANCH  19  24
ENDBRANCH   2  17
TORSDOF 5
