REMARK  Name = ZINC22537298
REMARK  12 active torsions:
REMARK  status: ('A' for Active; 'I' for Inactive)
REMARK    1  A    between atoms: C_1  and  C_2
REMARK    2  A    between atoms: C_4  and  C_37
REMARK    3  A    between atoms: C_5  and  C_9
REMARK    4  A    between atoms: C_7  and  C_8
REMARK    5  A    between atoms: C_9  and  C_11
REMARK    6  A    between atoms: C_9  and  N_12
REMARK    7  A    between atoms: C_13  and  C_15
REMARK    8  A    between atoms: C_15  and  O_16
REMARK    9  A    between atoms: O_16  and  C_17
REMARK   10  A    between atoms: C_20  and  S_24
REMARK   11  A    between atoms: C_22  and  C_23
REMARK   12  A    between atoms: S_24  and  N_27
REMARK                            x       y       z     vdW  Elec       q    Type
REMARK                         _______ _______ _______ _____ _____    ______ ____
ROOT
ATOM      1  C   UNL     1       3.929  -3.388  -2.872  0.00  0.00    +0.124 A 
ATOM      2  C   UNL     1       3.156  -3.875  -1.828  0.00  0.00    +0.048 A 
ATOM      3  C   UNL     1       3.057  -3.159  -0.651  0.00  0.00    +0.032 A 
ATOM      4  C   UNL     1       3.718  -1.952  -0.516  0.00  0.00    +0.109 A 
ATOM      5  C   UNL     1       4.489  -1.464  -1.555  0.00  0.00    +0.035 A 
ATOM      6  C   UNL     1       4.596  -2.179  -2.733  0.00  0.00    -0.007 A 
ATOM      7  C   UNL     1       5.436  -1.646  -3.865  0.00  0.00    +0.047 C 
ENDROOT
BRANCH   4   8
ATOM      8  S   UNL     1       3.584  -1.038   0.984  0.00  0.00    +0.075 S 
ATOM      9  O   UNL     1       4.738  -0.213   1.062  0.00  0.00    -0.150 OA
ATOM     10  O   UNL     1       3.245  -1.972   2.000  0.00  0.00    -0.150 OA
BRANCH   8  11
ATOM     11  N   UNL     1       2.286  -0.022   0.823  0.00  0.00    -0.203 N 
ATOM     12  C   UNL     1       2.475   1.366   0.381  0.00  0.00    +0.132 C 
ATOM     13  C   UNL     1       1.621   2.266   1.284  0.00  0.00    +0.025 C 
ATOM     14  C   UNL     1       0.148   1.907   1.088  0.00  0.00    +0.038 C 
ATOM     15  C   UNL     1      -0.058   0.424   1.243  0.00  0.00    -0.025 A 
ATOM     16  C   UNL     1       0.991  -0.472   1.106  0.00  0.00    +0.054 A 
ATOM     17  C   UNL     1       0.765  -1.836   1.252  0.00  0.00    +0.025 A 
ATOM     18  C   UNL     1      -0.504  -2.300   1.534  0.00  0.00    +0.002 A 
ATOM     19  C   UNL     1      -1.550  -1.406   1.673  0.00  0.00    +0.000 A 
ATOM     20  C   UNL     1      -1.328  -0.050   1.528  0.00  0.00    +0.005 A 
ENDBRANCH   8  11
ENDBRANCH   4   8
BRANCH   1  21
ATOM     21  O   UNL     1       4.033  -4.092  -4.029  0.00  0.00    -0.483 OA
BRANCH  21  22
ATOM     22  C   UNL     1       3.319  -5.328  -4.102  0.00  0.00    +0.324 C 
BRANCH  22  24
ATOM     23  N   UNL     1       2.973  -7.144  -5.745  0.00  0.00    -0.306 N 
ATOM     24  C   UNL     1       3.551  -5.964  -5.449  0.00  0.00    +0.251 C 
ATOM     25  O   UNL     1       4.258  -5.412  -6.266  0.00  0.00    -0.272 OA
ATOM     26  H   UNL     1       2.332  -7.644  -5.005  0.00  0.00    +0.149 HD
BRANCH  23  27
ATOM     27  C   UNL     1       3.198  -7.762  -7.055  0.00  0.00    +0.100 C 
ATOM     28  C   UNL     1       2.205  -7.188  -8.067  0.00  0.00    +0.033 C 
BRANCH  27  33
ATOM     29  C   UNL     1       2.444 -13.477  -6.645  0.00  0.00    +0.044 C 
ATOM     30  C   UNL     1       2.641 -11.986  -6.751  0.00  0.00    -0.047 A 
ATOM     31  C   UNL     1       3.449 -11.465  -7.745  0.00  0.00    +0.007 A 
ATOM     32  C   UNL     1       3.625 -10.098  -7.846  0.00  0.00    -0.045 A 
ATOM     33  C   UNL     1       3.002  -9.252  -6.947  0.00  0.00    -0.024 A 
ATOM     34  C   UNL     1       2.195  -9.773  -5.954  0.00  0.00    +0.009 A 
ATOM     35  C   UNL     1       2.014 -11.140  -5.856  0.00  0.00    -0.047 A 
ATOM     36  C   UNL     1       1.133 -11.709  -4.773  0.00  0.00    +0.044 C 
ATOM     37  C   UNL     1       4.500  -9.530  -8.933  0.00  0.00    +0.044 C 
ENDBRANCH  27  33
ENDBRANCH  23  27
ENDBRANCH  22  24
ENDBRANCH  21  22
ENDBRANCH   1  21
TORSDOF 7
