REMARK  Name = ZINC06661004
REMARK  7 active torsions:
REMARK  status: ('A' for Active; 'I' for Inactive)
REMARK    1  A    between atoms: C_1  and  N_48
REMARK    2  A    between atoms: C_2  and  N_48
REMARK    3  A    between atoms: C_3  and  C_4
REMARK    4  A    between atoms: C_3  and  N_48
REMARK    5  A    between atoms: C_4  and  N_5
REMARK    6  A    between atoms: C_11  and  C_21
REMARK    7  A    between atoms: C_16  and  O_20
REMARK                            x       y       z     vdW  Elec       q    Type
REMARK                         _______ _______ _______ _____ _____    ______ ____
ROOT
ATOM      1  N   UNL     1       0.677   0.309  -0.004  0.00  0.00    -0.320 N 
ATOM      2  C   UNL     1       1.075   1.606  -0.001  0.00  0.00    +0.204 A 
ATOM      3  N   UNL     1       2.335   1.932  -0.012  0.00  0.00    -0.202 NA
ATOM      4  C   UNL     1       3.314   1.007  -0.028  0.00  0.00    +0.229 A 
ATOM      5  C   UNL     1       2.994  -0.317  -0.034  0.00  0.00    +0.066 A 
ATOM      6  C   UNL     1       1.629  -0.691  -0.021  0.00  0.00    +0.115 A 
ATOM      7  C   UNL     1       4.056  -1.379  -0.055  0.00  0.00    +0.093 C 
ATOM      8  C   UNL     1       5.372  -0.795  -0.493  0.00  0.00    +0.007 A 
ATOM      9  C   UNL     1       6.380  -1.636  -0.930  0.00  0.00    +0.012 A 
ATOM     10  C   UNL     1       7.593  -1.116  -1.336  0.00  0.00    +0.046 A 
ATOM     11  C   UNL     1       7.803   0.256  -1.308  0.00  0.00    +0.120 A 
ATOM     12  C   UNL     1       6.796   1.100  -0.871  0.00  0.00    +0.092 A 
ATOM     13  C   UNL     1       5.577   0.575  -0.462  0.00  0.00    +0.138 A 
ATOM     14  O   UNL     1       4.601   1.413  -0.037  0.00  0.00    -0.437 OA
ATOM     15  H   UNL     1       0.363  -2.303  -0.017  0.00  0.00    +0.157 HD
ATOM     16  N   UNL     1       1.337  -1.998  -0.026  0.00  0.00    -0.384 N 
ATOM     17  H   UNL     1       2.092  -2.693  -0.039  0.00  0.00    +0.157 HD
ENDROOT
BRANCH   7  18
ATOM     18  C   UNL     1       4.208  -1.960   1.328  0.00  0.00    -0.017 A 
ATOM     19  C   UNL     1       4.575  -1.145   2.383  0.00  0.00    +0.006 A 
ATOM     20  C   UNL     1       4.710  -1.676   3.652  0.00  0.00    +0.000 A 
ATOM     21  C   UNL     1       4.489  -3.025   3.865  0.00  0.00    +0.001 A 
ATOM     22  C   UNL     1       4.127  -3.841   2.809  0.00  0.00    +0.020 A 
ATOM     23  C   UNL     1       3.987  -3.308   1.540  0.00  0.00    +0.045 A 
ATOM     24 CL   UNL     1       3.533  -4.333   0.214  0.00  0.00    -0.083 Cl
ENDBRANCH   7  18
BRANCH  11  25
ATOM     25  O   UNL     1       8.996   0.770  -1.709  0.00  0.00    -0.507 OA
ATOM     26  H   UNL     1       9.646   0.855  -0.999  0.00  0.00    +0.292 HD
ENDBRANCH  11  25
BRANCH   1  27
ATOM     27  C   UNL     1      -0.749  -0.027   0.012  0.00  0.00    +0.106 C 
BRANCH  27  28
ATOM     28  C   UNL     1      -1.199  -0.275   1.453  0.00  0.00    -0.058 C 
BRANCH  28  31
ATOM     29  C   UNL     1      -2.874  -1.897   0.800  0.00  0.00    -0.097 C 
ATOM     30  C   UNL     1      -3.152  -0.624   2.841  0.00  0.00    -0.097 C 
ATOM     31  N   UNL     1      -2.643  -0.591   1.453  0.00  0.00    +0.377 N 
ATOM     32  H   UNL     1      -3.144   0.137   0.931  0.00  0.00    -0.083 HD
ENDBRANCH  28  31
ENDBRANCH  27  28
ENDBRANCH   1  27
TORSDOF 5
