REMARK  Name = ZINC49150563
REMARK  7 active torsions:
REMARK  status: ('A' for Active; 'I' for Inactive)
REMARK    1  A    between atoms: C_1  and  C_2
REMARK    2  A    between atoms: C_2  and  C_4
REMARK    3  A    between atoms: C_2  and  N_10
REMARK    4  A    between atoms: C_4  and  N_5
REMARK    5  A    between atoms: N_10  and  S_11
REMARK    6  A    between atoms: S_11  and  C_14
REMARK    7  A    between atoms: C_19  and  N_20
REMARK                            x       y       z     vdW  Elec       q    Type
REMARK                         _______ _______ _______ _____ _____    ______ ____
ROOT
ATOM      1  S   UNL     1       2.314  -0.993   1.079  0.00  0.00    +0.060 S 
ATOM      2  O   UNL     1       2.784  -1.553   2.298  0.00  0.00    -0.153 OA
ATOM      3  O   UNL     1       2.303  -1.723  -0.140  0.00  0.00    -0.153 OA
ENDROOT
BRANCH   1   4
ATOM      4  C   UNL     1       3.272   0.457   0.789  0.00  0.00    +0.126 A 
ATOM      5  C   UNL     1       3.865   0.658  -0.442  0.00  0.00    +0.031 A 
ATOM      6  C   UNL     1       4.616   1.796  -0.671  0.00  0.00    +0.017 A 
ATOM      7  C   UNL     1       4.777   2.737   0.332  0.00  0.00    +0.020 A 
ATOM      8  C   UNL     1       4.186   2.541   1.565  0.00  0.00    +0.040 A 
ATOM      9  C   UNL     1       3.425   1.401   1.796  0.00  0.00    +0.052 A 
ATOM     10 BR   UNL     1       5.805   4.291   0.013  0.00  0.00    -0.050 Br
BRANCH   9  11
ATOM     11  N   UNL     1       2.822   1.203   3.040  0.00  0.00    -0.356 N 
ATOM     12  H   UNL     1       2.228   0.448   3.176  0.00  0.00    +0.142 HD
ATOM     13  H   UNL     1       2.996   1.820   3.768  0.00  0.00    +0.142 HD
ENDBRANCH   9  11
ENDBRANCH   1   4
BRANCH   1  14
ATOM     14  N   UNL     1       0.756  -0.505   1.353  0.00  0.00    -0.189 NA
ATOM     15  H   UNL     1       0.349  -0.645   2.222  0.00  0.00    +0.148 HD
BRANCH  14  17
ATOM     16  C   UNL     1       0.053   1.658   0.453  0.00  0.00    +0.024 C 
ATOM     17  C   UNL     1      -0.009   0.139   0.282  0.00  0.00    +0.057 C 
BRANCH  17  18
ATOM     18  C   UNL     1      -1.466  -0.322   0.347  0.00  0.00    -0.059 C 
BRANCH  18  19
ATOM     19  N   UNL     1      -1.517  -1.790   0.303  0.00  0.00    +0.381 N 
ATOM     20  C   UNL     1      -0.957  -2.360   1.555  0.00  0.00    -0.079 C 
ATOM     21  C   UNL     1      -1.577  -3.779   1.607  0.00  0.00    -0.020 C 
ATOM     22  C   UNL     1      -3.006  -3.552   1.061  0.00  0.00    -0.020 C 
ATOM     23  C   UNL     1      -2.922  -2.249   0.244  0.00  0.00    -0.079 C 
ATOM     24  H   UNL     1      -1.005  -2.132  -0.496  0.00  0.00    -0.082 HD
ENDBRANCH  18  19
ENDBRANCH  17  18
ENDBRANCH  14  17
ENDBRANCH   1  14
TORSDOF 6
