REMARK  Name = ZINC12909366
REMARK  7 active torsions:
REMARK  status: ('A' for Active; 'I' for Inactive)
REMARK    1  A    between atoms: C_1  and  C_2
REMARK    2  A    between atoms: C_2  and  C_4
REMARK    3  A    between atoms: C_2  and  N_48
REMARK    4  A    between atoms: C_13  and  C_15
REMARK    5  A    between atoms: C_13  and  C_16
REMARK    6  A    between atoms: C_13  and  N_48
REMARK    7  A    between atoms: N_18  and  C_19
REMARK                            x       y       z     vdW  Elec       q    Type
REMARK                         _______ _______ _______ _____ _____    ______ ____
ROOT
ATOM      1  C   UNL     1      -4.974   3.788  -0.154  0.00  0.00    +0.014 C 
ATOM      2  C   UNL     1      -5.178   4.670   1.080  0.00  0.00    -0.004 C 
ENDROOT
BRANCH   1   3
ATOM      3  C   UNL     1      -3.656   3.065  -0.042  0.00  0.00    +0.203 C 
ATOM      4  O   UNL     1      -3.629   1.853  -0.035  0.00  0.00    -0.277 OA
ATOM      5  N   UNL     1      -2.509   3.766   0.051  0.00  0.00    -0.286 N 
ATOM      6  H   UNL     1      -2.535   4.734   0.106  0.00  0.00    +0.155 HD
BRANCH   5   7
ATOM      7  C   UNL     1      -1.283   3.098   0.067  0.00  0.00    +0.041 A 
ATOM      8  C   UNL     1      -1.169   1.868   0.678  0.00  0.00    +0.024 A 
ATOM      9  C   UNL     1       0.050   1.197   0.705  0.00  0.00    +0.002 A 
ATOM     10  C   UNL     1       1.159   1.729   0.120  0.00  0.00    +0.008 A 
ATOM     11  C   UNL     1       1.083   2.979  -0.519  0.00  0.00    -0.016 A 
ATOM     12  C   UNL     1      -0.151   3.674  -0.548  0.00  0.00    +0.003 A 
ATOM     13  C   UNL     1      -0.224   4.921  -1.187  0.00  0.00    +0.010 A 
ATOM     14  C   UNL     1       0.888   5.447  -1.770  0.00  0.00    +0.001 A 
ATOM     15  C   UNL     1       2.103   4.764  -1.742  0.00  0.00    +0.001 A 
ATOM     16  C   UNL     1       2.211   3.552  -1.131  0.00  0.00    +0.008 A 
ENDBRANCH   5   7
ENDBRANCH   1   3
BRANCH   1  17
ATOM     17  N   UNL     1      -6.064   2.798  -0.236  0.00  0.00    +0.393 N 
ATOM     18  H   UNL     1      -5.717   1.949  -0.698  0.00  0.00    -0.084 HD
ATOM     19  H   UNL     1      -6.384   2.566   0.712  0.00  0.00    -0.084 HD
BRANCH  17  21
ATOM     20  C   UNL     1      -8.497   2.719  -0.508  0.00  0.00    -0.006 C 
ATOM     21  C   UNL     1      -7.195   3.345  -1.010  0.00  0.00    -0.006 C 
BRANCH  21  22
ATOM     22  C   UNL     1      -7.010   3.017  -2.470  0.00  0.00    +0.092 A 
ATOM     23  C   UNL     1      -7.288   3.847  -3.484  0.00  0.00    +0.051 A 
ATOM     24  C   UNL     1      -6.958   3.116  -4.713  0.00  0.00    +0.020 A 
ATOM     25  C   UNL     1      -7.019   3.417  -6.073  0.00  0.00    +0.011 A 
ATOM     26  C   UNL     1      -6.625   2.485  -6.992  0.00  0.00    +0.001 A 
ATOM     27  C   UNL     1      -6.164   1.243  -6.580  0.00  0.00    +0.004 A 
ATOM     28  C   UNL     1      -6.096   0.927  -5.240  0.00  0.00    +0.047 A 
ATOM     29  C   UNL     1      -6.492   1.860  -4.289  0.00  0.00    +0.135 A 
ATOM     30  O   UNL     1      -6.536   1.850  -2.942  0.00  0.00    -0.461 OA
ENDBRANCH  21  22
ENDBRANCH  17  21
ENDBRANCH   1  17
TORSDOF 5
