REMARK  Name = ZINC15898849
REMARK  8 active torsions:
REMARK  status: ('A' for Active; 'I' for Inactive)
REMARK    1  A    between atoms: C_1  and  C_2
REMARK    2  A    between atoms: N_11  and  C_15
REMARK    3  A    between atoms: C_15  and  C_16
REMARK    4  A    between atoms: N_18  and  N_19
REMARK    5  A    between atoms: N_19  and  C_20
REMARK    6  A    between atoms: C_20  and  N_22
REMARK    7  A    between atoms: N_22  and  C_23
REMARK    8  A    between atoms: C_23  and  C_24
REMARK                            x       y       z     vdW  Elec       q    Type
REMARK                         _______ _______ _______ _____ _____    ______ ____
ROOT
ATOM      1  C   UNL     1      -0.486   4.614   6.647  0.00  0.00    +0.247 C 
ATOM      2  O   UNL     1      -1.242   4.891   7.554  0.00  0.00    -0.273 OA
ATOM      3  N   UNL     1      -0.978   4.235   5.451  0.00  0.00    -0.234 N 
ATOM      4  H   UNL     1      -0.373   4.014   4.726  0.00  0.00    +0.173 HD
ENDROOT
BRANCH   3   5
ATOM      5  N   UNL     1      -2.364   4.159   5.256  0.00  0.00    -0.246 N 
ATOM      6  H   UNL     1      -2.969   4.380   5.981  0.00  0.00    +0.172 HD
BRANCH   5   7
ATOM      7  C   UNL     1      -2.856   3.780   4.060  0.00  0.00    +0.147 C 
ATOM      8  S   UNL     1      -4.548   3.687   3.821  0.00  0.00    -0.017 S 
BRANCH   7   9
ATOM      9  N   UNL     1      -2.015   3.472   3.052  0.00  0.00    -0.323 N 
ATOM     10  H   UNL     1      -1.056   3.525   3.188  0.00  0.00    +0.148 HD
BRANCH   9  11
ATOM     11  C   UNL     1      -2.550   3.059   1.752  0.00  0.00    +0.134 C 
BRANCH  11  12
ATOM     12  C   UNL     1      -1.394   2.771   0.793  0.00  0.00    +0.135 C 
ATOM     13  C   UNL     1      -1.928   2.453  -0.626  0.00  0.00    +0.035 C 
ATOM     14  C   UNL     1      -0.778   1.606  -1.224  0.00  0.00    +0.031 C 
ATOM     15  C   UNL     1      -0.013   1.086   0.008  0.00  0.00    +0.160 C 
ATOM     16  O   UNL     1      -0.705   1.559   1.176  0.00  0.00    -0.375 OA
ENDBRANCH  11  12
ENDBRANCH   9  11
ENDBRANCH   7   9
ENDBRANCH   5   7
ENDBRANCH   3   5
BRANCH   1  17
ATOM     17  C   UNL     1       1.004   4.696   6.857  0.00  0.00    +0.215 C 
BRANCH  17  27
ATOM     18  C   UNL     1      -0.760   6.453  10.554  0.00  0.00    +0.010 C 
ATOM     19  C   UNL     1       0.590   7.106  10.857  0.00  0.00    +0.018 C 
ATOM     20  C   UNL     1       0.872   7.022  12.359  0.00  0.00    +0.006 C 
ATOM     21  C   UNL     1       2.231   7.657  12.658  0.00  0.00    +0.000 C 
ATOM     22  C   UNL     1       3.326   6.904  11.900  0.00  0.00    +0.003 C 
ATOM     23  C   UNL     1       3.053   6.987  10.396  0.00  0.00    +0.035 C 
ATOM     24  C   UNL     1       1.689   6.378  10.091  0.00  0.00    +0.115 C 
ATOM     25  C   UNL     1       1.418   6.417   8.605  0.00  0.00    +0.247 C 
ATOM     26  O   UNL     1       1.339   7.400   7.899  0.00  0.00    -0.273 OA
ATOM     27  N   UNL     1       1.281   5.128   8.229  0.00  0.00    -0.215 N 
ATOM     28  C   UNL     1       1.434   4.294   9.265  0.00  0.00    +0.310 C 
ATOM     29  O   UNL     1       1.359   3.084   9.175  0.00  0.00    -0.252 OA
ATOM     30  N   UNL     1       1.681   4.946  10.417  0.00  0.00    -0.285 N 
ATOM     31  H   UNL     1       1.825   4.548  11.290  0.00  0.00    +0.151 HD
ENDBRANCH  17  27
ENDBRANCH   1  17
TORSDOF 7
