REMARK  Name = ZINC13066961
REMARK  9 active torsions:
REMARK  status: ('A' for Active; 'I' for Inactive)
REMARK    1  A    between atoms: C_1  and  N_2
REMARK    2  A    between atoms: N_2  and  C_3
REMARK    3  A    between atoms: N_2  and  C_4
REMARK    4  A    between atoms: C_7  and  S_23
REMARK    5  A    between atoms: C_9  and  N_10
REMARK    6  A    between atoms: N_10  and  S_11
REMARK    7  A    between atoms: S_11  and  C_14
REMARK    8  A    between atoms: C_18  and  C_20
REMARK    9  A    between atoms: S_23  and  N_26
REMARK                            x       y       z     vdW  Elec       q    Type
REMARK                         _______ _______ _______ _____ _____    ______ ____
ROOT
ATOM      1  C   UNL     1      -0.931  -1.430  -3.746  0.00  0.00    +0.052 A 
ATOM      2  C   UNL     1      -0.091  -2.136  -4.593  0.00  0.00    +0.027 A 
ATOM      3  C   UNL     1       0.576  -3.256  -4.130  0.00  0.00    +0.030 A 
ATOM      4  C   UNL     1       0.406  -3.675  -2.823  0.00  0.00    +0.107 A 
ATOM      5  C   UNL     1      -0.426  -2.974  -1.970  0.00  0.00    +0.054 A 
ATOM      6  C   UNL     1      -1.103  -1.853  -2.428  0.00  0.00    +0.071 A 
ENDROOT
BRANCH   1   8
ATOM      7  C   UNL     1      -0.659   0.731  -4.668  0.00  0.00    +0.129 C 
ATOM      8  N   UNL     1      -1.607  -0.296  -4.213  0.00  0.00    -0.335 N 
ATOM      9  C   UNL     1      -2.553  -0.648  -5.279  0.00  0.00    +0.129 C 
ENDBRANCH   1   8
BRANCH   4  10
ATOM     10  S   UNL     1       1.258  -5.103  -2.241  0.00  0.00    +0.056 S 
ATOM     11  O   UNL     1       0.509  -5.603  -1.142  0.00  0.00    -0.153 OA
ATOM     12  O   UNL     1       1.555  -5.893  -3.384  0.00  0.00    -0.153 OA
BRANCH  10  13
ATOM     13  N   UNL     1       2.710  -4.591  -1.630  0.00  0.00    -0.204 NA
ATOM     14  H   UNL     1       2.938  -3.649  -1.646  0.00  0.00    +0.144 HD
ATOM     15  H   UNL     1       3.333  -5.235  -1.257  0.00  0.00    +0.144 HD
ENDBRANCH  10  13
ENDBRANCH   4  10
BRANCH   6  16
ATOM     16  N   UNL     1      -1.950  -1.144  -1.567  0.00  0.00    -0.214 N 
ATOM     17  H   UNL     1      -2.763  -0.742  -1.910  0.00  0.00    +0.174 HD
BRANCH  16  18
ATOM     18  S   UNL     1      -1.563  -0.992   0.035  0.00  0.00    +0.072 S 
ATOM     19  O   UNL     1      -1.337  -2.307   0.525  0.00  0.00    -0.150 OA
ATOM     20  O   UNL     1      -2.531  -0.122   0.606  0.00  0.00    -0.150 OA
BRANCH  18  21
ATOM     21  C   UNL     1      -0.017  -0.150   0.121  0.00  0.00    +0.109 A 
ATOM     22  C   UNL     1       1.163  -0.873   0.115  0.00  0.00    +0.031 A 
ATOM     23  C   UNL     1       2.381  -0.223   0.181  0.00  0.00    +0.041 A 
ATOM     24  C   UNL     1       2.427   1.158   0.255  0.00  0.00    +0.138 A 
ATOM     25  C   UNL     1       1.238   1.893   0.261  0.00  0.00    +0.100 A 
ATOM     26  C   UNL     1       0.012   1.226   0.193  0.00  0.00    +0.046 A 
ATOM     27  F   UNL     1       3.618   1.794   0.320  0.00  0.00    -0.205 F 
BRANCH  25  28
ATOM     28  C   UNL     1       1.277   3.367   0.337  0.00  0.00    +0.389 C 
ATOM     29  O   UNL     1       2.344   3.944   0.396  0.00  0.00    -0.240 OA
ATOM     30  O   UNL     1       0.129   4.072   0.343  0.00  0.00    -0.240 OA
ENDBRANCH  25  28
ENDBRANCH  18  21
ENDBRANCH  16  18
ENDBRANCH   6  16
TORSDOF 7
