REMARK  Name = ZINC13123925
REMARK  8 active torsions:
REMARK  status: ('A' for Active; 'I' for Inactive)
REMARK    1  A    between atoms: C_1  and  O_2
REMARK    2  A    between atoms: O_2  and  C_3
REMARK    3  A    between atoms: C_5  and  C_13
REMARK    4  A    between atoms: C_7  and  O_11
REMARK    5  A    between atoms: C_8  and  O_9
REMARK    6  A    between atoms: O_9  and  C_10
REMARK    7  A    between atoms: O_11  and  C_12
REMARK    8  A    between atoms: C_14  and  C_15
REMARK                            x       y       z     vdW  Elec       q    Type
REMARK                         _______ _______ _______ _____ _____    ______ ____
ROOT
ATOM      1  C   UNL     1       3.591   0.558  -6.328  0.00  0.00    +0.135 C 
ATOM      2  N   UNL     1       4.178  -0.045  -7.367  0.00  0.00    -0.316 N 
ATOM      3  C   UNL     1       4.723   0.669  -8.337  0.00  0.00    +0.162 C 
ATOM      4  N   UNL     1       4.686   2.032  -8.274  0.00  0.00    -0.273 N 
ATOM      5  C   UNL     1       4.081   2.636  -7.204  0.00  0.00    +0.138 C 
ATOM      6  C   UNL     1       4.028   4.101  -7.115  0.00  0.00    +0.062 C 
ATOM      7  C   UNL     1       4.590   4.890  -8.126  0.00  0.00    +0.015 C 
ATOM      8  C   UNL     1       4.538   6.261  -8.036  0.00  0.00    +0.001 C 
ATOM      9  C   UNL     1       3.930   6.877  -6.949  0.00  0.00    +0.004 C 
ATOM     10  C   UNL     1       3.370   6.125  -5.943  0.00  0.00    +0.051 C 
ATOM     11  C   UNL     1       3.404   4.727  -6.012  0.00  0.00    +0.189 C 
ATOM     12  O   UNL     1       2.858   3.992  -5.043  0.00  0.00    -0.287 OA
ATOM     13  N   UNL     1       3.540   1.891  -6.252  0.00  0.00    -0.214 NA
ATOM     14  N   UNL     1       5.322   0.046  -9.395  0.00  0.00    -0.332 N 
ATOM     15  H   UNL     1       5.348  -0.923  -9.437  0.00  0.00    +0.145 HD
ATOM     16  H   UNL     1       5.083   2.566  -8.980  0.00  0.00    +0.156 HD
ATOM     17  H   UNL     1       5.722   0.572 -10.105  0.00  0.00    +0.145 HD
ATOM     18  H   UNL     1       4.203  -1.014  -7.410  0.00  0.00    +0.170 HD
ENDROOT
BRANCH   1  20
ATOM     19  C   UNL     1       2.393   0.350  -4.215  0.00  0.00    +0.012 C 
ATOM     20  C   UNL     1       2.992  -0.251  -5.264  0.00  0.00    +0.047 C 
BRANCH  19  23
ATOM     21  C   UNL     1       0.606  -0.608  -1.056  0.00  0.00    +0.166 A 
ATOM     22  C   UNL     1       1.171   0.159  -2.058  0.00  0.00    +0.057 A 
ATOM     23  C   UNL     1       1.792  -0.463  -3.147  0.00  0.00    -0.018 A 
ATOM     24  C   UNL     1       1.839  -1.859  -3.217  0.00  0.00    +0.057 A 
ATOM     25  C   UNL     1       1.273  -2.620  -2.212  0.00  0.00    +0.166 A 
ATOM     26  C   UNL     1       0.660  -1.997  -1.127  0.00  0.00    +0.204 A 
BRANCH  21  28
ATOM     27  C   UNL     1      -0.017   1.425   0.010  0.00  0.00    +0.277 C 
ATOM     28  O   UNL     1       0.002  -0.004   0.002  0.00  0.00    -0.491 OA
ENDBRANCH  21  28
BRANCH  26  29
ATOM     29  O   UNL     1       0.109  -2.748  -0.137  0.00  0.00    -0.488 OA
ATOM     30  C   UNL     1      -1.262  -3.118  -0.290  0.00  0.00    +0.277 C 
ENDBRANCH  26  29
BRANCH  25  31
ATOM     31  O   UNL     1       1.318  -3.977  -2.279  0.00  0.00    -0.491 OA
ATOM     32  C   UNL     1       1.967  -4.549  -3.417  0.00  0.00    +0.277 C 
ENDBRANCH  25  31
ENDBRANCH  19  23
ENDBRANCH   1  20
TORSDOF 5
