REMARK  Name = ZINC41070166
REMARK  6 active torsions:
REMARK  status: ('A' for Active; 'I' for Inactive)
REMARK    1  A    between atoms: C_1  and  N_2
REMARK    2  A    between atoms: C_6  and  N_9
REMARK    3  A    between atoms: N_9  and  S_10
REMARK    4  A    between atoms: S_10  and  C_13
REMARK    5  A    between atoms: C_18  and  N_19
REMARK    6  A    between atoms: N_19  and  N_20
REMARK                            x       y       z     vdW  Elec       q    Type
REMARK                         _______ _______ _______ _____ _____    ______ ____
ROOT
ATOM      1  S   UNL     1       2.418  -3.920   2.276  0.00  0.00    +0.062 S 
ATOM      2  O   UNL     1       2.916  -4.287   3.555  0.00  0.00    -0.153 OA
ATOM      3  O   UNL     1       1.573  -4.772   1.514  0.00  0.00    -0.153 OA
ENDROOT
BRANCH   1   4
ATOM      4  C   UNL     1       3.821  -3.572   1.269  0.00  0.00    +0.147 A 
ATOM      5  C   UNL     1       3.940  -4.138   0.013  0.00  0.00    +0.048 A 
ATOM      6  C   UNL     1       5.064  -3.836  -0.747  0.00  0.00    +0.038 A 
ATOM      7  C   UNL     1       6.022  -2.986  -0.228  0.00  0.00    +0.128 A 
ATOM      8  N   UNL     1       5.881  -2.462   0.974  0.00  0.00    -0.236 NA
ATOM      9  C   UNL     1       4.822  -2.721   1.725  0.00  0.00    +0.159 A 
ATOM     10 BR   UNL     1       5.280  -4.581  -2.471  0.00  0.00    -0.049 Br
BRANCH   9  11
ATOM     11  N   UNL     1       4.712  -2.140   2.984  0.00  0.00    -0.266 N 
ATOM     12  H   UNL     1       3.903  -2.263   3.506  0.00  0.00    +0.167 HD
BRANCH  11  13
ATOM     13  N   UNL     1       5.742  -1.398   3.487  0.00  0.00    -0.255 NA
ATOM     14  H   UNL     1       5.987  -0.647   2.858  0.00  0.00    +0.140 HD
ATOM     15  H   UNL     1       5.519  -1.043   4.404  0.00  0.00    +0.140 HD
ENDBRANCH  11  13
ENDBRANCH   9  11
ENDBRANCH   1   4
BRANCH   1  16
ATOM     16  N   UNL     1       1.595  -2.497   2.478  0.00  0.00    -0.189 NA
ATOM     17  H   UNL     1       1.520  -2.101   3.361  0.00  0.00    +0.148 HD
BRANCH  16  23
ATOM     18  C   UNL     1       0.638   1.801   0.461  0.00  0.00    -0.096 C 
ATOM     19  N   UNL     1       0.468   0.347   0.336  0.00  0.00    +0.379 N 
ATOM     20  C   UNL     1      -0.963   0.026   0.282  0.00  0.00    -0.079 C 
ATOM     21  C   UNL     1      -1.145  -1.478   0.070  0.00  0.00    -0.017 C 
ATOM     22  C   UNL     1      -0.494  -2.234   1.231  0.00  0.00    +0.017 C 
ATOM     23  C   UNL     1       0.982  -1.835   1.324  0.00  0.00    +0.060 C 
ATOM     24  C   UNL     1       1.084  -0.318   1.490  0.00  0.00    -0.059 C 
ATOM     25  H   UNL     1       0.914   0.029  -0.512  0.00  0.00    -0.082 HD
ENDBRANCH  16  23
ENDBRANCH   1  16
TORSDOF 5
