REMARK  Name = ZINC39611768
REMARK  11 active torsions:
REMARK  status: ('A' for Active; 'I' for Inactive)
REMARK    1  A    between atoms: C_1  and  C_2
REMARK    2  A    between atoms: C_2  and  C_3
REMARK    3  A    between atoms: C_2  and  C_4
REMARK    4  A    between atoms: C_4  and  C_6
REMARK    5  A    between atoms: C_4  and  N_25
REMARK    6  A    between atoms: C_6  and  O_8
REMARK    7  A    between atoms: O_8  and  C_9
REMARK    8  A    between atoms: C_9  and  C_10
REMARK    9  A    between atoms: N_12  and  C_13
REMARK   10  A    between atoms: C_14  and  C_22
REMARK   11  A    between atoms: C_26  and  C_28
REMARK                            x       y       z     vdW  Elec       q    Type
REMARK                         _______ _______ _______ _____ _____    ______ ____
ROOT
ATOM      1  C   UNL     1      -0.832  -4.136   0.930  0.00  0.00    +0.328 C 
ENDROOT
BRANCH   1   2
ATOM      2  C   UNL     1      -0.116  -4.709   2.126  0.00  0.00    +0.255 C 
ATOM      3  O   UNL     1       0.363  -3.968   2.958  0.00  0.00    -0.272 OA
ATOM      4  N   UNL     1      -0.008  -6.045   2.271  0.00  0.00    -0.277 N 
ATOM      5  H   UNL     1      -0.391  -6.637   1.605  0.00  0.00    +0.155 HD
BRANCH   4   6
ATOM      6  C   UNL     1       0.650  -6.572   3.371  0.00  0.00    +0.084 A 
ATOM      7  C   UNL     1       0.861  -7.907   3.679  0.00  0.00    +0.068 A 
ATOM      8  C   UNL     1       1.586  -8.199   4.903  0.00  0.00    -0.023 A 
ATOM      9  C   UNL     1       1.967  -7.104   5.595  0.00  0.00    -0.004 A 
ATOM     10  S   UNL     1       1.381  -5.739   4.633  0.00  0.00    -0.077 S 
ATOM     11  C   UNL     1       2.724  -7.073   6.887  0.00  0.00    +0.043 C 
ATOM     12  C   UNL     1       2.676  -8.478   7.506  0.00  0.00    +0.005 C 
ATOM     13  C   UNL     1       3.038  -9.506   6.431  0.00  0.00    +0.005 C 
ATOM     14  C   UNL     1       1.911  -9.600   5.400  0.00  0.00    +0.037 C 
BRANCH   7  15
ATOM     15  C   UNL     1       0.372  -8.979   2.807  0.00  0.00    +0.244 C 
ATOM     16  O   UNL     1       1.077  -9.403   1.911  0.00  0.00    -0.270 OA
ATOM     17  N   UNL     1      -0.859  -9.493   2.997  0.00  0.00    -0.325 N 
ATOM     18  H   UNL     1      -1.422  -9.154   3.711  0.00  0.00    +0.145 HD
ATOM     19  H   UNL     1      -1.183 -10.202   2.419  0.00  0.00    +0.145 HD
ENDBRANCH   7  15
ENDBRANCH   4   6
ENDBRANCH   1   2
BRANCH   1  20
ATOM     20  O   UNL     1      -0.813  -2.709   1.002  0.00  0.00    -0.454 OA
BRANCH  20  21
ATOM     21  C   UNL     1      -1.413  -2.041   0.005  0.00  0.00    +0.328 C 
ATOM     22  O   UNL     1      -1.936  -2.647  -0.900  0.00  0.00    -0.249 OA
BRANCH  21  23
ATOM     23  C   UNL     1      -1.433  -0.534   0.013  0.00  0.00    +0.185 C 
BRANCH  23  24
ATOM     24  N   UNL     1      -2.142  -0.048  -1.174  0.00  0.00    -0.298 N 
ATOM     25  C   UNL     1      -2.727   1.166  -1.160  0.00  0.00    +0.246 C 
ATOM     26  O   UNL     1      -2.667   1.858  -0.163  0.00  0.00    -0.270 OA
ATOM     27  H   UNL     1      -2.190  -0.601  -1.970  0.00  0.00    +0.150 HD
BRANCH  25  28
ATOM     28  C   UNL     1      -3.442   1.655  -2.357  0.00  0.00    +0.055 A 
ATOM     29  C   UNL     1      -3.518   0.860  -3.503  0.00  0.00    +0.014 A 
ATOM     30  C   UNL     1      -4.187   1.323  -4.616  0.00  0.00    +0.001 A 
ATOM     31  C   UNL     1      -4.782   2.572  -4.601  0.00  0.00    +0.001 A 
ATOM     32  C   UNL     1      -4.711   3.366  -3.471  0.00  0.00    +0.021 A 
ATOM     33  C   UNL     1      -4.049   2.913  -2.346  0.00  0.00    +0.053 A 
ATOM     34 CL   UNL     1      -3.967   3.907  -0.925  0.00  0.00    -0.083 Cl
ENDBRANCH  25  28
ENDBRANCH  23  24
BRANCH  23  36
ATOM     35  C   UNL     1      -0.019   1.526   0.010  0.00  0.00    +0.009 C 
ATOM     36  C   UNL     1       0.002  -0.004   0.002  0.00  0.00    +0.014 C 
ATOM     37  C   UNL     1       0.742  -0.511   1.242  0.00  0.00    +0.009 C 
ENDBRANCH  23  36
ENDBRANCH  21  23
ENDBRANCH  20  21
ENDBRANCH   1  20
TORSDOF 9
