REMARK  Name = ZINC28510237
REMARK  5 active torsions:
REMARK  status: ('A' for Active; 'I' for Inactive)
REMARK    1  A    between atoms: C_1  and  C_2
REMARK    2  A    between atoms: C_14  and  C_17
REMARK    3  A    between atoms: C_17  and  C_18
REMARK    4  A    between atoms: C_18  and  C_20
REMARK    5  A    between atoms: C_18  and  N_21
REMARK                            x       y       z     vdW  Elec       q    Type
REMARK                         _______ _______ _______ _____ _____    ______ ____
ROOT
ATOM      1  C   UNL     1      -1.288  -0.783   0.011  0.00  0.00    +0.044 C 
ATOM      2  C   UNL     1       0.002  -0.004   0.002  0.00  0.00    -0.049 A 
ATOM      3  C   UNL     1      -0.017   1.383   0.010  0.00  0.00    +0.005 A 
ATOM      4  C   UNL     1       1.142   2.115   0.003  0.00  0.00    +0.029 A 
ATOM      5  C   UNL     1       2.402   1.473  -0.013  0.00  0.00    +0.080 A 
ATOM      6  C   UNL     1       2.382   0.060  -0.021  0.00  0.00    +0.041 A 
ATOM      7  C   UNL     1       1.217  -0.665  -0.013  0.00  0.00    +0.020 A 
ATOM      8  S   UNL     1       4.113  -0.343  -0.039  0.00  0.00    -0.052 S 
ATOM      9  C   UNL     1       4.733   1.333  -0.036  0.00  0.00    +0.165 A 
ATOM     10  N   UNL     1       3.627   2.042  -0.022  0.00  0.00    -0.225 NA
ATOM     11  N   UNL     1       6.044   1.772  -0.046  0.00  0.00    -0.273 N 
ATOM     12  C   UNL     1       6.320   3.133  -0.042  0.00  0.00    +0.164 A 
ATOM     13  N   UNL     1       7.490   3.741  -0.050  0.00  0.00    -0.230 NA
ATOM     14  C   UNL     1       7.576   5.057  -0.044  0.00  0.00    +0.049 A 
ATOM     15  C   UNL     1       6.430   5.779  -0.029  0.00  0.00    +0.071 A 
ATOM     16  S   UNL     1       5.213   4.471  -0.032  0.00  0.00    -0.060 S 
ATOM     17  H   UNL     1       6.868   1.044  -0.058  0.00  0.00    +0.156 HD
ENDROOT
BRANCH  14  18
ATOM     18  C   UNL     1       8.919   5.742  -0.052  0.00  0.00    +0.039 C 
BRANCH  18  19
ATOM     19  C   UNL     1       9.760   5.231   1.119  0.00  0.00    -0.072 C 
ATOM     20  C   UNL     1      11.072   6.014   1.184  0.00  0.00    -0.014 C 
BRANCH  19  21
ATOM     21  N   UNL     1      10.050   3.804   0.926  0.00  0.00    +0.380 N 
ATOM     22  H   UNL     1      10.655   3.436   1.768  0.00  0.00    -0.090 HD
ATOM     23  H   UNL     1      10.607   3.666  -0.013  0.00  0.00    -0.090 HD
ATOM     24  H   UNL     1       9.107   3.240   0.879  0.00  0.00    -0.090 HD
ENDBRANCH  19  21
ENDBRANCH  18  19
ENDBRANCH  14  18
TORSDOF 3
