REMARK  Name = ZINC65298245
REMARK  10 active torsions:
REMARK  status: ('A' for Active; 'I' for Inactive)
REMARK    1  A    between atoms: C_1  and  C_2
REMARK    2  A    between atoms: C_2  and  N_3
REMARK    3  A    between atoms: C_10  and  C_24
REMARK    4  A    between atoms: C_13  and  C_15
REMARK    5  A    between atoms: C_18  and  O_21
REMARK    6  A    between atoms: O_21  and  C_22
REMARK    7  A    between atoms: C_22  and  C_23
REMARK    8  A    between atoms: C_28  and  O_31
REMARK    9  A    between atoms: C_29  and  O_30
REMARK   10  A    between atoms: O_31  and  C_32
REMARK                            x       y       z     vdW  Elec       q    Type
REMARK                         _______ _______ _______ _____ _____    ______ ____
ROOT
ATOM      1  N   UNL     1       0.713  -0.491   1.192  0.00  0.00    +0.380 N 
ATOM      2  C   UNL     1       2.118  -0.074   1.125  0.00  0.00    -0.075 C 
ATOM      3  C   UNL     1       2.845  -0.510   2.399  0.00  0.00    +0.027 C 
ATOM      4  C   UNL     1       2.771  -2.036   2.524  0.00  0.00    +0.109 C 
ATOM      5  C   UNL     1       1.299  -2.462   2.524  0.00  0.00    +0.027 C 
ATOM      6  C   UNL     1       0.628  -1.955   1.246  0.00  0.00    -0.075 C 
ATOM      7  N   UNL     1       3.393  -2.448   3.789  0.00  0.00    -0.286 NA
ATOM      8  C   UNL     1       3.505  -3.916   3.846  0.00  0.00    +0.095 C 
ATOM      9  C   UNL     1       4.523  -4.359   2.791  0.00  0.00    +0.079 C 
ATOM     10  C   UNL     1       4.224  -3.671   1.487  0.00  0.00    +0.047 C 
ATOM     11  N   UNL     1       3.457  -2.651   1.394  0.00  0.00    -0.266 NA
ATOM     12  H   UNL     1       4.296  -2.012   3.908  0.00  0.00    +0.125 HD
ATOM     13  H   UNL     1       0.287  -0.100   2.019  0.00  0.00    -0.082 HD
ENDROOT
BRANCH  10  14
ATOM     14  C   UNL     1       4.846  -4.197   0.258  0.00  0.00    -0.004 A 
ATOM     15  C   UNL     1       5.685  -5.313   0.319  0.00  0.00    +0.013 A 
ATOM     16  C   UNL     1       6.263  -5.801  -0.832  0.00  0.00    +0.046 A 
ATOM     17  C   UNL     1       6.013  -5.186  -2.053  0.00  0.00    +0.121 A 
ATOM     18  C   UNL     1       5.179  -4.076  -2.118  0.00  0.00    +0.046 A 
ATOM     19  C   UNL     1       4.592  -3.585  -0.973  0.00  0.00    +0.013 A 
BRANCH  17  20
ATOM     20  O   UNL     1       6.585  -5.671  -3.184  0.00  0.00    -0.492 OA
BRANCH  20  21
ATOM     21  C   UNL     1       6.285  -4.991  -4.405  0.00  0.00    +0.225 C 
ATOM     22  C   UNL     1       7.014  -5.675  -5.563  0.00  0.00    +0.048 C 
ENDBRANCH  20  21
ENDBRANCH  17  20
ENDBRANCH  10  14
BRANCH   8  23
ATOM     23  C   UNL     1       3.974  -4.338   5.215  0.00  0.00    +0.015 A 
ATOM     24  C   UNL     1       4.607  -3.427   6.040  0.00  0.00    +0.009 A 
ATOM     25  C   UNL     1       5.039  -3.811   7.295  0.00  0.00    +0.004 A 
ATOM     26  C   UNL     1       4.838  -5.107   7.732  0.00  0.00    +0.049 A 
ATOM     27  C   UNL     1       4.204  -6.025   6.911  0.00  0.00    +0.162 A 
ATOM     28  C   UNL     1       3.764  -5.637   5.648  0.00  0.00    +0.163 A 
BRANCH  28  29
ATOM     29  O   UNL     1       3.136  -6.532   4.840  0.00  0.00    -0.503 OA
ATOM     30  H   UNL     1       3.733  -7.030   4.266  0.00  0.00    +0.292 HD
ENDBRANCH  28  29
BRANCH  27  31
ATOM     31  O   UNL     1       4.006  -7.300   7.339  0.00  0.00    -0.491 OA
ATOM     32  C   UNL     1       4.478  -7.626   8.648  0.00  0.00    +0.277 C 
ENDBRANCH  27  31
ENDBRANCH   8  23
BRANCH   1  34
ATOM     33  C   UNL     1      -0.019   1.526   0.010  0.00  0.00    -0.017 C 
ATOM     34  C   UNL     1       0.002  -0.004   0.002  0.00  0.00    -0.082 C 
ENDBRANCH   1  34
TORSDOF 7
