REMARK  Name = ZINC03358938
REMARK  7 active torsions:
REMARK  status: ('A' for Active; 'I' for Inactive)
REMARK    1  A    between atoms: C_1  and  C_2
REMARK    2  A    between atoms: C_3  and  C_24
REMARK    3  A    between atoms: C_4  and  C_23
REMARK    4  A    between atoms: C_7  and  C_8
REMARK    5  A    between atoms: N_10  and  C_11
REMARK    6  A    between atoms: C_12  and  C_20
REMARK    7  A    between atoms: C_24  and  C_26
REMARK                            x       y       z     vdW  Elec       q    Type
REMARK                         _______ _______ _______ _____ _____    ______ ____
ROOT
ATOM      1  C   UNL     1      -0.135   0.928   0.547  0.00  0.00    +0.265 C 
ATOM      2  O   UNL     1      -0.215  -0.273   0.722  0.00  0.00    -0.268 OA
ATOM      3  N   UNL     1       1.065   1.539   0.609  0.00  0.00    -0.274 N 
ATOM      4  H   UNL     1       1.130   2.497   0.470  0.00  0.00    +0.156 HD
ENDROOT
BRANCH   3   5
ATOM      5  C   UNL     1       2.206   0.799   0.873  0.00  0.00    +0.085 A 
ATOM      6  C   UNL     1       3.518   1.242   0.970  0.00  0.00    +0.068 A 
ATOM      7  C   UNL     1       4.541   0.252   1.261  0.00  0.00    -0.023 A 
ATOM      8  C   UNL     1       4.093  -1.015   1.398  0.00  0.00    -0.004 A 
ATOM      9  S   UNL     1       2.343  -0.905   1.154  0.00  0.00    -0.077 S 
ATOM     10  C   UNL     1       4.910  -2.235   1.692  0.00  0.00    +0.043 C 
ATOM     11  C   UNL     1       6.388  -1.898   1.447  0.00  0.00    +0.005 C 
ATOM     12  C   UNL     1       6.713  -0.570   2.138  0.00  0.00    +0.005 C 
ATOM     13  C   UNL     1       6.022   0.581   1.404  0.00  0.00    +0.037 C 
BRANCH   6  14
ATOM     14  C   UNL     1       3.859   2.656   0.788  0.00  0.00    +0.244 C 
ATOM     15  O   UNL     1       3.869   3.408   1.746  0.00  0.00    -0.270 OA
ATOM     16  N   UNL     1       4.160   3.125  -0.439  0.00  0.00    -0.325 N 
ATOM     17  H   UNL     1       4.153   2.526  -1.202  0.00  0.00    +0.145 HD
ATOM     18  H   UNL     1       4.386   4.060  -0.559  0.00  0.00    +0.145 HD
ENDBRANCH   6  14
ENDBRANCH   3   5
BRANCH   1  25
ATOM     19  C   UNL     1      -3.023  -0.224   0.322  0.00  0.00    +0.047 C 
ATOM     20  C   UNL     1      -2.609   1.216   0.162  0.00  0.00    -0.010 A 
ATOM     21  C   UNL     1      -3.460   2.312  -0.118  0.00  0.00    +0.041 A 
ATOM     22  C   UNL     1      -2.658   3.441  -0.185  0.00  0.00    +0.024 A 
ATOM     23  N   UNL     1      -1.389   3.071   0.044  0.00  0.00    -0.354 N 
ATOM     24  H   UNL     1      -0.625   3.668   0.055  0.00  0.00    +0.166 HD
ATOM     25  C   UNL     1      -1.343   1.711   0.262  0.00  0.00    +0.106 A 
ATOM     26  C   UNL     1      -3.132   4.843  -0.467  0.00  0.00    +0.064 C 
BRANCH  21  27
ATOM     27  C   UNL     1      -4.913   2.261  -0.307  0.00  0.00    +0.162 C 
ATOM     28  O   UNL     1      -5.652   2.305   0.654  0.00  0.00    -0.292 OA
ATOM     29  C   UNL     1      -5.489   2.154  -1.696  0.00  0.00    +0.091 C 
ENDBRANCH  21  27
ENDBRANCH   1  25
TORSDOF 4
