REMARK  Name = ZINC63426971
REMARK  10 active torsions:
REMARK  status: ('A' for Active; 'I' for Inactive)
REMARK    1  A    between atoms: C_1  and  C_2
REMARK    2  A    between atoms: C_6  and  C_33
REMARK    3  A    between atoms: C_7  and  N_8
REMARK    4  A    between atoms: C_9  and  C_11
REMARK    5  A    between atoms: C_11  and  S_12
REMARK    6  A    between atoms: S_12  and  C_13
REMARK    7  A    between atoms: C_17  and  C_23
REMARK    8  A    between atoms: N_19  and  C_20
REMARK    9  A    between atoms: C_20  and  C_21
REMARK   10  A    between atoms: C_23  and  C_24
REMARK                            x       y       z     vdW  Elec       q    Type
REMARK                         _______ _______ _______ _____ _____    ______ ____
ROOT
ATOM      1  C   UNL     1      -0.333   0.115   7.700  0.00  0.00    +0.200 C 
ATOM      2  N   UNL     1       0.887   0.951   7.767  0.00  0.00    -0.229 NA
ATOM      3  N   UNL     1       0.499   2.219   7.128  0.00  0.00    -0.237 NA
ATOM      4  C   UNL     1      -0.901   2.411   7.588  0.00  0.00    +0.145 C 
ATOM      5  N   UNL     1      -1.476   1.045   7.587  0.00  0.00    -0.257 NA
ATOM      6  H   UNL     1       1.651   0.516   7.272  0.00  0.00    +0.143 HD
ATOM      7  H   UNL     1       0.543   2.146   6.123  0.00  0.00    +0.142 HD
ENDROOT
BRANCH   1   8
ATOM      8  S   UNL     1      -0.266  -0.967   6.246  0.00  0.00    -0.116 S 
BRANCH   8   9
ATOM      9  C   UNL     1      -0.092   0.181   4.852  0.00  0.00    +0.168 C 
BRANCH   9  11
ATOM     10  N   UNL     1       0.107   0.050   2.390  0.00  0.00    -0.284 N 
ATOM     11  C   UNL     1      -0.024  -0.598   3.564  0.00  0.00    +0.227 C 
ATOM     12  O   UNL     1      -0.086  -1.810   3.585  0.00  0.00    -0.275 OA
ATOM     13  H   UNL     1       0.223   1.013   2.378  0.00  0.00    +0.155 HD
BRANCH  10  20
ATOM     14  C   UNL     1       2.558  -0.356   1.002  0.00  0.00    +0.045 C 
ATOM     15  C   UNL     1       1.248  -0.887   0.479  0.00  0.00    -0.029 A 
ATOM     16  C   UNL     1       1.214  -1.599  -0.704  0.00  0.00    +0.005 A 
ATOM     17  C   UNL     1       0.013  -2.087  -1.185  0.00  0.00    +0.001 A 
ATOM     18  C   UNL     1      -1.158  -1.863  -0.484  0.00  0.00    +0.005 A 
ATOM     19  C   UNL     1      -1.131  -1.152   0.700  0.00  0.00    -0.029 A 
ATOM     20  C   UNL     1       0.075  -0.666   1.188  0.00  0.00    +0.039 A 
ATOM     21  C   UNL     1      -2.407  -0.908   1.463  0.00  0.00    +0.045 C 
ENDBRANCH  10  20
ENDBRANCH   9  11
ENDBRANCH   8   9
ENDBRANCH   1   8
BRANCH   5  22
ATOM     22  C   UNL     1      -2.412   0.866   8.705  0.00  0.00    +0.115 C 
BRANCH  22  23
ATOM     23  C   UNL     1      -3.118  -0.458   8.563  0.00  0.00    -0.019 C 
ATOM     24  C   UNL     1      -3.086  -1.326   9.544  0.00  0.00    +0.005 C 
ENDBRANCH  22  23
ENDBRANCH   5  22
BRANCH   4  25
ATOM     25  C   UNL     1      -1.663   3.316   6.617  0.00  0.00    +0.069 C 
BRANCH  25  26
ATOM     26  C   UNL     1      -1.004   4.670   6.570  0.00  0.00    -0.039 C 
ATOM     27  C   UNL     1      -0.087   5.098   5.672  0.00  0.00    -0.001 A 
ATOM     28  C   UNL     1       0.548   4.454   4.516  0.00  0.00    +0.010 A 
ATOM     29  C   UNL     1       1.452   5.151   3.791  0.00  0.00    +0.001 A 
ATOM     30  C   UNL     1       1.796   6.471   4.115  0.00  0.00    +0.002 A 
ATOM     31  C   UNL     1       1.256   7.129   5.162  0.00  0.00    +0.026 A 
ATOM     32  C   UNL     1       0.293   6.492   5.993  0.00  0.00    +0.043 A 
ATOM     33  N   UNL     1      -0.363   6.910   7.048  0.00  0.00    -0.380 N 
ATOM     34  C   UNL     1      -1.240   5.829   7.513  0.00  0.00    +0.144 C 
ATOM     35  H   UNL     1      -0.285   7.789   7.452  0.00  0.00    +0.160 HD
ENDBRANCH  25  26
ENDBRANCH   4  25
TORSDOF 8
