REMARK  Name = ZINC63280172
REMARK  7 active torsions:
REMARK  status: ('A' for Active; 'I' for Inactive)
REMARK    1  A    between atoms: C_1  and  O_2
REMARK    2  A    between atoms: O_2  and  C_3
REMARK    3  A    between atoms: C_8  and  C_9
REMARK    4  A    between atoms: C_15  and  C_16
REMARK    5  A    between atoms: N_18  and  C_19
REMARK    6  A    between atoms: C_19  and  C_20
REMARK    7  A    between atoms: C_20  and  C_21
REMARK                            x       y       z     vdW  Elec       q    Type
REMARK                         _______ _______ _______ _____ _____    ______ ____
ROOT
ATOM      1  C   UNL     1       1.170  -6.615  -1.413  0.00  0.00    +0.238 C 
ATOM      2  O   UNL     1       2.052  -5.811  -1.172  0.00  0.00    -0.271 OA
ATOM      3  N   UNL     1       1.460  -7.757  -2.067  0.00  0.00    -0.311 N 
ATOM      4  H   UNL     1       0.757  -8.398  -2.259  0.00  0.00    +0.149 HD
ENDROOT
BRANCH   1  10
ATOM      5  C   UNL     1       0.211  -3.093   0.621  0.00  0.00    +0.163 C 
ATOM      6  N   UNL     1       0.543  -4.484   0.262  0.00  0.00    -0.331 N 
ATOM      7  C   UNL     1      -0.429  -5.267  -0.250  0.00  0.00    +0.020 C 
ATOM      8  C   UNL     1      -1.855  -4.845   0.087  0.00  0.00    +0.121 C 
ATOM      9  S   UNL     1      -1.601  -3.023   0.295  0.00  0.00    -0.128 S 
ATOM     10  C   UNL     1      -0.159  -6.350  -1.007  0.00  0.00    +0.086 C 
ATOM     11  H   UNL     1       1.440  -4.829   0.390  0.00  0.00    +0.147 HD
BRANCH   5  17
ATOM     12  C   UNL     1       0.983  -0.772   0.067  0.00  0.00    +0.126 A 
ATOM     13  C   UNL     1       1.671   0.120  -0.743  0.00  0.00    +0.046 A 
ATOM     14  C   UNL     1       2.318  -0.334  -1.875  0.00  0.00    +0.004 A 
ATOM     15  C   UNL     1       2.281  -1.678  -2.201  0.00  0.00    +0.001 A 
ATOM     16  C   UNL     1       1.597  -2.569  -1.396  0.00  0.00    +0.010 A 
ATOM     17  C   UNL     1       0.952  -2.120  -0.260  0.00  0.00    +0.024 A 
BRANCH  12  19
ATOM     18  C   UNL     1       0.419   1.073   1.456  0.00  0.00    +0.277 C 
ATOM     19  O   UNL     1       0.345  -0.328   1.182  0.00  0.00    -0.495 OA
ENDBRANCH  12  19
ENDBRANCH   5  17
ENDBRANCH   1  10
BRANCH   3  20
ATOM     20  C   UNL     1       2.836  -8.031  -2.488  0.00  0.00    +0.109 C 
BRANCH  20  21
ATOM     21  C   UNL     1       2.891  -9.383  -3.203  0.00  0.00    +0.052 C 
BRANCH  21  22
ATOM     22  C   UNL     1       4.306  -9.665  -3.636  0.00  0.00    -0.040 C 
ATOM     23  C   UNL     1       5.231 -10.393  -2.969  0.00  0.00    +0.002 A 
ATOM     24  C   UNL     1       5.196 -11.113  -1.691  0.00  0.00    +0.048 A 
ATOM     25  C   UNL     1       6.306 -11.767  -1.275  0.00  0.00    +0.124 A 
ATOM     26  C   UNL     1       7.486 -11.773  -2.035  0.00  0.00    +0.040 A 
ATOM     27  C   UNL     1       7.594 -11.134  -3.219  0.00  0.00    +0.029 A 
ATOM     28  C   UNL     1       6.488 -10.416  -3.751  0.00  0.00    +0.043 A 
ATOM     29  N   UNL     1       6.346  -9.728  -4.858  0.00  0.00    -0.380 N 
ATOM     30  C   UNL     1       4.979  -9.196  -4.907  0.00  0.00    +0.144 C 
ATOM     31  F   UNL     1       6.278 -12.430  -0.098  0.00  0.00    -0.205 F 
ATOM     32  H   UNL     1       7.029  -9.596  -5.534  0.00  0.00    +0.160 HD
ENDBRANCH  21  22
ENDBRANCH  20  21
ENDBRANCH   3  20
TORSDOF 6
