REMARK  Name = ZINC40823325
REMARK  7 active torsions:
REMARK  status: ('A' for Active; 'I' for Inactive)
REMARK    1  A    between atoms: C_1  and  C_2
REMARK    2  A    between atoms: C_6  and  C_7
REMARK    3  A    between atoms: N_9  and  N_10
REMARK    4  A    between atoms: N_15  and  N_16
REMARK    5  A    between atoms: C_17  and  C_19
REMARK    6  A    between atoms: C_19  and  C_20
REMARK    7  A    between atoms: C_20  and  C_21
REMARK                            x       y       z     vdW  Elec       q    Type
REMARK                         _______ _______ _______ _____ _____    ______ ____
ROOT
ATOM      1  C   UNL     1      -0.018   1.503   0.010  0.00  0.00    +0.048 C 
ATOM      2  C   UNL     1       0.002  -0.004   0.002  0.00  0.00    +0.009 A 
ATOM      3  C   UNL     1       0.008  -0.839  -1.123  0.00  0.00    +0.043 A 
ATOM      4  C   UNL     1       0.026  -2.147  -0.665  0.00  0.00    +0.115 A 
ATOM      5  O   UNL     1       0.034  -2.113   0.664  0.00  0.00    -0.454 OA
ATOM      6  C   UNL     1       0.024  -0.830   1.091  0.00  0.00    +0.194 A 
ATOM      7  C   UNL     1       0.031  -3.338  -1.590  0.00  0.00    +0.075 C 
ATOM      8  C   UNL     1      -0.491  -2.913  -2.965  0.00  0.00    +0.014 C 
ATOM      9  C   UNL     1       0.282  -1.698  -3.487  0.00  0.00    +0.058 C 
ATOM     10  C   UNL     1       0.002  -0.520  -2.565  0.00  0.00    +0.074 C 
ATOM     11  N   UNL     1      -0.229   0.682  -3.015  0.00  0.00    -0.150 NA
ENDROOT
BRANCH   6  12
ATOM     12  C   UNL     1       0.032  -0.395   2.492  0.00  0.00    +0.293 C 
ATOM     13  O   UNL     1       0.018   0.792   2.761  0.00  0.00    -0.266 OA
ATOM     14  N   UNL     1       0.054  -1.310   3.481  0.00  0.00    -0.247 N 
ATOM     15  H   UNL     1       0.065  -2.256   3.267  0.00  0.00    +0.169 HD
BRANCH  14  16
ATOM     16  N   UNL     1       0.062  -0.906   4.786  0.00  0.00    -0.254 NA
ATOM     17  H   UNL     1       0.079  -1.698   5.410  0.00  0.00    +0.140 HD
ATOM     18  H   UNL     1       0.836  -0.285   4.968  0.00  0.00    +0.140 HD
ENDBRANCH  14  16
ENDBRANCH   6  12
BRANCH  11  19
ATOM     19  N   UNL     1      -0.223   0.927  -4.395  0.00  0.00    -0.105 NA
ATOM     20  C   UNL     1      -0.453   2.127  -4.844  0.00  0.00    +0.340 C 
ATOM     21  O   UNL     1      -0.697   3.136  -3.981  0.00  0.00    -0.262 OA
BRANCH  20  22
ATOM     22  C   UNL     1      -0.446   2.390  -6.328  0.00  0.00    +0.398 C 
ATOM     23  F   UNL     1       0.457   3.419  -6.615  0.00  0.00    -0.188 F 
ATOM     24  F   UNL     1      -0.061   1.228  -7.006  0.00  0.00    -0.188 F 
BRANCH  22  25
ATOM     25  C   UNL     1      -1.849   2.801  -6.779  0.00  0.00    +0.412 C 
ATOM     26  F   UNL     1      -2.752   1.772  -6.492  0.00  0.00    -0.189 F 
ATOM     27  F   UNL     1      -2.234   3.963  -6.101  0.00  0.00    -0.189 F 
BRANCH  25  28
ATOM     28  C   UNL     1      -1.842   3.068  -8.286  0.00  0.00    +0.461 C 
ATOM     29  F   UNL     1      -1.457   1.907  -8.963  0.00  0.00    -0.165 F 
ATOM     30  F   UNL     1      -3.125   3.445  -8.698  0.00  0.00    -0.165 F 
ATOM     31  F   UNL     1      -0.939   4.097  -8.573  0.00  0.00    -0.165 F 
ENDBRANCH  25  28
ENDBRANCH  22  25
ENDBRANCH  20  22
ENDBRANCH  11  19
TORSDOF 6
