REMARK  Name = ZINC40981155
REMARK  15 active torsions:
REMARK  status: ('A' for Active; 'I' for Inactive)
REMARK    1  A    between atoms: C_1  and  C_2
REMARK    2  A    between atoms: C_2  and  C_3
REMARK    3  A    between atoms: C_3  and  S_4
REMARK    4  A    between atoms: S_4  and  C_5
REMARK    5  A    between atoms: C_10  and  C_27
REMARK    6  A    between atoms: C_12  and  C_16
REMARK    7  A    between atoms: C_13  and  C_15
REMARK    8  A    between atoms: N_18  and  C_19
REMARK    9  A    between atoms: C_22  and  C_26
REMARK   10  A    between atoms: C_24  and  C_25
REMARK   11  A    between atoms: C_30  and  O_36
REMARK   12  A    between atoms: C_31  and  O_33
REMARK   13  A    between atoms: O_33  and  C_34
REMARK   14  A    between atoms: C_34  and  C_35
REMARK   15  A    between atoms: O_36  and  C_37
REMARK                            x       y       z     vdW  Elec       q    Type
REMARK                         _______ _______ _______ _____ _____    ______ ____
ROOT
ATOM      1  C   UNL     1       2.647  -3.788  -2.149  0.00  0.00    +0.210 A 
ATOM      2  N   UNL     1       2.500  -2.924  -3.164  0.00  0.00    -0.187 NA
ATOM      3  C   UNL     1       2.869  -3.494  -4.279  0.00  0.00    +0.219 A 
ATOM      4  N   UNL     1       3.271  -4.756  -3.993  0.00  0.00    -0.220 N 
ATOM      5  N   UNL     1       3.121  -4.922  -2.617  0.00  0.00    -0.141 NA
ATOM      6  C   UNL     1       3.764  -5.694  -4.999  0.00  0.00    +0.177 C 
ATOM      7  C   UNL     1       3.471  -5.155  -6.373  0.00  0.00    +0.060 C 
ATOM      8  C   UNL     1       3.071  -3.895  -6.596  0.00  0.00    +0.018 C 
ATOM      9  N   UNL     1       2.886  -2.995  -5.574  0.00  0.00    -0.287 N 
ATOM     10  C   UNL     1       2.817  -3.450  -8.013  0.00  0.00    +0.061 C 
ATOM     11  H   UNL     1       2.771  -2.049  -5.752  0.00  0.00    +0.155 HD
ENDROOT
BRANCH   6  12
ATOM     12  C   UNL     1       5.252  -5.871  -4.834  0.00  0.00    -0.015 A 
ATOM     13  C   UNL     1       6.096  -4.787  -4.984  0.00  0.00    +0.010 A 
ATOM     14  C   UNL     1       7.461  -4.944  -4.834  0.00  0.00    +0.050 A 
ATOM     15  C   UNL     1       7.986  -6.190  -4.533  0.00  0.00    +0.162 A 
ATOM     16  C   UNL     1       7.136  -7.282  -4.382  0.00  0.00    +0.162 A 
ATOM     17  C   UNL     1       5.768  -7.117  -4.529  0.00  0.00    +0.055 A 
BRANCH  15  18
ATOM     18  O   UNL     1       9.329  -6.347  -4.386  0.00  0.00    -0.491 OA
ATOM     19  C   UNL     1      10.140  -5.183  -4.555  0.00  0.00    +0.277 C 
ENDBRANCH  15  18
BRANCH  16  20
ATOM     20  O   UNL     1       7.647  -8.508  -4.087  0.00  0.00    -0.489 OA
BRANCH  20  21
ATOM     21  C   UNL     1       6.725  -9.598  -4.032  0.00  0.00    +0.226 C 
ATOM     22  C   UNL     1       7.471 -10.877  -3.647  0.00  0.00    +0.048 C 
ENDBRANCH  20  21
ENDBRANCH  16  20
ENDBRANCH   6  12
BRANCH   7  23
ATOM     23  C   UNL     1       3.626  -6.019  -7.483  0.00  0.00    +0.248 C 
ATOM     24  O   UNL     1       2.772  -6.850  -7.732  0.00  0.00    -0.270 OA
ATOM     25  N   UNL     1       4.720  -5.921  -8.266  0.00  0.00    -0.281 N 
ATOM     26  H   UNL     1       5.362  -5.211  -8.115  0.00  0.00    +0.155 HD
BRANCH  25  27
ATOM     27  C   UNL     1       4.927  -6.845  -9.295  0.00  0.00    +0.037 A 
ATOM     28  C   UNL     1       3.869  -7.229 -10.109  0.00  0.00    +0.024 A 
ATOM     29  C   UNL     1       4.077  -8.142 -11.125  0.00  0.00    +0.005 A 
ATOM     30  C   UNL     1       5.338  -8.672 -11.332  0.00  0.00    -0.050 A 
ATOM     31  C   UNL     1       6.393  -8.291 -10.524  0.00  0.00    +0.008 A 
ATOM     32  C   UNL     1       6.192  -7.375  -9.509  0.00  0.00    -0.029 A 
ATOM     33  C   UNL     1       7.345  -6.956  -8.633  0.00  0.00    +0.045 C 
ATOM     34  C   UNL     1       5.561  -9.668 -12.441  0.00  0.00    +0.044 C 
ENDBRANCH  25  27
ENDBRANCH   7  23
BRANCH   1  35
ATOM     35  S   UNL     1       2.271  -3.455  -0.460  0.00  0.00    -0.084 S 
BRANCH  35  36
ATOM     36  C   UNL     1       1.665  -1.746  -0.473  0.00  0.00    +0.077 C 
BRANCH  36  38
ATOM     37  C   UNL     1       0.787   0.119   0.939  0.00  0.00    +0.004 C 
ATOM     38  C   UNL     1       1.298  -1.323   0.951  0.00  0.00    +0.008 C 
ENDBRANCH  36  38
ENDBRANCH  35  36
ENDBRANCH   1  35
TORSDOF 9
