REMARK  Name = ZINC38965934
REMARK  8 active torsions:
REMARK  status: ('A' for Active; 'I' for Inactive)
REMARK    1  A    between atoms: C_1  and  C_2
REMARK    2  A    between atoms: C_5  and  S_9
REMARK    3  A    between atoms: C_7  and  C_8
REMARK    4  A    between atoms: S_9  and  N_12
REMARK    5  A    between atoms: C_14  and  N_24
REMARK    6  A    between atoms: N_24  and  C_25
REMARK    7  A    between atoms: C_28  and  O_31
REMARK    8  A    between atoms: O_31  and  C_32
REMARK                            x       y       z     vdW  Elec       q    Type
REMARK                         _______ _______ _______ _____ _____    ______ ____
ROOT
ATOM      1  N   UNL     1       1.836  -6.225  -0.898  0.00  0.00    -0.110 NA
ATOM      2  C   UNL     1       2.407  -7.363  -0.632  0.00  0.00    +0.192 C 
ATOM      3  C   UNL     1       3.888  -7.428  -0.335  0.00  0.00    +0.237 C 
ATOM      4  N   UNL     1       4.472  -8.746  -0.042  0.00  0.00    -0.359 N 
ATOM      5  C   UNL     1       3.691  -9.790  -0.053  0.00  0.00    +0.063 A 
ATOM      6  C   UNL     1       4.226 -11.130   0.233  0.00  0.00    +0.027 A 
ATOM      7  C   UNL     1       3.385 -12.187   0.213  0.00  0.00    +0.002 A 
ATOM      8  C   UNL     1       2.018 -12.038  -0.074  0.00  0.00    +0.002 A 
ATOM      9  C   UNL     1       1.455 -10.841  -0.346  0.00  0.00    +0.030 A 
ATOM     10  C   UNL     1       2.243  -9.662  -0.352  0.00  0.00    +0.089 A 
ATOM     11  N   UNL     1       1.688  -8.497  -0.614  0.00  0.00    -0.226 NA
ATOM     12  H   UNL     1       5.418  -8.837   0.155  0.00  0.00    +0.162 HD
ENDROOT
BRANCH   1  13
ATOM     13  S   UNL     1       0.212  -6.167  -1.216  0.00  0.00    +0.100 S 
ATOM     14  O   UNL     1      -0.450  -6.532  -0.013  0.00  0.00    -0.146 OA
ATOM     15  O   UNL     1       0.012  -6.865  -2.437  0.00  0.00    -0.146 OA
BRANCH  13  20
ATOM     16  C   UNL     1      -1.196  -0.397  -2.277  0.00  0.00    +0.044 C 
ATOM     17  C   UNL     1      -0.844  -1.838  -2.011  0.00  0.00    -0.047 A 
ATOM     18  C   UNL     1      -0.459  -2.659  -3.055  0.00  0.00    +0.005 A 
ATOM     19  C   UNL     1      -0.137  -3.981  -2.812  0.00  0.00    +0.029 A 
ATOM     20  C   UNL     1      -0.198  -4.482  -1.525  0.00  0.00    +0.113 A 
ATOM     21  C   UNL     1      -0.582  -3.661  -0.482  0.00  0.00    +0.032 A 
ATOM     22  C   UNL     1      -0.900  -2.337  -0.724  0.00  0.00    -0.046 A 
ATOM     23  C   UNL     1      -1.314  -1.441   0.415  0.00  0.00    +0.044 C 
ENDBRANCH  13  20
ENDBRANCH   1  13
BRANCH   3  24
ATOM     24  N   UNL     1       4.600  -6.870  -1.486  0.00  0.00    -0.318 N 
ATOM     25  H   UNL     1       4.331  -7.111  -2.386  0.00  0.00    +0.148 HD
BRANCH  24  26
ATOM     26  C   UNL     1       5.669  -5.989  -1.287  0.00  0.00    +0.029 A 
ATOM     27  C   UNL     1       6.215  -5.304  -2.365  0.00  0.00    +0.026 A 
ATOM     28  C   UNL     1       7.270  -4.435  -2.168  0.00  0.00    +0.048 A 
ATOM     29  C   UNL     1       7.784  -4.245  -0.894  0.00  0.00    +0.129 A 
ATOM     30  C   UNL     1       7.239  -4.928   0.183  0.00  0.00    +0.048 A 
ATOM     31  C   UNL     1       6.181  -5.794  -0.011  0.00  0.00    +0.026 A 
BRANCH  29  32
ATOM     32  O   UNL     1       8.822  -3.388  -0.701  0.00  0.00    -0.456 OA
BRANCH  32  33
ATOM     33  C   UNL     1       9.274  -2.683  -1.770  0.00  0.00    +0.128 A 
ATOM     34  C   UNL     1       8.562  -1.585  -2.230  0.00  0.00    +0.046 A 
ATOM     35  C   UNL     1       9.024  -0.869  -3.318  0.00  0.00    +0.004 A 
ATOM     36  C   UNL     1      10.195  -1.247  -3.948  0.00  0.00    +0.000 A 
ATOM     37  C   UNL     1      10.908  -2.341  -3.491  0.00  0.00    +0.004 A 
ATOM     38  C   UNL     1      10.453  -3.056  -2.400  0.00  0.00    +0.046 A 
ENDBRANCH  32  33
ENDBRANCH  29  32
ENDBRANCH  24  26
ENDBRANCH   3  24
TORSDOF 6
