REMARK  Name = ZINC43553336
REMARK  15 active torsions:
REMARK  status: ('A' for Active; 'I' for Inactive)
REMARK    1  A    between atoms: C_1  and  C_2
REMARK    2  A    between atoms: C_2  and  C_3
REMARK    3  A    between atoms: C_2  and  N_4
REMARK    4  A    between atoms: C_5  and  C_7
REMARK    5  A    between atoms: C_7  and  C_8
REMARK    6  A    between atoms: C_16  and  C_18
REMARK    7  A    between atoms: C_18  and  C_19
REMARK    8  A    between atoms: C_19  and  C_20
REMARK    9  A    between atoms: C_19  and  C_21
REMARK   10  A    between atoms: C_19  and  C_22
REMARK   11  A    between atoms: C_26  and  C_36
REMARK   12  A    between atoms: C_29  and  O_35
REMARK   13  A    between atoms: C_31  and  C_32
REMARK   14  A    between atoms: C_31  and  C_33
REMARK   15  A    between atoms: C_33  and  O_34
REMARK                            x       y       z     vdW  Elec       q    Type
REMARK                         _______ _______ _______ _____ _____    ______ ____
ROOT
ATOM      1  C   UNL     1       4.117  -1.009  -2.299  0.00  0.00    +0.054 C 
ATOM      2  C   UNL     1       4.658   0.405  -2.224  0.00  0.00    +0.058 A 
ATOM      3  C   UNL     1       5.985   0.598  -2.424  0.00  0.00    +0.015 A 
ATOM      4  S   UNL     1       6.142   2.354  -2.238  0.00  0.00    -0.057 S 
ATOM      5  C   UNL     1       4.520   2.688  -1.922  0.00  0.00    +0.165 A 
ATOM      6  N   UNL     1       3.954   1.501  -1.973  0.00  0.00    -0.229 NA
ATOM      7  N   UNL     1       3.925   3.917  -1.669  0.00  0.00    -0.265 N 
ATOM      8  C   UNL     1       4.673   5.039  -1.656  0.00  0.00    +0.219 C 
ATOM      9  O   UNL     1       5.866   4.974  -1.866  0.00  0.00    -0.275 OA
ATOM     10  C   UNL     1       7.022  -0.422  -2.725  0.00  0.00    +0.049 C 
ATOM     11  C   UNL     1       6.447  -1.851  -2.767  0.00  0.00    +0.011 C 
ATOM     12  C   UNL     1       4.998  -1.841  -3.237  0.00  0.00    -0.019 C 
ATOM     13  C   UNL     1       4.938  -1.329  -4.671  0.00  0.00    +0.010 C 
ATOM     14  C   UNL     1       5.719  -2.279  -5.579  0.00  0.00    +0.032 C 
ATOM     15  C   UNL     1       7.167  -2.417  -5.146  0.00  0.00    +0.123 C 
ATOM     16  C   UNL     1       7.368  -2.678  -3.663  0.00  0.00    +0.021 C 
ATOM     17  C   UNL     1       7.259  -4.180  -3.369  0.00  0.00    +0.016 C 
ATOM     18  C   UNL     1       4.385  -3.249  -3.192  0.00  0.00    +0.012 C 
ATOM     19  H   UNL     1       2.971   3.969  -1.501  0.00  0.00    +0.157 HD
ENDROOT
BRANCH  15  20
ATOM     20  O   UNL     1       7.905  -1.258  -5.549  0.00  0.00    -0.391 OA
ATOM     21  H   UNL     1       7.909  -1.106  -6.504  0.00  0.00    +0.210 HD
ENDBRANCH  15  20
BRANCH   1  22
ATOM     22  C   UNL     1       2.670  -1.006  -2.781  0.00  0.00    +0.106 C 
BRANCH  22  24
ATOM     23  N   UNL     1       0.473  -0.213  -1.964  0.00  0.00    -0.313 N 
ATOM     24  C   UNL     1       1.799  -0.333  -1.752  0.00  0.00    +0.214 C 
ATOM     25  O   UNL     1       2.291   0.102  -0.732  0.00  0.00    -0.276 OA
ATOM     26  H   UNL     1       0.080  -0.561  -2.780  0.00  0.00    +0.149 HD
BRANCH  23  28
ATOM     27  C   UNL     1      -0.350   1.954  -1.187  0.00  0.00    +0.027 C 
ATOM     28  C   UNL     1      -0.373   0.441  -0.964  0.00  0.00    +0.067 C 
ATOM     29  C   UNL     1      -1.809  -0.072  -1.096  0.00  0.00    +0.027 C 
ENDBRANCH  23  28
ENDBRANCH  22  24
ENDBRANCH   1  22
BRANCH   8  30
ATOM     30  C   UNL     1       4.027   6.372  -1.381  0.00  0.00    +0.102 C 
BRANCH  30  31
ATOM     31  C   UNL     1       5.090   7.472  -1.424  0.00  0.00    -0.029 C 
ATOM     32  C   UNL     1       5.742   7.497  -2.808  0.00  0.00    +0.011 C 
ATOM     33  C   UNL     1       4.435   8.826  -1.145  0.00  0.00    +0.011 C 
ATOM     34  C   UNL     1       6.156   7.193  -0.363  0.00  0.00    +0.011 C 
ENDBRANCH  30  31
ENDBRANCH   8  30
BRANCH  16  35
ATOM     35  C   UNL     1       8.836  -2.304  -3.328  0.00  0.00    +0.165 C 
BRANCH  35  36
ATOM     36  O   UNL     1       9.721  -3.064  -4.152  0.00  0.00    -0.394 OA
ATOM     37  H   UNL     1      10.658  -2.882  -3.996  0.00  0.00    +0.209 HD
ENDBRANCH  35  36
ENDBRANCH  16  35
TORSDOF 8
