REMARK  Name = ZINC53429419
REMARK  10 active torsions:
REMARK  status: ('A' for Active; 'I' for Inactive)
REMARK    1  A    between atoms: C_1  and  C_2
REMARK    2  A    between atoms: C_2  and  C_4
REMARK    3  A    between atoms: C_2  and  N_9
REMARK    4  A    between atoms: N_9  and  C_10
REMARK    5  A    between atoms: N_9  and  C_11
REMARK    6  A    between atoms: C_11  and  C_12
REMARK    7  A    between atoms: N_14  and  C_15
REMARK    8  A    between atoms: C_20  and  C_21
REMARK    9  A    between atoms: N_23  and  C_24
REMARK   10  A    between atoms: C_24  and  C_25
REMARK                            x       y       z     vdW  Elec       q    Type
REMARK                         _______ _______ _______ _____ _____    ______ ____
ROOT
ATOM      1  C   UNL     1      -4.276  -4.316   0.385  0.00  0.00    +0.045 A 
ATOM      2  C   UNL     1      -5.196  -3.548   1.085  0.00  0.00    +0.024 A 
ATOM      3  C   UNL     1      -6.470  -4.029   1.310  0.00  0.00    +0.002 A 
ATOM      4  C   UNL     1      -6.841  -5.279   0.840  0.00  0.00    +0.001 A 
ATOM      5  C   UNL     1      -5.941  -6.055   0.142  0.00  0.00    +0.015 A 
ATOM      6  C   UNL     1      -4.650  -5.579  -0.098  0.00  0.00    +0.058 A 
ENDROOT
BRANCH   1   9
ATOM      7  C   UNL     1      -2.763  -2.504   0.136  0.00  0.00    +0.201 C 
ATOM      8  O   UNL     1      -3.693  -1.729   0.216  0.00  0.00    -0.278 OA
ATOM      9  N   UNL     1      -2.990  -3.833   0.157  0.00  0.00    -0.286 N 
ATOM     10  H   UNL     1      -2.257  -4.452   0.013  0.00  0.00    +0.155 HD
BRANCH   7  11
ATOM     11  C   UNL     1      -1.355  -1.982   0.015  0.00  0.00    +0.019 C 
BRANCH  11  12
ATOM     12  N   UNL     1      -1.375  -0.513   0.016  0.00  0.00    +0.388 N 
ATOM     13  C   UNL     1      -2.073  -0.033  -1.184  0.00  0.00    -0.095 C 
ATOM     14  H   UNL     1      -1.857  -0.184   0.839  0.00  0.00    -0.081 HD
BRANCH  12  16
ATOM     15  C   UNL     1      -0.019   1.526   0.019  0.00  0.00    -0.008 C 
ATOM     16  C   UNL     1       0.003  -0.004   0.018  0.00  0.00    -0.034 C 
BRANCH  16  17
ATOM     17  C   UNL     1       0.718  -0.497   1.249  0.00  0.00    -0.024 A 
ATOM     18  C   UNL     1       1.996  -0.931   1.377  0.00  0.00    +0.009 A 
ATOM     19  C   UNL     1       2.443  -1.341   2.620  0.00  0.00    +0.008 A 
ATOM     20  C   UNL     1       1.591  -1.296   3.673  0.00  0.00    +0.045 A 
ATOM     21  S   UNL     1       0.105  -0.654   2.919  0.00  0.00    -0.103 S 
ENDBRANCH  16  17
ENDBRANCH  12  16
ENDBRANCH  11  12
ENDBRANCH   7  11
ENDBRANCH   1   9
BRANCH   6  22
ATOM     22  C   UNL     1      -3.684  -6.402  -0.850  0.00  0.00    +0.246 C 
ATOM     23  O   UNL     1      -2.534  -6.027  -0.975  0.00  0.00    -0.270 OA
ATOM     24  N   UNL     1      -4.076  -7.570  -1.397  0.00  0.00    -0.304 N 
ATOM     25  H   UNL     1      -4.993  -7.869  -1.297  0.00  0.00    +0.149 HD
BRANCH  24  26
ATOM     26  C   UNL     1      -3.116  -8.387  -2.144  0.00  0.00    +0.179 C 
BRANCH  26  27
ATOM     27  C   UNL     1      -3.801  -9.631  -2.648  0.00  0.00    +0.122 A 
ATOM     28  C   UNL     1      -4.425  -9.760  -3.833  0.00  0.00    +0.046 A 
ATOM     29  C   UNL     1      -4.921 -11.082  -3.893  0.00  0.00    +0.041 A 
ATOM     30  C   UNL     1      -4.571 -11.683  -2.741  0.00  0.00    +0.195 A 
ATOM     31  O   UNL     1      -3.888 -10.800  -1.994  0.00  0.00    -0.466 OA
ENDBRANCH  26  27
ENDBRANCH  24  26
ENDBRANCH   6  22
TORSDOF 8
