REMARK  Name = ZINC39685158
REMARK  8 active torsions:
REMARK  status: ('A' for Active; 'I' for Inactive)
REMARK    1  A    between atoms: C_4  and  O_7
REMARK    2  A    between atoms: O_7  and  C_8
REMARK    3  A    between atoms: C_9  and  C_14
REMARK    4  A    between atoms: C_18  and  C_27
REMARK    5  A    between atoms: N_29  and  C_30
REMARK    6  A    between atoms: C_30  and  C_31
REMARK    7  A    between atoms: C_31  and  O_32
REMARK    8  A    between atoms: O_32  and  C_33
REMARK                            x       y       z     vdW  Elec       q    Type
REMARK                         _______ _______ _______ _____ _____    ______ ____
ROOT
ATOM      1  C   UNL     1       6.157  -2.010  -0.256  0.00  0.00    +0.252 C 
ATOM      2  O   UNL     1       5.085  -2.583  -0.271  0.00  0.00    -0.270 OA
ATOM      3  N   UNL     1       7.302  -2.720  -0.270  0.00  0.00    -0.296 N 
ATOM      4  C   UNL     1       7.460  -4.191  -0.187  0.00  0.00    +0.121 C 
ATOM      5  C   UNL     1       8.602  -4.518  -1.175  0.00  0.00    +0.100 C 
ATOM      6  C   UNL     1       9.406  -3.212  -1.290  0.00  0.00    -0.004 C 
ATOM      7  C   UNL     1       8.689  -2.207  -0.378  0.00  0.00    +0.115 C 
ATOM      8  C   UNL     1      10.839  -3.431  -0.814  0.00  0.00    -0.010 C 
ATOM      9  C   UNL     1      11.635  -2.134  -0.993  0.00  0.00    -0.082 C 
ATOM     10  N   UNL     1      11.622  -1.742  -2.407  0.00  0.00    +0.379 N 
ATOM     11  C   UNL     1      10.249  -1.444  -2.832  0.00  0.00    -0.082 C 
ATOM     12  C   UNL     1       9.395  -2.711  -2.731  0.00  0.00    -0.010 C 
ATOM     13  H   UNL     1      12.197  -0.922  -2.532  0.00  0.00    -0.086 HD
ATOM     14  H   UNL     1      11.990  -2.496  -2.967  0.00  0.00    -0.086 HD
ENDROOT
BRANCH   1  16
ATOM     15  C   UNL     1       5.140   0.225  -0.733  0.00  0.00    +0.233 A 
ATOM     16  C   UNL     1       6.204  -0.535  -0.223  0.00  0.00    +0.099 A 
ATOM     17  C   UNL     1       7.310   0.130   0.317  0.00  0.00    +0.020 A 
ATOM     18  C   UNL     1       7.305   1.514   0.325  0.00  0.00    +0.021 A 
ATOM     19  C   UNL     1       6.218   2.193  -0.196  0.00  0.00    +0.114 A 
ATOM     20  N   UNL     1       5.188   1.546  -0.705  0.00  0.00    -0.220 NA
BRANCH  15  21
ATOM     21  O   UNL     1       4.060  -0.398  -1.260  0.00  0.00    -0.437 OA
BRANCH  21  25
ATOM     22  C   UNL     1       1.148   1.932  -3.024  0.00  0.00    +0.000 A 
ATOM     23  C   UNL     1       2.414   1.872  -3.578  0.00  0.00    +0.004 A 
ATOM     24  C   UNL     1       3.390   1.093  -2.989  0.00  0.00    +0.046 A 
ATOM     25  C   UNL     1       3.101   0.369  -1.841  0.00  0.00    +0.130 A 
ATOM     26  C   UNL     1       1.830   0.431  -1.287  0.00  0.00    +0.046 A 
ATOM     27  C   UNL     1       0.857   1.212  -1.880  0.00  0.00    +0.004 A 
ENDBRANCH  21  25
ENDBRANCH  15  21
ENDBRANCH   1  16
BRANCH   5  28
ATOM     28  C   UNL     1       8.039  -4.911  -2.516  0.00  0.00    +0.218 C 
ATOM     29  O   UNL     1       7.028  -4.383  -2.928  0.00  0.00    -0.275 OA
ATOM     30  N   UNL     1       8.660  -5.848  -3.259  0.00  0.00    -0.312 N 
ATOM     31  H   UNL     1       9.470  -6.270  -2.930  0.00  0.00    +0.149 HD
BRANCH  30  32
ATOM     32  C   UNL     1       8.113  -6.230  -4.564  0.00  0.00    +0.145 C 
BRANCH  32  33
ATOM     33  C   UNL     1       9.002  -7.304  -5.194  0.00  0.00    +0.248 C 
BRANCH  33  34
ATOM     34  O   UNL     1       8.950  -8.492  -4.400  0.00  0.00    -0.488 OA
BRANCH  34  35
ATOM     35  C   UNL     1       9.689  -9.551  -4.825  0.00  0.00    +0.156 A 
ATOM     36  C   UNL     1      10.452  -9.448  -5.978  0.00  0.00    +0.048 A 
ATOM     37  C   UNL     1      11.202 -10.525  -6.408  0.00  0.00    +0.004 A 
ATOM     38  C   UNL     1      11.193 -11.707  -5.690  0.00  0.00    +0.003 A 
ATOM     39  C   UNL     1      10.433 -11.815  -4.540  0.00  0.00    +0.042 A 
ATOM     40  C   UNL     1       9.685 -10.737  -4.101  0.00  0.00    +0.165 A 
ATOM     41  F   UNL     1       8.947 -10.839  -2.974  0.00  0.00    -0.202 F 
ENDBRANCH  34  35
ENDBRANCH  33  34
ENDBRANCH  32  33
ENDBRANCH  30  32
ENDBRANCH   5  28
TORSDOF 8
