REMARK  Name = ZINC43162893
REMARK  9 active torsions:
REMARK  status: ('A' for Active; 'I' for Inactive)
REMARK    1  A    between atoms: C_1  and  C_2
REMARK    2  A    between atoms: C_2  and  O_37
REMARK    3  A    between atoms: C_7  and  O_36
REMARK    4  A    between atoms: C_13  and  O_34
REMARK    5  A    between atoms: C_17  and  N_31
REMARK    6  A    between atoms: C_22  and  N_23
REMARK    7  A    between atoms: C_22  and  O_24
REMARK    8  A    between atoms: N_31  and  C_32
REMARK    9  A    between atoms: N_31  and  C_33
REMARK                            x       y       z     vdW  Elec       q    Type
REMARK                         _______ _______ _______ _____ _____    ______ ____
ROOT
ATOM      1  C   UNL     1      -0.936   0.481   0.739  0.00  0.00    +0.047 C 
ATOM      2  C   UNL     1      -0.407  -0.938   0.956  0.00  0.00    +0.095 C 
ATOM      3  C   UNL     1      -1.552  -1.844   1.325  0.00  0.00    -0.002 A 
ATOM      4  C   UNL     1      -2.781  -1.649   0.727  0.00  0.00    +0.007 A 
ATOM      5  C   UNL     1      -3.854  -2.465   1.043  0.00  0.00    +0.004 A 
ATOM      6  C   UNL     1      -3.713  -3.487   1.961  0.00  0.00    +0.046 A 
ATOM      7  C   UNL     1      -2.488  -3.701   2.574  0.00  0.00    +0.128 A 
ATOM      8  C   UNL     1      -1.400  -2.873   2.257  0.00  0.00    +0.065 A 
ATOM      9  C   UNL     1      -0.100  -3.094   2.915  0.00  0.00    +0.178 C 
ATOM     10  C   UNL     1       1.097  -2.359   2.347  0.00  0.00    +0.138 C 
ATOM     11  C   UNL     1       0.644  -0.918   2.061  0.00  0.00    +0.072 C 
ATOM     12  C   UNL     1       1.853  -0.086   1.637  0.00  0.00    +0.127 C 
ATOM     13  C   UNL     1       2.850  -0.004   2.792  0.00  0.00    +0.062 C 
ATOM     14  C   UNL     1       4.021   0.899   2.409  0.00  0.00    +0.013 C 
ATOM     15  C   UNL     1       4.762   0.301   1.242  0.00  0.00    +0.159 C 
ATOM     16  O   UNL     1       5.330   1.027   0.451  0.00  0.00    -0.294 OA
ATOM     17  C   UNL     1       4.800  -1.098   1.064  0.00  0.00    +0.118 C 
ATOM     18  C   UNL     1       5.508  -1.640  -0.020  0.00  0.00    +0.189 C 
ATOM     19  C   UNL     1       4.135  -1.958   1.962  0.00  0.00    +0.214 C 
ATOM     20  O   UNL     1       4.183  -3.159   1.789  0.00  0.00    -0.288 OA
ATOM     21  C   UNL     1       3.379  -1.403   3.121  0.00  0.00    +0.228 C 
ATOM     22  C   UNL     1       2.197  -2.314   3.382  0.00  0.00    +0.187 C 
ATOM     23  O   UNL     1       2.136  -2.983   4.385  0.00  0.00    -0.293 OA
ATOM     24  O   UNL     1       4.228  -1.340   4.269  0.00  0.00    -0.211 OA
ATOM     25  O   UNL     1       0.007  -3.832   3.871  0.00  0.00    -0.291 OA
ENDROOT
BRANCH  14  26
ATOM     26  N   UNL     1       3.514   2.226   2.037  0.00  0.00    +0.383 N 
ATOM     27  C   UNL     1       2.652   2.739   3.111  0.00  0.00    -0.096 C 
ATOM     28  C   UNL     1       4.644   3.143   1.836  0.00  0.00    -0.096 C 
ATOM     29  H   UNL     1       2.982   2.155   1.183  0.00  0.00    -0.082 HD
ENDBRANCH  14  26
BRANCH  18  30
ATOM     30  N   UNL     1       6.280  -0.842  -0.790  0.00  0.00    -0.329 N 
ATOM     31  H   UNL     1       6.667  -0.034  -0.416  0.00  0.00    +0.145 HD
ATOM     32  H   UNL     1       6.448  -1.076  -1.716  0.00  0.00    +0.145 HD
ENDBRANCH  18  30
BRANCH  18  33
ATOM     33  O   UNL     1       5.417  -2.953  -0.293  0.00  0.00    -0.495 OA
ATOM     34  H   UNL     1       5.939  -3.233  -1.057  0.00  0.00    +0.293 HD
ENDBRANCH  18  33
BRANCH  12  35
ATOM     35  O   UNL     1       2.481  -0.700   0.509  0.00  0.00    -0.391 OA
ATOM     36  H   UNL     1       1.977  -0.623  -0.312  0.00  0.00    +0.210 HD
ENDBRANCH  12  35
BRANCH   7  37
ATOM     37  O   UNL     1      -2.343  -4.703   3.476  0.00  0.00    -0.506 OA
ATOM     38  H   UNL     1      -2.071  -5.546   3.087  0.00  0.00    +0.292 HD
ENDBRANCH   7  37
BRANCH   2  39
ATOM     39  O   UNL     1       0.192  -1.407  -0.255  0.00  0.00    -0.384 OA
ATOM     40  H   UNL     1      -0.415  -1.438  -1.007  0.00  0.00    +0.211 HD
ENDBRANCH   2  39
TORSDOF 6
