REMARK  Name = ZINC63179566
REMARK  10 active torsions:
REMARK  status: ('A' for Active; 'I' for Inactive)
REMARK    1  A    between atoms: C_1  and  C_2
REMARK    2  A    between atoms: C_2  and  N_3
REMARK    3  A    between atoms: N_3  and  C_4
REMARK    4  A    between atoms: N_3  and  S_6
REMARK    5  A    between atoms: C_4  and  C_5
REMARK    6  A    between atoms: S_6  and  N_9
REMARK    7  A    between atoms: C_13  and  C_16
REMARK    8  A    between atoms: N_18  and  C_19
REMARK    9  A    between atoms: C_19  and  C_20
REMARK   10  A    between atoms: C_20  and  N_21
REMARK                            x       y       z     vdW  Elec       q    Type
REMARK                         _______ _______ _______ _____ _____    ______ ____
ROOT
ATOM      1  N   UNL     1      -2.849   0.546   2.079  0.00  0.00    -0.166 NA
ATOM      2  C   UNL     1      -2.220   1.588   2.902  0.00  0.00    +0.110 C 
ATOM      3  C   UNL     1      -2.379   2.938   2.194  0.00  0.00    +0.018 C 
ATOM      4  C   UNL     1      -3.860   3.182   1.895  0.00  0.00    +0.015 C 
ATOM      5  C   UNL     1      -4.381   2.084   0.965  0.00  0.00    +0.091 C 
ATOM      6  C   UNL     1      -4.244   0.728   1.653  0.00  0.00    +0.123 C 
ENDROOT
BRANCH   5   7
ATOM      7  C   UNL     1      -5.831   2.344   0.644  0.00  0.00    +0.217 C 
ATOM      8  O   UNL     1      -6.673   1.522   0.938  0.00  0.00    -0.275 OA
ATOM      9  N   UNL     1      -6.191   3.488   0.031  0.00  0.00    -0.317 N 
ATOM     10  H   UNL     1      -5.517   4.145  -0.204  0.00  0.00    +0.149 HD
BRANCH   9  11
ATOM     11  C   UNL     1      -7.600   3.741  -0.281  0.00  0.00    +0.085 C 
BRANCH  11  12
ATOM     12  C   UNL     1      -7.734   5.100  -0.970  0.00  0.00    -0.067 C 
BRANCH  12  13
ATOM     13  N   UNL     1      -9.147   5.353  -1.283  0.00  0.00    +0.379 N 
ATOM     14  H   UNL     1      -9.236   6.249  -1.738  0.00  0.00    -0.090 HD
ATOM     15  H   UNL     1      -9.491   4.629  -1.897  0.00  0.00    -0.090 HD
ATOM     16  H   UNL     1      -9.685   5.354  -0.430  0.00  0.00    -0.090 HD
ENDBRANCH  12  13
ENDBRANCH  11  12
ENDBRANCH   9  11
ENDBRANCH   5   7
BRANCH   1  17
ATOM     17  S   UNL     1      -2.001  -0.805   1.634  0.00  0.00    +0.100 S 
ATOM     18  O   UNL     1      -2.958  -1.829   1.405  0.00  0.00    -0.141 OA
ATOM     19  O   UNL     1      -0.943  -0.947   2.572  0.00  0.00    -0.141 OA
BRANCH  17  20
ATOM     20  N   UNL     1      -1.295  -0.480   0.171  0.00  0.00    -0.167 NA
BRANCH  20  22
ATOM     21  C   UNL     1       0.180   1.468   0.064  0.00  0.00    +0.022 C 
ATOM     22  C   UNL     1       0.107  -0.060   0.112  0.00  0.00    +0.107 C 
ENDBRANCH  20  22
BRANCH  20  23
ATOM     23  C   UNL     1      -2.073  -0.613  -1.063  0.00  0.00    +0.107 C 
ATOM     24  C   UNL     1      -1.837  -1.998  -1.668  0.00  0.00    +0.022 C 
ENDBRANCH  20  23
ENDBRANCH  17  20
ENDBRANCH   1  17
TORSDOF 8
