REMARK  Name = ZINC61809854
REMARK  7 active torsions:
REMARK  status: ('A' for Active; 'I' for Inactive)
REMARK    1  A    between atoms: C_3  and  C_20
REMARK    2  A    between atoms: C_6  and  C_9
REMARK    3  A    between atoms: N_11  and  C_12
REMARK    4  A    between atoms: N_11  and  C_16
REMARK    5  A    between atoms: C_12  and  C_13
REMARK    6  A    between atoms: C_16  and  C_17
REMARK    7  A    between atoms: C_20  and  N_21
REMARK                            x       y       z     vdW  Elec       q    Type
REMARK                         _______ _______ _______ _____ _____    ______ ____
ROOT
ATOM      1  C   UNL     1      -0.001  -0.020  -2.490  0.00  0.00    +0.219 C 
ATOM      2  O   UNL     1       0.541   0.766  -3.238  0.00  0.00    -0.275 OA
ATOM      3  N   UNL     1      -1.265  -0.420  -2.733  0.00  0.00    -0.284 N 
ENDROOT
BRANCH   1   8
ATOM      4  C   UNL     1       0.473   1.662  -0.153  0.00  0.00    +0.001 C 
ATOM      5  C   UNL     1       1.971   1.927  -0.319  0.00  0.00    +0.002 C 
ATOM      6  C   UNL     1       2.477   1.223  -1.579  0.00  0.00    -0.028 C 
ATOM      7  C   UNL     1       2.236  -0.283  -1.454  0.00  0.00    +0.014 C 
ATOM      8  C   UNL     1       0.738  -0.548  -1.288  0.00  0.00    +0.075 C 
ATOM      9  C   UNL     1       0.232   0.157  -0.028  0.00  0.00    +0.013 C 
BRANCH   6  10
ATOM     10  C   UNL     1       3.975   1.488  -1.745  0.00  0.00    -0.083 C 
BRANCH  10  11
ATOM     11  N   UNL     1       4.195   2.920  -1.986  0.00  0.00    +0.378 N 
ATOM     12  H   UNL     1       5.183   3.095  -2.095  0.00  0.00    -0.090 HD
ATOM     13  H   UNL     1       3.709   3.199  -2.825  0.00  0.00    -0.090 HD
ATOM     14  H   UNL     1       3.844   3.450  -1.202  0.00  0.00    -0.090 HD
ENDBRANCH  10  11
ENDBRANCH   6  10
ENDBRANCH   1   8
BRANCH   3  15
ATOM     15  C   UNL     1      -1.943   0.001  -3.962  0.00  0.00    +0.203 C 
BRANCH  15  16
ATOM     16  C   UNL     1      -1.681  -1.007  -5.051  0.00  0.00    +0.228 C 
ATOM     17  O   UNL     1      -0.996  -1.981  -4.824  0.00  0.00    -0.274 OA
ATOM     18  N   UNL     1      -2.209  -0.826  -6.278  0.00  0.00    -0.328 N 
ATOM     19  H   UNL     1      -2.757  -0.046  -6.460  0.00  0.00    +0.145 HD
ATOM     20  H   UNL     1      -2.041  -1.474  -6.979  0.00  0.00    +0.145 HD
ENDBRANCH  15  16
ENDBRANCH   3  15
BRANCH   3  21
ATOM     21  C   UNL     1      -1.960  -1.278  -1.770  0.00  0.00    +0.203 C 
BRANCH  21  22
ATOM     22  C   UNL     1      -2.816  -0.427  -0.867  0.00  0.00    +0.228 C 
ATOM     23  O   UNL     1      -2.842   0.777  -1.014  0.00  0.00    -0.274 OA
ATOM     24  N   UNL     1      -3.551  -1.004   0.104  0.00  0.00    -0.328 N 
ATOM     25  H   UNL     1      -3.530  -1.966   0.221  0.00  0.00    +0.145 HD
ATOM     26  H   UNL     1      -4.102  -0.456   0.685  0.00  0.00    +0.145 HD
ENDBRANCH  21  22
ENDBRANCH   3  21
TORSDOF 7
