REMARK  Name = ZINC36273081
REMARK  5 active torsions:
REMARK  status: ('A' for Active; 'I' for Inactive)
REMARK    1  A    between atoms: C_1  and  N_2
REMARK    2  A    between atoms: N_5  and  C_8
REMARK    3  A    between atoms: C_8  and  C_9
REMARK    4  A    between atoms: C_10  and  C_19
REMARK    5  A    between atoms: C_15  and  N_18
REMARK                            x       y       z     vdW  Elec       q    Type
REMARK                         _______ _______ _______ _____ _____    ______ ____
ROOT
ATOM      1  C   UNL     1       2.367  -4.437   1.071  0.00  0.00    +0.065 A 
ATOM      2  C   UNL     1       3.715  -4.633   0.982  0.00  0.00    +0.101 A 
ATOM      3  N   UNL     1       4.160  -5.045   2.180  0.00  0.00    -0.227 NA
ATOM      4  C   UNL     1       3.138  -5.115   3.022  0.00  0.00    +0.139 A 
ATOM      5  N   UNL     1       2.003  -4.734   2.355  0.00  0.00    -0.300 N 
ATOM      6  C   UNL     1       0.796  -4.711   2.998  0.00  0.00    +0.115 A 
ATOM      7  C   UNL     1       0.705  -5.061   4.304  0.00  0.00    +0.041 A 
ATOM      8  C   UNL     1       1.857  -5.453   5.014  0.00  0.00    +0.028 A 
ATOM      9  C   UNL     1       3.059  -5.487   4.380  0.00  0.00    +0.048 A 
ENDROOT
BRANCH   2  10
ATOM     10  C   UNL     1       4.542  -4.427  -0.227  0.00  0.00    +0.039 A 
ATOM     11  C   UNL     1       5.830  -3.974  -0.323  0.00  0.00    +0.018 A 
ATOM     12  C   UNL     1       6.402  -3.863  -1.573  0.00  0.00    +0.008 A 
ATOM     13  C   UNL     1       5.673  -4.204  -2.666  0.00  0.00    +0.046 A 
ATOM     14  S   UNL     1       4.123  -4.711  -1.939  0.00  0.00    -0.095 S 
ENDBRANCH   2  10
BRANCH   7  15
ATOM     15  N   UNL     1      -0.539  -5.033   4.950  0.00  0.00    -0.357 N 
ATOM     16  H   UNL     1      -1.333  -4.763   4.462  0.00  0.00    +0.142 HD
ATOM     17  H   UNL     1      -0.606  -5.284   5.885  0.00  0.00    +0.142 HD
ENDBRANCH   7  15
BRANCH   1  18
ATOM     18  C   UNL     1       1.453  -3.974  -0.034  0.00  0.00    +0.140 C 
BRANCH  18  23
ATOM     19  C   UNL     1      -0.018   1.465   0.010  0.00  0.00    -0.096 C 
ATOM     20  N   UNL     1       0.002  -0.004   0.002  0.00  0.00    +0.379 N 
ATOM     21  C   UNL     1       0.688  -0.477  -1.207  0.00  0.00    -0.064 C 
ATOM     22  C   UNL     1       0.693  -2.008  -1.226  0.00  0.00    +0.066 C 
ATOM     23  N   UNL     1       1.378  -2.507  -0.025  0.00  0.00    -0.300 NA
ATOM     24  C   UNL     1       0.717  -2.021   1.194  0.00  0.00    +0.066 C 
ATOM     25  C   UNL     1       0.713  -0.490   1.192  0.00  0.00    -0.064 C 
ATOM     26  H   UNL     1      -0.945  -0.353   0.010  0.00  0.00    -0.082 HD
ENDBRANCH  18  23
ENDBRANCH   1  18
TORSDOF 4
