REMARK  Name = ZINC38783394
REMARK  10 active torsions:
REMARK  status: ('A' for Active; 'I' for Inactive)
REMARK    1  A    between atoms: C_1  and  C_2
REMARK    2  A    between atoms: N_5  and  C_11
REMARK    3  A    between atoms: C_7  and  C_10
REMARK    4  A    between atoms: C_11  and  C_12
REMARK    5  A    between atoms: C_12  and  O_13
REMARK    6  A    between atoms: O_13  and  C_14
REMARK    7  A    between atoms: C_17  and  C_21
REMARK    8  A    between atoms: C_18  and  O_20
REMARK    9  A    between atoms: C_23  and  C_28
REMARK   10  A    between atoms: C_24  and  C_27
REMARK                            x       y       z     vdW  Elec       q    Type
REMARK                         _______ _______ _______ _____ _____    ______ ____
ROOT
ATOM      1  C   UNL     1      -2.027  -6.092   0.766  0.00  0.00    +0.124 A 
ATOM      2  C   UNL     1      -2.410  -6.739  -0.400  0.00  0.00    +0.046 A 
ATOM      3  C   UNL     1      -2.279  -8.111  -0.506  0.00  0.00    +0.013 A 
ATOM      4  C   UNL     1      -1.767  -8.841   0.549  0.00  0.00    +0.022 A 
ATOM      5  C   UNL     1      -1.383  -8.199   1.718  0.00  0.00    +0.126 A 
ATOM      6  C   UNL     1      -1.508  -6.823   1.824  0.00  0.00    +0.091 A 
ENDROOT
BRANCH   4   7
ATOM      7  C   UNL     1      -1.626 -10.337   0.431  0.00  0.00    +0.164 C 
ATOM      8  C   UNL     1      -0.206 -10.715   0.044  0.00  0.00    +0.011 C 
ATOM      9  C   UNL     1      -0.356 -11.337  -1.149  0.00  0.00    +0.064 C 
ATOM     10  N   UNL     1      -1.647 -11.372  -1.503  0.00  0.00    -0.182 NA
ATOM     11  N   UNL     1      -2.425 -10.849  -0.696  0.00  0.00    -0.297 N 
ATOM     12  C   UNL     1       0.773 -11.910  -1.966  0.00  0.00    +0.068 C 
ATOM     13  H   UNL     1      -3.388 -10.785  -0.787  0.00  0.00    +0.183 HD
BRANCH   8  14
ATOM     14  C   UNL     1       1.037 -10.464   0.789  0.00  0.00    -0.018 A 
ATOM     15  C   UNL     1       1.251 -11.078   2.027  0.00  0.00    +0.009 A 
ATOM     16  C   UNL     1       2.418 -10.838   2.720  0.00  0.00    +0.016 A 
ATOM     17  C   UNL     1       3.379  -9.991   2.192  0.00  0.00    +0.018 A 
ATOM     18  C   UNL     1       3.174  -9.378   0.967  0.00  0.00    +0.016 A 
ATOM     19  C   UNL     1       2.014  -9.614   0.260  0.00  0.00    +0.009 A 
ATOM     20 BR   UNL     1       4.977  -9.668   3.150  0.00  0.00    -0.050 Br
ENDBRANCH   8  14
ENDBRANCH   4   7
BRANCH   5  21
ATOM     21  O   UNL     1      -0.880  -8.919   2.755  0.00  0.00    -0.506 OA
ATOM     22  H   UNL     1       0.081  -9.024   2.731  0.00  0.00    +0.292 HD
ENDBRANCH   5  21
BRANCH   1  23
ATOM     23  O   UNL     1      -2.156  -4.744   0.870  0.00  0.00    -0.491 OA
BRANCH  23  24
ATOM     24  C   UNL     1      -2.699  -4.055  -0.259  0.00  0.00    +0.244 C 
BRANCH  24  25
ATOM     25  C   UNL     1      -2.768  -2.557   0.042  0.00  0.00    +0.125 C 
BRANCH  25  29
ATOM     26  C   UNL     1       1.374  -1.154  -2.217  0.00  0.00    +0.039 C 
ATOM     27  C   UNL     1       0.696  -1.386  -0.866  0.00  0.00    +0.130 C 
ATOM     28  C   UNL     1      -0.736  -1.881  -1.090  0.00  0.00    +0.116 C 
ATOM     29  N   UNL     1      -1.407  -2.028   0.209  0.00  0.00    -0.294 NA
ATOM     30  C   UNL     1      -1.424  -0.749   0.934  0.00  0.00    +0.116 C 
ATOM     31  C   UNL     1       0.014  -0.265   1.139  0.00  0.00    +0.130 C 
ATOM     32  O   UNL     1       0.661  -0.159  -0.132  0.00  0.00    -0.371 OA
ATOM     33  C   UNL     1       0.770  -1.266   2.015  0.00  0.00    +0.039 C 
ENDBRANCH  25  29
ENDBRANCH  24  25
ENDBRANCH  23  24
ENDBRANCH   1  23
TORSDOF 7
