REMARK  Name = ZINC54805340
REMARK  11 active torsions:
REMARK  status: ('A' for Active; 'I' for Inactive)
REMARK    1  A    between atoms: C_1  and  C_2
REMARK    2  A    between atoms: C_4  and  C_27
REMARK    3  A    between atoms: N_5  and  C_7
REMARK    4  A    between atoms: C_7  and  C_8
REMARK    5  A    between atoms: N_10  and  N_11
REMARK    6  A    between atoms: N_14  and  C_15
REMARK    7  A    between atoms: C_15  and  C_16
REMARK    8  A    between atoms: C_16  and  C_17
REMARK    9  A    between atoms: C_16  and  C_18
REMARK   10  A    between atoms: C_16  and  N_19
REMARK   11  A    between atoms: C_23  and  C_26
REMARK                            x       y       z     vdW  Elec       q    Type
REMARK                         _______ _______ _______ _____ _____    ______ ____
ROOT
ATOM      1  N   UNL     1       2.836  -5.306   2.449  0.00  0.00    -0.218 N 
ATOM      2  C   UNL     1       3.171  -6.274   3.324  0.00  0.00    +0.316 C 
ATOM      3  O   UNL     1       4.342  -6.495   3.568  0.00  0.00    -0.251 OA
ATOM      4  N   UNL     1       2.209  -6.999   3.929  0.00  0.00    -0.300 N 
ATOM      5  H   UNL     1       3.528  -4.784   2.014  0.00  0.00    +0.174 HD
ATOM      6  H   UNL     1       1.275  -6.824   3.734  0.00  0.00    +0.150 HD
ENDROOT
BRANCH   1   9
ATOM      7  C   UNL     1       1.151  -4.084   1.293  0.00  0.00    +0.251 C 
ATOM      8  O   UNL     1       2.017  -3.432   0.749  0.00  0.00    -0.272 OA
ATOM      9  N   UNL     1       1.487  -5.052   2.168  0.00  0.00    -0.232 N 
ATOM     10  H   UNL     1       0.794  -5.574   2.603  0.00  0.00    +0.173 HD
BRANCH   7  11
ATOM     11  C   UNL     1      -0.300  -3.811   0.990  0.00  0.00    +0.240 C 
BRANCH  11  16
ATOM     12  C   UNL     1      -0.672   0.802  -0.953  0.00  0.00    +0.067 C 
ATOM     13  C   UNL     1      -0.562  -0.695  -0.812  0.00  0.00    +0.060 A 
ATOM     14  C   UNL     1      -0.519  -1.617  -1.863  0.00  0.00    +0.047 A 
ATOM     15  C   UNL     1      -0.419  -2.855  -1.326  0.00  0.00    +0.037 A 
ATOM     16  N   UNL     1      -0.399  -2.721   0.017  0.00  0.00    -0.259 N 
ATOM     17  N   UNL     1      -0.485  -1.355   0.315  0.00  0.00    -0.176 NA
ATOM     18  C   UNL     1      -0.344  -4.151  -2.091  0.00  0.00    +0.065 C 
ENDBRANCH  11  16
ENDBRANCH   7  11
ENDBRANCH   1   9
BRANCH   4  19
ATOM     19  C   UNL     1       2.574  -8.052   4.880  0.00  0.00    +0.093 C 
BRANCH  19  20
ATOM     20  C   UNL     1       1.306  -8.627   5.514  0.00  0.00    -0.055 C 
ATOM     21  C   UNL     1       0.474  -9.333   4.442  0.00  0.00    -0.008 C 
ATOM     22  C   UNL     1       1.691  -9.631   6.604  0.00  0.00    -0.008 C 
BRANCH  20  23
ATOM     23  N   UNL     1       0.518  -7.539   6.108  0.00  0.00    +0.384 N 
ATOM     24  C   UNL     1       1.333  -6.835   7.106  0.00  0.00    -0.078 C 
ATOM     25  C   UNL     1       0.545  -5.650   7.669  0.00  0.00    -0.018 C 
ATOM     26  C   UNL     1      -0.739  -6.164   8.327  0.00  0.00    -0.001 C 
ATOM     27  C   UNL     1      -1.545  -6.960   7.296  0.00  0.00    -0.031 C 
ATOM     28  C   UNL     1      -0.680  -8.096   6.747  0.00  0.00    -0.075 C 
ATOM     29  C   UNL     1      -2.793  -7.543   7.963  0.00  0.00    +0.005 C 
ATOM     30  H   UNL     1       0.242  -6.891   5.385  0.00  0.00    -0.081 HD
ENDBRANCH  20  23
ENDBRANCH  19  20
ENDBRANCH   4  19
TORSDOF 6
