REMARK  Name = ZINC20205480
REMARK  12 active torsions:
REMARK  status: ('A' for Active; 'I' for Inactive)
REMARK    1  A    between atoms: C_1  and  C_2
REMARK    2  A    between atoms: C_4  and  C_34
REMARK    3  A    between atoms: C_6  and  O_8
REMARK    4  A    between atoms: O_8  and  C_9
REMARK    5  A    between atoms: C_9  and  C_10
REMARK    6  A    between atoms: C_10  and  O_11
REMARK    7  A    between atoms: O_11  and  C_12
REMARK    8  A    between atoms: C_15  and  C_20
REMARK    9  A    between atoms: C_17  and  O_18
REMARK   10  A    between atoms: O_18  and  C_19
REMARK   11  A    between atoms: C_31  and  S_32
REMARK   12  A    between atoms: S_32  and  C_33
REMARK                            x       y       z     vdW  Elec       q    Type
REMARK                         _______ _______ _______ _____ _____    ______ ____
ROOT
ATOM      1  C   UNL     1       0.773  -5.039   5.624  0.00  0.00    +0.162 A 
ATOM      2  C   UNL     1      -0.136  -5.357   6.626  0.00  0.00    +0.050 A 
ATOM      3  C   UNL     1       0.265  -6.096   7.716  0.00  0.00    +0.012 A 
ATOM      4  C   UNL     1       1.594  -6.530   7.816  0.00  0.00    -0.021 A 
ATOM      5  C   UNL     1       2.510  -6.209   6.804  0.00  0.00    +0.057 A 
ATOM      6  C   UNL     1       2.096  -5.472   5.714  0.00  0.00    +0.162 A 
ENDROOT
BRANCH   4   7
ATOM      7  C   UNL     1       2.025  -7.316   8.975  0.00  0.00    +0.024 C 
ATOM      8  C   UNL     1       1.514  -7.039  10.223  0.00  0.00    +0.079 C 
ATOM      9  C   UNL     1       1.780  -7.922  11.396  0.00  0.00    +0.137 C 
ATOM     10  N   UNL     1       2.889  -8.590  11.557  0.00  0.00    -0.284 NA
ATOM     11  N   UNL     1       0.711  -7.960  12.313  0.00  0.00    -0.211 N 
ATOM     12  C   UNL     1      -0.176  -6.902  12.334  0.00  0.00    +0.183 C 
ATOM     13  N   UNL     1      -0.196  -5.881  11.507  0.00  0.00    -0.152 NA
ATOM     14  C   UNL     1       0.674  -5.843  10.478  0.00  0.00    +0.273 C 
ATOM     15  O   UNL     1       0.766  -4.853   9.770  0.00  0.00    -0.268 OA
ATOM     16  S   UNL     1      -1.178  -7.265  13.617  0.00  0.00    +0.048 S 
ATOM     17  N   UNL     1      -0.555  -8.763  14.038  0.00  0.00    -0.185 NA
ATOM     18  C   UNL     1       0.443  -8.939  13.215  0.00  0.00    +0.175 C 
ATOM     19  H   UNL     1       3.594  -8.526  10.893  0.00  0.00    +0.188 HD
BRANCH  18  20
ATOM     20  S   UNL     1       1.414 -10.408  13.272  0.00  0.00    -0.093 S 
ATOM     21  C   UNL     1       0.670 -11.375  14.614  0.00  0.00    +0.093 C 
ENDBRANCH  18  20
ENDBRANCH   4   7
BRANCH   6  22
ATOM     22  O   UNL     1       2.980  -5.162   4.728  0.00  0.00    -0.491 OA
ATOM     23  C   UNL     1       4.319  -5.637   4.884  0.00  0.00    +0.277 C 
ENDBRANCH   6  22
BRANCH   1  24
ATOM     24  O   UNL     1       0.370  -4.310   4.552  0.00  0.00    -0.485 OA
BRANCH  24  25
ATOM     25  C   UNL     1      -0.998  -3.899   4.524  0.00  0.00    +0.270 C 
BRANCH  25  26
ATOM     26  C   UNL     1      -1.263  -3.095   3.249  0.00  0.00    +0.270 C 
BRANCH  26  27
ATOM     27  O   UNL     1      -1.098  -3.940   2.109  0.00  0.00    -0.489 OA
BRANCH  27  33
ATOM     28  C   UNL     1      -2.228  -0.011  -0.558  0.00  0.00    +0.044 C 
ATOM     29  C   UNL     1      -1.850  -1.466  -0.451  0.00  0.00    -0.047 A 
ATOM     30  C   UNL     1      -1.706  -2.229  -1.595  0.00  0.00    +0.007 A 
ATOM     31  C   UNL     1      -1.359  -3.564  -1.500  0.00  0.00    -0.047 A 
ATOM     32  C   UNL     1      -1.155  -4.139  -0.261  0.00  0.00    +0.049 A 
ATOM     33  C   UNL     1      -1.298  -3.376   0.889  0.00  0.00    +0.121 A 
ATOM     34  C   UNL     1      -1.641  -2.036   0.791  0.00  0.00    +0.049 A 
ATOM     35  C   UNL     1      -1.204  -4.392  -2.749  0.00  0.00    +0.044 C 
ENDBRANCH  27  33
ENDBRANCH  26  27
ENDBRANCH  25  26
ENDBRANCH  24  25
ENDBRANCH   1  24
TORSDOF 8
