REMARK  Name = ZINC61807559
REMARK  8 active torsions:
REMARK  status: ('A' for Active; 'I' for Inactive)
REMARK    1  A    between atoms: C_3  and  N_12
REMARK    2  A    between atoms: C_4  and  N_11
REMARK    3  A    between atoms: C_6  and  S_7
REMARK    4  A    between atoms: S_7  and  N_10
REMARK    5  A    between atoms: N_12  and  C_13
REMARK    6  A    between atoms: N_12  and  C_17
REMARK    7  A    between atoms: C_13  and  C_14
REMARK    8  A    between atoms: C_17  and  C_18
REMARK                            x       y       z     vdW  Elec       q    Type
REMARK                         _______ _______ _______ _____ _____    ______ ____
ROOT
ATOM      1  C   UNL     1      -0.435   1.523   0.248  0.00  0.00    +0.030 A 
ATOM      2  C   UNL     1       0.768   2.193   0.372  0.00  0.00    +0.027 A 
ATOM      3  C   UNL     1       1.923   1.491   0.681  0.00  0.00    +0.052 A 
ATOM      4  C   UNL     1       1.867   0.110   0.865  0.00  0.00    +0.048 A 
ATOM      5  C   UNL     1       0.656  -0.554   0.739  0.00  0.00    +0.053 A 
ATOM      6  C   UNL     1      -0.491   0.154   0.431  0.00  0.00    +0.107 A 
ENDROOT
BRANCH   6   7
ATOM      7  S   UNL     1      -2.029  -0.692   0.272  0.00  0.00    +0.056 S 
ATOM      8  O   UNL     1      -1.913  -1.890   1.027  0.00  0.00    -0.153 OA
ATOM      9  O   UNL     1      -3.047   0.268   0.517  0.00  0.00    -0.153 OA
BRANCH   7  10
ATOM     10  N   UNL     1      -2.177  -1.144  -1.315  0.00  0.00    -0.204 NA
ATOM     11  H   UNL     1      -2.673  -1.944  -1.546  0.00  0.00    +0.144 HD
ATOM     12  H   UNL     1      -1.767  -0.609  -2.012  0.00  0.00    +0.144 HD
ENDBRANCH   7  10
ENDBRANCH   6   7
BRANCH   4  13
ATOM     13  N   UNL     1       3.030  -0.605   1.177  0.00  0.00    -0.356 N 
ATOM     14  H   UNL     1       3.900  -0.192   1.057  0.00  0.00    +0.142 HD
ATOM     15  H   UNL     1       2.966  -1.513   1.512  0.00  0.00    +0.142 HD
ENDBRANCH   4  13
BRANCH   3  16
ATOM     16  N   UNL     1       3.143   2.167   0.806  0.00  0.00    -0.311 N 
BRANCH  16  17
ATOM     17  C   UNL     1       3.454   2.893   2.040  0.00  0.00    +0.201 C 
BRANCH  17  18
ATOM     18  C   UNL     1       4.271   2.012   2.949  0.00  0.00    +0.228 C 
ATOM     19  O   UNL     1       4.651   0.928   2.562  0.00  0.00    -0.274 OA
ATOM     20  N   UNL     1       4.579   2.429   4.193  0.00  0.00    -0.328 N 
ATOM     21  H   UNL     1       4.275   3.296   4.503  0.00  0.00    +0.145 HD
ATOM     22  H   UNL     1       5.105   1.862   4.779  0.00  0.00    +0.145 HD
ENDBRANCH  17  18
ENDBRANCH  16  17
BRANCH  16  23
ATOM     23  C   UNL     1       4.108   2.148  -0.296  0.00  0.00    +0.201 C 
BRANCH  23  24
ATOM     24  C   UNL     1       3.845   3.314  -1.214  0.00  0.00    +0.228 C 
ATOM     25  O   UNL     1       2.940   4.085  -0.971  0.00  0.00    -0.274 OA
ATOM     26  N   UNL     1       4.614   3.500  -2.304  0.00  0.00    -0.328 N 
ATOM     27  H   UNL     1       5.338   2.884  -2.498  0.00  0.00    +0.145 HD
ATOM     28  H   UNL     1       4.445   4.250  -2.895  0.00  0.00    +0.145 HD
ENDBRANCH  23  24
ENDBRANCH  16  23
ENDBRANCH   3  16
TORSDOF 8
