REMARK  Name = ZINC66174363
REMARK  13 active torsions:
REMARK  status: ('A' for Active; 'I' for Inactive)
REMARK    1  A    between atoms: C_1  and  C_2
REMARK    2  A    between atoms: C_2  and  C_3
REMARK    3  A    between atoms: C_3  and  C_5
REMARK    4  A    between atoms: C_3  and  N_6
REMARK    5  A    between atoms: N_6  and  C_7
REMARK    6  A    between atoms: N_6  and  C_8
REMARK    7  A    between atoms: C_8  and  C_9
REMARK    8  A    between atoms: C_9  and  N_10
REMARK    9  A    between atoms: N_13  and  C_14
REMARK   10  A    between atoms: C_14  and  C_15
REMARK   11  A    between atoms: C_15  and  C_16
REMARK   12  A    between atoms: C_19  and  S_22
REMARK   13  A    between atoms: S_22  and  N_25
REMARK                            x       y       z     vdW  Elec       q    Type
REMARK                         _______ _______ _______ _____ _____    ______ ____
ROOT
ATOM      1  N   UNL     1      -3.218   2.884   3.064  0.00  0.00    -0.301 N 
ATOM      2  C   UNL     1      -3.768   3.367   4.196  0.00  0.00    +0.300 C 
ATOM      3  O   UNL     1      -4.079   2.607   5.093  0.00  0.00    -0.253 OA
ATOM      4  N   UNL     1      -3.974   4.691   4.333  0.00  0.00    -0.299 N 
ATOM      5  H   UNL     1      -2.970   3.490   2.349  0.00  0.00    +0.150 HD
ATOM      6  H   UNL     1      -3.726   5.298   3.618  0.00  0.00    +0.150 HD
ENDROOT
BRANCH   1   7
ATOM      7  C   UNL     1      -2.995   1.444   2.914  0.00  0.00    +0.087 C 
BRANCH   7   8
ATOM      8  C   UNL     1      -2.364   1.165   1.548  0.00  0.00    -0.060 C 
BRANCH   8   9
ATOM      9  N   UNL     1      -2.140  -0.279   1.398  0.00  0.00    +0.381 N 
ATOM     10  C   UNL     1      -3.432  -0.977   1.394  0.00  0.00    -0.096 C 
ATOM     11  H   UNL     1      -1.579  -0.614   2.167  0.00  0.00    -0.082 HD
BRANCH   9  12
ATOM     12  C   UNL     1      -1.440  -0.537   0.132  0.00  0.00    -0.072 C 
ATOM     13  C   UNL     1      -2.349  -0.158  -1.039  0.00  0.00    -0.013 C 
BRANCH  12  15
ATOM     14  C   UNL     1      -0.111  -2.382   1.167  0.00  0.00    +0.002 C 
ATOM     15  C   UNL     1      -1.082  -2.021   0.041  0.00  0.00    -0.019 C 
ENDBRANCH  12  15
ENDBRANCH   9  12
ENDBRANCH   8   9
ENDBRANCH   7   8
ENDBRANCH   1   7
BRANCH   4  16
ATOM     16  C   UNL     1      -4.572   5.216   5.564  0.00  0.00    +0.110 C 
BRANCH  16  17
ATOM     17  C   UNL     1      -4.694   6.738   5.463  0.00  0.00    +0.054 C 
BRANCH  17  18
ATOM     18  C   UNL     1      -5.309   7.277   6.729  0.00  0.00    -0.046 A 
ATOM     19  C   UNL     1      -6.682   7.400   6.832  0.00  0.00    +0.005 A 
ATOM     20  C   UNL     1      -7.247   7.895   7.993  0.00  0.00    +0.029 A 
ATOM     21  C   UNL     1      -6.438   8.266   9.051  0.00  0.00    +0.105 A 
ATOM     22  C   UNL     1      -5.065   8.143   8.948  0.00  0.00    +0.029 A 
ATOM     23  C   UNL     1      -4.501   7.644   7.788  0.00  0.00    +0.005 A 
BRANCH  21  24
ATOM     24  S   UNL     1      -7.157   8.898  10.530  0.00  0.00    +0.056 S 
ATOM     25  O   UNL     1      -6.157   9.684  11.164  0.00  0.00    -0.153 OA
ATOM     26  O   UNL     1      -8.427   9.426  10.171  0.00  0.00    -0.153 OA
BRANCH  24  27
ATOM     27  N   UNL     1      -7.446   7.606  11.524  0.00  0.00    -0.204 NA
ATOM     28  H   UNL     1      -7.419   7.720  12.488  0.00  0.00    +0.144 HD
ATOM     29  H   UNL     1      -7.641   6.735  11.144  0.00  0.00    +0.144 HD
ENDBRANCH  24  27
ENDBRANCH  21  24
ENDBRANCH  17  18
ENDBRANCH  16  17
ENDBRANCH   4  16
TORSDOF 10
