REMARK  Name = ZINC10193079
REMARK  8 active torsions:
REMARK  status: ('A' for Active; 'I' for Inactive)
REMARK    1  A    between atoms: C_1  and  C_2
REMARK    2  A    between atoms: C_2  and  N_67
REMARK    3  A    between atoms: N_5  and  C_8
REMARK    4  A    between atoms: C_11  and  N_14
REMARK    5  A    between atoms: C_15  and  C_17
REMARK    6  A    between atoms: N_22  and  C_30
REMARK    7  A    between atoms: C_23  and  C_25
REMARK    8  A    between atoms: C_33  and  C_36
REMARK                            x       y       z     vdW  Elec       q    Type
REMARK                         _______ _______ _______ _____ _____    ______ ____
ROOT
ATOM      1  N   UNL     1       0.225  -0.210   0.124  0.00  0.00    -0.285 N 
ATOM      2  C   UNL     1      -0.032   1.107  -0.007  0.00  0.00    +0.223 C 
ATOM      3  O   UNL     1      -1.169   1.488  -0.188  0.00  0.00    -0.275 OA
ATOM      4  H   UNL     1       1.142  -0.521   0.190  0.00  0.00    +0.155 HD
ENDROOT
BRANCH   1   8
ATOM      5  C   UNL     1      -2.920  -2.947   0.243  0.00  0.00    +0.030 A 
ATOM      6  C   UNL     1      -3.083  -1.677   0.783  0.00  0.00    +0.025 A 
ATOM      7  C   UNL     1      -2.042  -0.771   0.743  0.00  0.00    +0.025 A 
ATOM      8  C   UNL     1      -0.832  -1.130   0.164  0.00  0.00    +0.034 A 
ATOM      9  C   UNL     1      -0.670  -2.397  -0.380  0.00  0.00    +0.025 A 
ATOM     10  C   UNL     1      -1.709  -3.305  -0.335  0.00  0.00    +0.025 A 
BRANCH   5  13
ATOM     11  C   UNL     1      -4.791  -6.085  -0.346  0.00  0.00    -0.060 C 
ATOM     12  C   UNL     1      -3.588  -5.139  -0.339  0.00  0.00    +0.086 C 
ATOM     13  N   UNL     1      -3.975  -3.865   0.284  0.00  0.00    -0.333 N 
ATOM     14  C   UNL     1      -4.438  -4.075   1.663  0.00  0.00    +0.086 C 
ATOM     15  C   UNL     1      -5.640  -5.022   1.655  0.00  0.00    -0.060 C 
ATOM     16  N   UNL     1      -5.232  -6.305   1.047  0.00  0.00    +0.382 N 
ATOM     17  H   UNL     1      -4.451  -6.697   1.587  0.00  0.00    -0.082 HD
BRANCH  16  19
ATOM     18  C   UNL     1      -6.650  -7.641   2.528  0.00  0.00    -0.017 C 
ATOM     19  C   UNL     1      -6.361  -7.259   1.075  0.00  0.00    -0.082 C 
ENDBRANCH  16  19
ENDBRANCH   5  13
ENDBRANCH   1   8
BRANCH   2  20
ATOM     20  C   UNL     1       1.095   2.105   0.066  0.00  0.00    +0.110 C 
ATOM     21  C   UNL     1       1.695   2.159   1.490  0.00  0.00    +0.111 C 
ATOM     22  C   UNL     1       2.025   3.621   1.698  0.00  0.00    +0.221 C 
ATOM     23  O   UNL     1       2.761   4.051   2.562  0.00  0.00    -0.275 OA
ATOM     24  N   UNL     1       1.385   4.374   0.787  0.00  0.00    -0.263 N 
ATOM     25  C   UNL     1       0.568   3.547  -0.108  0.00  0.00    +0.130 C 
BRANCH  24  26
ATOM     26  C   UNL     1       1.485   5.767   0.703  0.00  0.00    +0.037 A 
ATOM     27  C   UNL     1       2.384   6.450   1.512  0.00  0.00    +0.024 A 
ATOM     28  C   UNL     1       2.485   7.824   1.423  0.00  0.00    +0.005 A 
ATOM     29  C   UNL     1       1.684   8.521   0.537  0.00  0.00    -0.050 A 
ATOM     30  C   UNL     1       0.784   7.845  -0.266  0.00  0.00    +0.005 A 
ATOM     31  C   UNL     1       0.683   6.470  -0.186  0.00  0.00    +0.024 A 
ATOM     32  C   UNL     1       1.792  10.022   0.446  0.00  0.00    +0.044 C 
ENDBRANCH  24  26
BRANCH  25  33
ATOM     33  C   UNL     1       0.739   3.995  -1.537  0.00  0.00    +0.011 A 
ATOM     34  C   UNL     1      -0.177   4.034  -2.535  0.00  0.00    +0.013 A 
ATOM     35  C   UNL     1       0.208   4.492  -3.781  0.00  0.00    +0.008 A 
ATOM     36  C   UNL     1       1.494   4.878  -3.971  0.00  0.00    +0.045 A 
ATOM     37  S   UNL     1       2.204   4.606  -2.355  0.00  0.00    -0.100 S 
ENDBRANCH  25  33
ENDBRANCH   2  20
TORSDOF 6
