REMARK  Name = ZINC36812048
REMARK  7 active torsions:
REMARK  status: ('A' for Active; 'I' for Inactive)
REMARK    1  A    between atoms: C_1  and  C_2
REMARK    2  A    between atoms: C_11  and  N_26
REMARK    3  A    between atoms: C_13  and  S_15
REMARK    4  A    between atoms: S_15  and  C_16
REMARK    5  A    between atoms: C_16  and  C_18
REMARK    6  A    between atoms: C_16  and  C_19
REMARK    7  A    between atoms: N_24  and  C_25
REMARK                            x       y       z     vdW  Elec       q    Type
REMARK                         _______ _______ _______ _____ _____    ______ ____
ROOT
ATOM      1  C   UNL     1      -1.968   0.756   0.315  0.00  0.00    +0.008 C 
ATOM      2  C   UNL     1      -1.497  -0.696   0.209  0.00  0.00    -0.009 C 
ATOM      3  C   UNL     1      -0.576  -0.850  -1.005  0.00  0.00    +0.008 C 
ATOM      4  C   UNL     1      -0.302  -2.332  -1.262  0.00  0.00    +0.037 C 
ATOM      5  C   UNL     1       0.203  -2.973   0.028  0.00  0.00    -0.025 A 
ATOM      6  C   UNL     1      -0.006  -2.373   1.221  0.00  0.00    -0.004 A 
ATOM      7  S   UNL     1       0.733  -3.450   2.423  0.00  0.00    -0.073 S 
ATOM      8  C   UNL     1       1.322  -4.702   1.329  0.00  0.00    +0.115 A 
ATOM      9  C   UNL     1       0.920  -4.238   0.051  0.00  0.00    +0.051 A 
ATOM     10  C   UNL     1       1.260  -5.053  -1.068  0.00  0.00    +0.129 A 
ATOM     11  N   UNL     1       1.924  -6.173  -0.793  0.00  0.00    -0.207 NA
ATOM     12  C   UNL     1       2.268  -6.546   0.430  0.00  0.00    +0.192 A 
ATOM     13  N   UNL     1       1.980  -5.828   1.519  0.00  0.00    -0.214 NA
ATOM     14  C   UNL     1      -0.716  -1.077   1.474  0.00  0.00    +0.046 C 
ENDROOT
BRANCH  10  15
ATOM     15  N   UNL     1       0.919  -4.701  -2.361  0.00  0.00    -0.343 N 
ATOM     16  H   UNL     1       1.360  -5.128  -3.112  0.00  0.00    +0.144 HD
ATOM     17  H   UNL     1       0.239  -4.027  -2.518  0.00  0.00    +0.144 HD
ENDBRANCH  10  15
BRANCH  12  18
ATOM     18  S   UNL     1       3.146  -8.060   0.631  0.00  0.00    -0.073 S 
BRANCH  18  19
ATOM     19  C   UNL     1       3.321  -8.694  -1.060  0.00  0.00    +0.137 C 
ATOM     20  C   UNL     1       4.204  -7.745  -1.872  0.00  0.00    +0.029 C 
BRANCH  19  21
ATOM     21  C   UNL     1       3.955 -10.060  -1.021  0.00  0.00    +0.233 C 
ATOM     22  O   UNL     1       4.582 -10.411  -0.044  0.00  0.00    -0.274 OA
ATOM     23  N   UNL     1       3.825 -10.893  -2.073  0.00  0.00    -0.239 N 
ATOM     24  C   UNL     1       4.393 -12.116  -2.038  0.00  0.00    +0.306 C 
ATOM     25  O   UNL     1       5.021 -12.466  -1.059  0.00  0.00    -0.252 OA
ATOM     26  N   UNL     1       4.263 -12.948  -3.090  0.00  0.00    -0.302 N 
ATOM     27  C   UNL     1       4.880 -14.277  -3.053  0.00  0.00    +0.129 C 
ATOM     28  H   UNL     1       3.324 -10.613  -2.854  0.00  0.00    +0.159 HD
ATOM     29  H   UNL     1       3.761 -12.668  -3.872  0.00  0.00    +0.150 HD
ENDBRANCH  19  21
ENDBRANCH  18  19
ENDBRANCH  12  18
TORSDOF 4
