REMARK  Name = ZINC39550208
REMARK  6 active torsions:
REMARK  status: ('A' for Active; 'I' for Inactive)
REMARK    1  A    between atoms: C_1  and  C_2
REMARK    2  A    between atoms: C_2  and  N_3
REMARK    3  A    between atoms: C_10  and  O_32
REMARK    4  A    between atoms: C_12  and  C_16
REMARK    5  A    between atoms: N_18  and  C_19
REMARK    6  A    between atoms: C_21  and  O_31
REMARK                            x       y       z     vdW  Elec       q    Type
REMARK                         _______ _______ _______ _____ _____    ______ ____
ROOT
ATOM      1  C   UNL     1      -3.683  -1.973  -2.461  0.00  0.00    +0.229 C 
ATOM      2  O   UNL     1      -4.014  -3.140  -2.446  0.00  0.00    -0.275 OA
ATOM      3  N   UNL     1      -3.545  -1.327  -3.636  0.00  0.00    -0.297 N 
ATOM      4  H   UNL     1      -3.280  -0.394  -3.648  0.00  0.00    +0.150 HD
ENDROOT
BRANCH   3   5
ATOM      5  C   UNL     1      -3.795  -2.034  -4.894  0.00  0.00    +0.226 C 
ATOM      6  C   UNL     1      -2.931  -1.397  -5.966  0.00  0.00    +0.132 C 
ATOM      7  C   UNL     1      -3.587  -0.878  -7.084  0.00  0.00    +0.036 A 
ATOM      8  C   UNL     1      -2.860  -0.268  -8.127  0.00  0.00    +0.013 A 
ATOM      9  C   UNL     1      -3.524   0.229  -9.206  0.00  0.00    +0.001 A 
ATOM     10  C   UNL     1      -4.910   0.149  -9.302  0.00  0.00    +0.002 A 
ATOM     11  C   UNL     1      -5.665  -0.428  -8.326  0.00  0.00    +0.024 A 
ATOM     12  C   UNL     1      -5.047  -0.963  -7.184  0.00  0.00    +0.044 A 
ATOM     13  N   UNL     1      -5.792  -1.530  -6.226  0.00  0.00    -0.283 N 
ATOM     14  C   UNL     1      -5.288  -2.053  -5.128  0.00  0.00    +0.245 C 
ATOM     15  O   UNL     1      -6.027  -2.552  -4.299  0.00  0.00    -0.273 OA
ATOM     16  H   UNL     1      -6.753  -1.557  -6.349  0.00  0.00    +0.155 HD
BRANCH   6  17
ATOM     17  O   UNL     1      -1.601  -1.334  -5.845  0.00  0.00    -0.508 OA
ATOM     18  H   UNL     1      -1.158  -0.905  -6.590  0.00  0.00    +0.292 HD
ENDBRANCH   6  17
ENDBRANCH   3   5
BRANCH   1  27
ATOM     19  N   UNL     1      -1.372  -0.511   0.012  0.00  0.00    -0.271 N 
ATOM     20  C   UNL     1      -2.014  -0.753   1.231  0.00  0.00    +0.042 A 
ATOM     21  C   UNL     1      -1.536  -0.174   2.399  0.00  0.00    +0.024 A 
ATOM     22  C   UNL     1      -2.175  -0.416   3.599  0.00  0.00    +0.002 A 
ATOM     23  C   UNL     1      -3.289  -1.234   3.638  0.00  0.00    +0.000 A 
ATOM     24  C   UNL     1      -3.768  -1.812   2.477  0.00  0.00    +0.008 A 
ATOM     25  C   UNL     1      -3.134  -1.573   1.274  0.00  0.00    +0.003 A 
ATOM     26  C   UNL     1      -3.652  -2.200   0.006  0.00  0.00    +0.167 C 
ATOM     27  C   UNL     1      -3.426  -1.246  -1.166  0.00  0.00    +0.194 C 
ATOM     28  C   UNL     1      -2.010  -0.736  -1.151  0.00  0.00    +0.235 C 
ATOM     29  O   UNL     1      -1.436  -0.531  -2.199  0.00  0.00    -0.274 OA
BRANCH  19  31
ATOM     30  C   UNL     1      -0.019   1.526   0.010  0.00  0.00    +0.025 C 
ATOM     31  C   UNL     1       0.002  -0.004   0.002  0.00  0.00    +0.110 C 
ENDBRANCH  19  31
BRANCH  26  32
ATOM     32  O   UNL     1      -2.958  -3.426  -0.237  0.00  0.00    -0.386 OA
ATOM     33  H   UNL     1      -3.058  -4.081   0.467  0.00  0.00    +0.210 HD
ENDBRANCH  26  32
ENDBRANCH   1  27
TORSDOF 5
