REMARK  Name = ZINC17307567
REMARK  10 active torsions:
REMARK  status: ('A' for Active; 'I' for Inactive)
REMARK    1  A    between atoms: C_1  and  C_2
REMARK    2  A    between atoms: C_2  and  O_3
REMARK    3  A    between atoms: O_3  and  C_4
REMARK    4  A    between atoms: C_7  and  C_10
REMARK    5  A    between atoms: C_12  and  C_26
REMARK    6  A    between atoms: C_13  and  C_25
REMARK    7  A    between atoms: C_18  and  C_20
REMARK    8  A    between atoms: N_28  and  C_29
REMARK    9  A    between atoms: C_34  and  O_35
REMARK   10  A    between atoms: O_35  and  C_36
REMARK                            x       y       z     vdW  Elec       q    Type
REMARK                         _______ _______ _______ _____ _____    ______ ____
ROOT
ATOM      1  C   UNL     1      -5.045   5.142   0.061  0.00  0.00    +0.177 C 
ATOM      2  C   UNL     1      -4.952   3.639   0.098  0.00  0.00    +0.060 C 
ATOM      3  C   UNL     1      -6.027   2.840   0.156  0.00  0.00    +0.018 C 
ATOM      4  N   UNL     1      -7.307   3.337   0.192  0.00  0.00    -0.287 N 
ATOM      5  C   UNL     1      -7.459   4.695   0.433  0.00  0.00    +0.219 A 
ATOM      6  N   UNL     1      -6.409   5.553   0.378  0.00  0.00    -0.220 N 
ATOM      7  N   UNL     1      -6.909   6.820   0.676  0.00  0.00    -0.147 NA
ATOM      8  C   UNL     1      -8.204   6.676   0.886  0.00  0.00    +0.190 A 
ATOM      9  N   UNL     1      -8.528   5.378   0.734  0.00  0.00    -0.193 NA
ATOM     10  C   UNL     1      -5.824   1.347   0.182  0.00  0.00    +0.061 C 
ATOM     11  H   UNL     1      -8.075   2.760   0.055  0.00  0.00    +0.155 HD
ENDROOT
BRANCH   1  15
ATOM     12  C   UNL     1      -4.022   6.536  -3.847  0.00  0.00    +0.121 A 
ATOM     13  C   UNL     1      -3.281   6.944  -2.747  0.00  0.00    +0.046 A 
ATOM     14  C   UNL     1      -3.614   6.492  -1.485  0.00  0.00    +0.009 A 
ATOM     15  C   UNL     1      -4.684   5.634  -1.317  0.00  0.00    -0.018 A 
ATOM     16  C   UNL     1      -5.421   5.221  -2.412  0.00  0.00    +0.009 A 
ATOM     17  C   UNL     1      -5.096   5.675  -3.676  0.00  0.00    +0.046 A 
BRANCH  12  18
ATOM     18  O   UNL     1      -3.696   6.979  -5.090  0.00  0.00    -0.492 OA
BRANCH  18  20
ATOM     19  C   UNL     1      -3.988   7.118  -7.485  0.00  0.00    +0.048 C 
ATOM     20  C   UNL     1      -4.503   6.518  -6.175  0.00  0.00    +0.225 C 
ENDBRANCH  18  20
ENDBRANCH  12  18
ENDBRANCH   1  15
BRANCH   8  21
ATOM     21  C   UNL     1      -9.145   7.762   1.233  0.00  0.00    +0.058 A 
ATOM     22  C   UNL     1     -10.493   7.694   1.465  0.00  0.00    +0.019 A 
ATOM     23  C   UNL     1     -11.170   8.853   1.776  0.00  0.00    +0.008 A 
ATOM     24  C   UNL     1     -10.484  10.023   1.843  0.00  0.00    +0.046 A 
ATOM     25  S   UNL     1      -8.819   9.502   1.466  0.00  0.00    -0.093 S 
ENDBRANCH   8  21
BRANCH   2  26
ATOM     26  C   UNL     1      -3.669   3.043   0.076  0.00  0.00    +0.248 C 
ATOM     27  O   UNL     1      -3.037   2.921   1.109  0.00  0.00    -0.270 OA
ATOM     28  N   UNL     1      -3.147   2.610  -1.089  0.00  0.00    -0.279 N 
ATOM     29  H   UNL     1      -3.624   2.759  -1.920  0.00  0.00    +0.155 HD
BRANCH  28  30
ATOM     30  C   UNL     1      -1.915   1.943  -1.099  0.00  0.00    +0.076 A 
ATOM     31  C   UNL     1      -0.923   2.301  -0.197  0.00  0.00    +0.027 A 
ATOM     32  C   UNL     1       0.293   1.645  -0.213  0.00  0.00    +0.002 A 
ATOM     33  C   UNL     1       0.521   0.626  -1.118  0.00  0.00    +0.004 A 
ATOM     34  C   UNL     1      -0.464   0.260  -2.016  0.00  0.00    +0.047 A 
ATOM     35  C   UNL     1      -1.685   0.916  -2.011  0.00  0.00    +0.141 A 
BRANCH  35  36
ATOM     36  O   UNL     1      -2.655   0.557  -2.893  0.00  0.00    -0.493 OA
ATOM     37  C   UNL     1      -2.348  -0.506  -3.798  0.00  0.00    +0.277 C 
ENDBRANCH  35  36
ENDBRANCH  28  30
ENDBRANCH   2  26
TORSDOF 7
