REMARK  Name = ZINC13482190
REMARK  6 active torsions:
REMARK  status: ('A' for Active; 'I' for Inactive)
REMARK    1  A    between atoms: C_1  and  C_2
REMARK    2  A    between atoms: C_2  and  O_3
REMARK    3  A    between atoms: O_3  and  C_4
REMARK    4  A    between atoms: C_9  and  N_10
REMARK    5  A    between atoms: C_11  and  C_13
REMARK    6  A    between atoms: C_13  and  C_14
REMARK                            x       y       z     vdW  Elec       q    Type
REMARK                         _______ _______ _______ _____ _____    ______ ____
ROOT
ATOM      1  C   UNL     1      -4.928   3.877  -0.143  0.00  0.00    +0.089 C 
ENDROOT
BRANCH   1   2
ATOM      2  C   UNL     1      -6.078   2.872  -0.239  0.00  0.00    +0.025 C 
ATOM      3  C   UNL     1      -7.366   3.610  -0.466  0.00  0.00    +0.200 C 
ATOM      4  O   UNL     1      -7.380   4.523  -1.263  0.00  0.00    -0.278 OA
ATOM      5  N   UNL     1      -8.500   3.301   0.176  0.00  0.00    -0.315 N 
ATOM      6  C   UNL     1      -8.568   2.248   1.181  0.00  0.00    +0.059 C 
ATOM      7  C   UNL     1      -9.890   1.494   1.093  0.00  0.00    +0.020 C 
ATOM      8  C   UNL     1      -9.983   0.757  -0.244  0.00  0.00    +0.002 C 
ATOM      9  C   UNL     1      -8.818  -0.230  -0.354  0.00  0.00    -0.001 C 
ATOM     10  C   UNL     1      -7.498   0.541  -0.303  0.00  0.00    -0.014 C 
ATOM     11  C   UNL     1      -7.387   1.292   1.027  0.00  0.00    -0.050 C 
ATOM     12  H   UNL     1      -9.306   3.797  -0.036  0.00  0.00    +0.149 HD
ATOM     13  N   UNL     1      -6.149   2.097   1.010  0.00  0.00    +0.390 N 
ATOM     14  H   UNL     1      -6.149   2.740   1.810  0.00  0.00    -0.084 HD
ATOM     15  H   UNL     1      -5.336   1.473   1.071  0.00  0.00    -0.084 HD
ENDBRANCH   1   2
BRANCH   1  17
ATOM     16  N   UNL     1      -2.462   3.820   0.047  0.00  0.00    -0.283 N 
ATOM     17  C   UNL     1      -3.619   3.135  -0.047  0.00  0.00    +0.216 C 
ATOM     18  O   UNL     1      -3.608   1.923  -0.054  0.00  0.00    -0.276 OA
ATOM     19  H   UNL     1      -2.476   4.786   0.133  0.00  0.00    +0.155 HD
BRANCH  16  25
ATOM     20  C   UNL     1      -0.110   3.704   0.605  0.00  0.00    +0.142 A 
ATOM     21  C   UNL     1       1.097   3.023   0.575  0.00  0.00    +0.047 A 
ATOM     22  C   UNL     1       1.177   1.784  -0.034  0.00  0.00    +0.004 A 
ATOM     23  C   UNL     1       0.056   1.221  -0.615  0.00  0.00    +0.002 A 
ATOM     24  C   UNL     1      -1.150   1.896  -0.595  0.00  0.00    +0.027 A 
ATOM     25  C   UNL     1      -1.240   3.137   0.020  0.00  0.00    +0.076 A 
BRANCH  20  26
ATOM     26  O   UNL     1      -0.191   4.922   1.204  0.00  0.00    -0.490 OA
BRANCH  26  28
ATOM     27  C   UNL     1       0.723   6.809   2.405  0.00  0.00    +0.048 C 
ATOM     28  C   UNL     1       1.008   5.441   1.783  0.00  0.00    +0.226 C 
ENDBRANCH  26  28
ENDBRANCH  20  26
ENDBRANCH  16  25
ENDBRANCH   1  17
TORSDOF 5
