REMARK  Name = ZINC37015004
REMARK  4 active torsions:
REMARK  status: ('A' for Active; 'I' for Inactive)
REMARK    1  A    between atoms: C_3  and  N_19
REMARK    2  A    between atoms: C_4  and  N_8
REMARK    3  A    between atoms: C_9  and  C_11
REMARK    4  A    between atoms: C_14  and  O_18
REMARK                            x       y       z     vdW  Elec       q    Type
REMARK                         _______ _______ _______ _____ _____    ______ ____
ROOT
ATOM      1  N   UNL     1       3.596  -0.641  -0.038  0.00  0.00    -0.285 N 
ATOM      2  C   UNL     1       3.605  -1.985  -0.138  0.00  0.00    +0.203 C 
ATOM      3  O   UNL     1       2.566  -2.588  -0.304  0.00  0.00    -0.277 OA
ATOM      4  H   UNL     1       4.433  -0.154   0.017  0.00  0.00    +0.155 HD
ENDROOT
BRANCH   1   8
ATOM      5  C   UNL     1      -0.029   1.421   0.034  0.00  0.00    +0.022 A 
ATOM      6  C   UNL     1       1.069   1.986  -0.586  0.00  0.00    +0.031 A 
ATOM      7  C   UNL     1       2.277   1.306  -0.613  0.00  0.00    +0.088 A 
ATOM      8  C   UNL     1       2.380   0.051  -0.013  0.00  0.00    +0.060 A 
ATOM      9  C   UNL     1       1.274  -0.510   0.608  0.00  0.00    +0.045 A 
ATOM     10  C   UNL     1       0.072   0.176   0.630  0.00  0.00    +0.043 A 
ATOM     11 CL   UNL     1      -1.311  -0.527   1.407  0.00  0.00    -0.083 Cl
BRANCH   7  12
ATOM     12  N   UNL     1       3.393   1.877  -1.243  0.00  0.00    -0.218 N 
ATOM     13  C   UNL     1       3.425   3.032  -1.936  0.00  0.00    +0.225 A 
ATOM     14  N   UNL     1       4.649   3.214  -2.363  0.00  0.00    -0.222 NA
ATOM     15  C   UNL     1       5.421   2.205  -1.965  0.00  0.00    +0.245 A 
ATOM     16  N   UNL     1       4.699   1.363  -1.271  0.00  0.00    -0.153 NA
ENDBRANCH   7  12
ENDBRANCH   1   8
BRANCH   2  17
ATOM     17  C   UNL     1       4.906  -2.740  -0.044  0.00  0.00    +0.019 C 
ATOM     18  C   UNL     1       5.310  -2.934   1.433  0.00  0.00    +0.023 C 
ATOM     19  C   UNL     1       5.936  -4.343   1.495  0.00  0.00    +0.097 C 
ATOM     20  C   UNL     1       5.858  -4.881   0.050  0.00  0.00    -0.050 C 
ATOM     21  N   UNL     1       4.746  -4.117  -0.576  0.00  0.00    +0.388 N 
ATOM     22  H   UNL     1       3.856  -4.502  -0.299  0.00  0.00    -0.085 HD
ATOM     23  H   UNL     1       4.836  -4.120  -1.581  0.00  0.00    -0.085 HD
BRANCH  19  24
ATOM     24  O   UNL     1       7.297  -4.263   1.924  0.00  0.00    -0.394 OA
ATOM     25  H   UNL     1       7.742  -5.120   1.982  0.00  0.00    +0.210 HD
ENDBRANCH  19  24
ENDBRANCH   2  17
TORSDOF 4
