REMARK  Name = ZINC22921823
REMARK  9 active torsions:
REMARK  status: ('A' for Active; 'I' for Inactive)
REMARK    1  A    between atoms: C_1  and  C_2
REMARK    2  A    between atoms: C_2  and  C_3
REMARK    3  A    between atoms: C_8  and  N_9
REMARK    4  A    between atoms: C_10  and  C_12
REMARK    5  A    between atoms: C_12  and  N_13
REMARK    6  A    between atoms: N_16  and  C_19
REMARK    7  A    between atoms: C_19  and  C_20
REMARK    8  A    between atoms: N_22  and  C_23
REMARK    9  A    between atoms: N_22  and  C_29
REMARK                            x       y       z     vdW  Elec       q    Type
REMARK                         _______ _______ _______ _____ _____    ______ ____
ROOT
ATOM      1  N   UNL     1      -6.306   0.650   1.768  0.00  0.00    +0.387 N 
ATOM      2  C   UNL     1      -6.393   0.004   0.451  0.00  0.00    -0.063 C 
ATOM      3  C   UNL     1      -5.190  -0.922   0.260  0.00  0.00    +0.066 C 
ATOM      4  N   UNL     1      -3.950  -0.142   0.379  0.00  0.00    -0.298 NA
ATOM      5  C   UNL     1      -3.863   0.505   1.696  0.00  0.00    +0.066 C 
ATOM      6  C   UNL     1      -5.067   1.431   1.887  0.00  0.00    -0.063 C 
ATOM      7  H   UNL     1      -6.285  -0.139   2.533  0.00  0.00    -0.081 HD
ENDROOT
BRANCH   1   8
ATOM      8  C   UNL     1      -7.484   1.491   2.021  0.00  0.00    +0.019 C 
BRANCH   8  10
ATOM      9  N   UNL     1      -9.926   1.180   2.263  0.00  0.00    -0.287 N 
ATOM     10  C   UNL     1      -8.706   0.618   2.147  0.00  0.00    +0.201 C 
ATOM     11  O   UNL     1      -8.592  -0.589   2.144  0.00  0.00    -0.278 OA
ATOM     12  H   UNL     1     -10.037   2.272   2.199  0.00  0.00    +0.155 HD
BRANCH   9  18
ATOM     13  C   UNL     1     -12.173   0.889   3.100  0.00  0.00    -0.026 A 
ATOM     14  C   UNL     1     -13.282   0.089   3.297  0.00  0.00    +0.005 A 
ATOM     15  C   UNL     1     -13.276  -1.223   2.862  0.00  0.00    +0.000 A 
ATOM     16  C   UNL     1     -12.161  -1.740   2.229  0.00  0.00    +0.002 A 
ATOM     17  C   UNL     1     -11.051  -0.945   2.024  0.00  0.00    +0.023 A 
ATOM     18  C   UNL     1     -11.051   0.373   2.464  0.00  0.00    +0.036 A 
BRANCH  13  20
ATOM     19  C   UNL     1     -12.593   3.236   2.420  0.00  0.00    +0.009 C 
ATOM     20  C   UNL     1     -12.180   2.319   3.573  0.00  0.00    +0.033 C 
ENDBRANCH  13  20
ENDBRANCH   9  18
ENDBRANCH   8  10
ENDBRANCH   1   8
BRANCH   4  21
ATOM     21  C   UNL     1      -2.772  -0.982   0.127  0.00  0.00    +0.181 C 
BRANCH  21  22
ATOM     22  C   UNL     1      -1.548  -0.111   0.014  0.00  0.00    +0.234 C 
ATOM     23  O   UNL     1      -1.660   1.097   0.027  0.00  0.00    -0.274 OA
ATOM     24  N   UNL     1      -0.329  -0.673  -0.100  0.00  0.00    -0.266 N 
BRANCH  24  25
ATOM     25  C   UNL     1      -0.201  -2.127  -0.224  0.00  0.00    +0.104 C 
ATOM     26  C   UNL     1       0.498  -2.687   1.026  0.00  0.00    +0.047 C 
ATOM     27  C   UNL     1       0.900  -4.161   0.737  0.00  0.00    +0.168 C 
ATOM     28  S   UNL     1       1.489  -4.016  -1.003  0.00  0.00    -0.029 S 
ATOM     29  O   UNL     1       2.890  -3.783  -0.998  0.00  0.00    -0.174 OA
ATOM     30  O   UNL     1       0.961  -5.095  -1.761  0.00  0.00    -0.174 OA
ATOM     31  C   UNL     1       0.627  -2.465  -1.486  0.00  0.00    +0.188 C 
ENDBRANCH  24  25
BRANCH  24  32
ATOM     32  C   UNL     1       0.816   0.132  -0.101  0.00  0.00    +0.037 A 
ATOM     33  C   UNL     1       0.694   1.515  -0.128  0.00  0.00    +0.023 A 
ATOM     34  C   UNL     1       1.825   2.307  -0.128  0.00  0.00    +0.002 A 
ATOM     35  C   UNL     1       3.079   1.724  -0.102  0.00  0.00    +0.000 A 
ATOM     36  C   UNL     1       3.204   0.347  -0.075  0.00  0.00    +0.002 A 
ATOM     37  C   UNL     1       2.076  -0.451  -0.074  0.00  0.00    +0.023 A 
ENDBRANCH  24  32
ENDBRANCH  21  22
ENDBRANCH   4  21
TORSDOF 8
