REMARK  Name = ZINC04555603
REMARK  5 active torsions:
REMARK  status: ('A' for Active; 'I' for Inactive)
REMARK    1  A    between atoms: C_1  and  C_2
REMARK    2  A    between atoms: C_2  and  N_42
REMARK    3  A    between atoms: C_10  and  O_22
REMARK    4  A    between atoms: C_12  and  C_15
REMARK    5  A    between atoms: C_18  and  O_21
REMARK                            x       y       z     vdW  Elec       q    Type
REMARK                         _______ _______ _______ _____ _____    ______ ____
ROOT
ATOM      1  C   UNL     1      -2.760   7.042   0.724  0.00  0.00    -0.074 C 
ATOM      2  C   UNL     1      -2.647   5.581   1.170  0.00  0.00    +0.018 C 
ATOM      3  C   UNL     1      -2.179   4.754  -0.023  0.00  0.00    -0.027 A 
ATOM      4  C   UNL     1      -2.285   5.257  -1.277  0.00  0.00    -0.021 A 
ATOM      5  S   UNL     1      -1.636   3.989  -2.331  0.00  0.00    -0.080 S 
ATOM      6  C   UNL     1      -1.244   2.826  -1.138  0.00  0.00    +0.080 A 
ATOM      7  C   UNL     1      -1.606   3.426   0.076  0.00  0.00    +0.067 A 
ATOM      8  C   UNL     1      -1.379   2.640   1.316  0.00  0.00    +0.220 C 
ATOM      9  N   UNL     1      -0.675   1.546   1.222  0.00  0.00    -0.223 NA
ATOM     10  C   UNL     1      -0.013   1.086   0.008  0.00  0.00    +0.224 C 
ATOM     11  N   UNL     1      -0.706   1.564  -1.202  0.00  0.00    -0.313 N 
ATOM     12  C   UNL     1      -2.837   6.595  -1.655  0.00  0.00    -0.035 C 
ATOM     13  H   UNL     1      -0.777   1.018  -2.001  0.00  0.00    +0.149 HD
ATOM     14  N   UNL     1      -3.594   7.120  -0.493  0.00  0.00    +0.383 N 
ATOM     15  H   UNL     1      -4.437   6.550  -0.358  0.00  0.00    -0.081 HD
ENDROOT
BRANCH  10  16
ATOM     16  C   UNL     1       1.405   1.597  -0.003  0.00  0.00    -0.005 A 
ATOM     17  C   UNL     1       2.045   1.832  -1.206  0.00  0.00    +0.011 A 
ATOM     18  C   UNL     1       3.342   2.305  -1.218  0.00  0.00    +0.046 A 
ATOM     19  C   UNL     1       4.008   2.534  -0.023  0.00  0.00    +0.117 A 
ATOM     20  C   UNL     1       3.365   2.292   1.183  0.00  0.00    +0.046 A 
ATOM     21  C   UNL     1       2.066   1.824   1.190  0.00  0.00    +0.011 A 
BRANCH  19  22
ATOM     22  O   UNL     1       5.286   2.996  -0.032  0.00  0.00    -0.507 OA
ATOM     23  H   UNL     1       5.955   2.298  -0.042  0.00  0.00    +0.292 HD
ENDBRANCH  19  22
ENDBRANCH  10  16
BRANCH  14  25
ATOM     24  C   UNL     1      -2.762   9.421  -0.843  0.00  0.00    -0.017 C 
ATOM     25  C   UNL     1      -3.995   8.521  -0.742  0.00  0.00    -0.082 C 
ENDBRANCH  14  25
BRANCH   8  26
ATOM     26  O   UNL     1      -1.887   3.045   2.503  0.00  0.00    -0.492 OA
ATOM     27  H   UNL     1      -1.678   2.457   3.241  0.00  0.00    +0.294 HD
ENDBRANCH   8  26
TORSDOF 4
