REMARK  Name = ZINC04235048
REMARK  4 active torsions:
REMARK  status: ('A' for Active; 'I' for Inactive)
REMARK    1  A    between atoms: C_3  and  C_8
REMARK    2  A    between atoms: C_9  and  C_15
REMARK    3  A    between atoms: C_15  and  C_16
REMARK    4  A    between atoms: C_16  and  N_27
REMARK                            x       y       z     vdW  Elec       q    Type
REMARK                         _______ _______ _______ _____ _____    ______ ____
ROOT
ATOM      1  C   UNL     1       2.422   3.937  -0.000  0.00  0.00    +0.090 A 
ATOM      2  C   UNL     1       2.736   5.034   0.782  0.00  0.00    +0.064 A 
ATOM      3  C   UNL     1       4.045   5.371   0.389  0.00  0.00    +0.362 A 
ATOM      4  O   UNL     1       4.725   6.285   0.825  0.00  0.00    -0.243 OA
ATOM      5  O   UNL     1       4.395   4.492  -0.562  0.00  0.00    -0.337 OA
ATOM      6  N   UNL     1       3.508   3.700  -0.783  0.00  0.00    -0.216 N 
ATOM      7  H   UNL     1       3.565   2.984  -1.435  0.00  0.00    +0.207 HD
ENDROOT
BRANCH   1  10
ATOM      8  C   UNL     1      -0.013   1.076   0.008  0.00  0.00    +0.002 A 
ATOM      9  C   UNL     1       1.174   1.780   0.000  0.00  0.00    +0.010 A 
ATOM     10  C   UNL     1       1.154   3.175   0.008  0.00  0.00    +0.003 A 
ATOM     11  C   UNL     1      -0.068   3.850   0.023  0.00  0.00    +0.025 A 
ATOM     12  C   UNL     1      -1.248   3.134   0.031  0.00  0.00    +0.019 A 
ATOM     13  C   UNL     1      -1.220   1.749   0.017  0.00  0.00    +0.015 A 
ATOM     14 BR   UNL     1      -2.905   4.045   0.051  0.00  0.00    -0.050 Br
ENDBRANCH   1  10
BRANCH   2  15
ATOM     15  C   UNL     1       1.875   5.711   1.817  0.00  0.00    +0.025 C 
BRANCH  15  16
ATOM     16  C   UNL     1       2.115   5.064   3.183  0.00  0.00    -0.081 C 
BRANCH  16  19
ATOM     17  H   UNL     1       1.417   5.314   5.103  0.00  0.00    -0.090 HD
ATOM     18  H   UNL     1       1.448   6.718   4.212  0.00  0.00    -0.090 HD
ATOM     19  N   UNL     1       1.253   5.718   4.183  0.00  0.00    +0.378 N 
ATOM     20  H   UNL     1       0.270   5.577   3.925  0.00  0.00    -0.090 HD
ENDBRANCH  16  19
ENDBRANCH  15  16
ENDBRANCH   2  15
TORSDOF 4
