REMARK  Name = ZINC65265786
REMARK  5 active torsions:
REMARK  status: ('A' for Active; 'I' for Inactive)
REMARK    1  A    between atoms: C_1  and  O_2
REMARK    2  A    between atoms: O_2  and  C_3
REMARK    3  A    between atoms: C_3  and  C_4
REMARK    4  A    between atoms: C_4  and  N_5
REMARK    5  A    between atoms: C_21  and  C_23
REMARK                            x       y       z     vdW  Elec       q    Type
REMARK                         _______ _______ _______ _____ _____    ______ ____
ROOT
ATOM      1  N   UNL     1       1.323  -2.837  -0.169  0.00  0.00    -0.373 N 
ATOM      2  C   UNL     1       1.378  -4.067  -0.564  0.00  0.00    +0.095 C 
ATOM      3  N   UNL     1       0.716  -5.071   0.101  0.00  0.00    -0.303 N 
ATOM      4  C   UNL     1      -0.582  -5.391  -0.284  0.00  0.00    +0.037 A 
ATOM      5  C   UNL     1      -1.565  -5.579   0.677  0.00  0.00    +0.023 A 
ATOM      6  C   UNL     1      -2.850  -5.912   0.300  0.00  0.00    +0.002 A 
ATOM      7  C   UNL     1      -3.148  -6.057  -1.043  0.00  0.00    +0.000 A 
ATOM      8  C   UNL     1      -2.173  -5.865  -1.998  0.00  0.00    +0.007 A 
ATOM      9  C   UNL     1      -0.874  -5.521  -1.636  0.00  0.00    -0.012 A 
ATOM     10  C   UNL     1       0.108  -5.298  -2.757  0.00  0.00    +0.119 C 
ATOM     11  N   UNL     1       1.487  -5.635  -2.378  0.00  0.00    -0.299 NA
ATOM     12  C   UNL     1       2.157  -4.469  -1.769  0.00  0.00    +0.091 C 
ATOM     13  C   UNL     1       3.617  -4.809  -1.425  0.00  0.00    +0.050 C 
ATOM     14  C   UNL     1       4.352  -4.554  -2.760  0.00  0.00    +0.110 C 
ATOM     15  N   UNL     1       3.505  -3.657  -3.562  0.00  0.00    -0.295 N 
ATOM     16  C   UNL     1       2.294  -3.326  -2.784  0.00  0.00    +0.137 C 
ATOM     17  C   UNL     1       3.788  -3.211  -4.802  0.00  0.00    +0.246 C 
ATOM     18  O   UNL     1       2.972  -2.545  -5.409  0.00  0.00    -0.270 OA
ATOM     19  H   UNL     1       1.796  -2.148  -0.660  0.00  0.00    +0.161 HD
ATOM     20  H   UNL     1       1.508  -6.432  -1.759  0.00  0.00    +0.123 HD
ATOM     21  H   UNL     1       1.147  -5.548   0.828  0.00  0.00    +0.153 HD
ENDROOT
BRANCH  17  22
ATOM     22  C   UNL     1       5.090  -3.534  -5.425  0.00  0.00    +0.035 C 
ATOM     23  C   UNL     1       5.262  -4.759  -5.971  0.00  0.00    +0.017 C 
ATOM     24  C   UNL     1       6.608  -5.123  -6.525  0.00  0.00    +0.159 C 
ATOM     25  C   UNL     1       7.277  -3.841  -6.986  0.00  0.00    -0.018 C 
ATOM     26  C   UNL     1       7.721  -4.095  -8.229  0.00  0.00    +0.025 C 
ATOM     27  C   UNL     1       7.250  -5.360  -8.646  0.00  0.00    +0.106 C 
ATOM     28  N   UNL     1       6.576  -5.969  -7.709  0.00  0.00    -0.279 NA
ATOM     29  C   UNL     1       7.233  -2.651  -6.233  0.00  0.00    +0.007 C 
ATOM     30  C   UNL     1       6.140  -2.509  -5.431  0.00  0.00    +0.013 C 
ENDBRANCH  17  22
BRANCH   1  31
ATOM     31  C   UNL     1       0.545  -2.484   1.022  0.00  0.00    +0.141 C 
BRANCH  31  32
ATOM     32  C   UNL     1       0.645  -0.978   1.269  0.00  0.00    +0.180 C 
BRANCH  32  34
ATOM     33  C   UNL     1       0.064   1.147   0.323  0.00  0.00    +0.194 C 
ATOM     34  O   UNL     1       0.025  -0.276   0.190  0.00  0.00    -0.381 OA
ENDBRANCH  32  34
ENDBRANCH  31  32
ENDBRANCH   1  31
TORSDOF 4
