REMARK  Name = ZINC32696839
REMARK  5 active torsions:
REMARK  status: ('A' for Active; 'I' for Inactive)
REMARK    1  A    between atoms: C_4  and  S_7
REMARK    2  A    between atoms: S_7  and  C_8
REMARK    3  A    between atoms: C_14  and  C_16
REMARK    4  A    between atoms: C_16  and  S_17
REMARK    5  A    between atoms: S_17  and  C_18
REMARK                            x       y       z     vdW  Elec       q    Type
REMARK                         _______ _______ _______ _____ _____    ______ ____
ROOT
ATOM      1  C   UNL     1       3.478   5.752   0.000  0.00  0.00    +0.173 C 
ENDROOT
BRANCH   1   8
ATOM      2  C   UNL     1       4.722  12.028   0.024  0.00  0.00    +0.160 A 
ATOM      3  N   UNL     1       5.590  11.027   0.010  0.00  0.00    -0.133 NA
ATOM      4  N   UNL     1       5.218   9.822   0.013  0.00  0.00    -0.125 NA
ATOM      5  C   UNL     1       3.939   9.482   0.017  0.00  0.00    +0.189 A 
ATOM      6  S   UNL     1       3.186  11.107   0.034  0.00  0.00    -0.024 S 
ATOM      7  N   UNL     1       3.348   8.222   0.016  0.00  0.00    -0.263 N 
ATOM      8  C   UNL     1       4.118   7.116   0.002  0.00  0.00    +0.229 C 
ATOM      9  O   UNL     1       5.327   7.219  -0.009  0.00  0.00    -0.275 OA
ATOM     10  H   UNL     1       2.252   8.128   0.026  0.00  0.00    +0.157 HD
BRANCH   2  11
ATOM     11  S   UNL     1       4.999  13.768   0.032  0.00  0.00    -0.094 S 
BRANCH  11  15
ATOM     12  C   UNL     1       9.287  14.962   1.179  0.00  0.00    +0.000 C 
ATOM     13  C   UNL     1       8.714  15.533  -0.120  0.00  0.00    +0.001 C 
ATOM     14  C   UNL     1       7.189  15.401  -0.106  0.00  0.00    +0.014 C 
ATOM     15  C   UNL     1       6.806  13.924   0.015  0.00  0.00    +0.053 C 
ATOM     16  C   UNL     1       7.380  13.353   1.314  0.00  0.00    +0.014 C 
ATOM     17  C   UNL     1       8.904  13.485   1.300  0.00  0.00    +0.001 C 
ENDBRANCH  11  15
ENDBRANCH   2  11
ENDBRANCH   1   8
BRANCH   1  18
ATOM     18  S   UNL     1       4.766   4.481  -0.020  0.00  0.00    -0.078 S 
BRANCH  18  19
ATOM     19  C   UNL     1       3.766   3.030  -0.018  0.00  0.00    +0.170 A 
ATOM     20  N   UNL     1       4.378   1.814  -0.031  0.00  0.00    -0.301 N 
ATOM     21  H   UNL     1       5.477   1.752  -0.043  0.00  0.00    +0.171 HD
ATOM     22  C   UNL     1       3.696   0.645  -0.030  0.00  0.00    +0.261 A 
ATOM     23  O   UNL     1       4.262  -0.435  -0.041  0.00  0.00    -0.267 OA
ATOM     24  C   UNL     1       2.267   0.755  -0.015  0.00  0.00    +0.075 A 
ATOM     25  C   UNL     1       1.312  -0.341  -0.012  0.00  0.00    -0.023 A 
ATOM     26  C   UNL     1       0.002  -0.004   0.002  0.00  0.00    -0.004 A 
ATOM     27  S   UNL     1      -0.022   1.771   0.012  0.00  0.00    -0.073 S 
ATOM     28  C   UNL     1       1.719   2.058  -0.003  0.00  0.00    +0.117 A 
ATOM     29  N   UNL     1       2.447   3.168  -0.004  0.00  0.00    -0.216 NA
ATOM     30  C   UNL     1      -1.173  -0.932   0.007  0.00  0.00    +0.043 C 
ATOM     31  C   UNL     1      -0.687  -2.336  -0.379  0.00  0.00    +0.005 C 
ATOM     32  C   UNL     1       0.560  -2.666   0.446  0.00  0.00    +0.005 C 
ATOM     33  C   UNL     1       1.735  -1.808  -0.023  0.00  0.00    +0.037 C 
ENDBRANCH  18  19
ENDBRANCH   1  18
TORSDOF 5
