REMARK  Name = ZINC22154214
REMARK  6 active torsions:
REMARK  status: ('A' for Active; 'I' for Inactive)
REMARK    1  A    between atoms: C_1  and  C_2
REMARK    2  A    between atoms: N_7  and  C_9
REMARK    3  A    between atoms: C_9  and  C_11
REMARK    4  A    between atoms: C_9  and  C_12
REMARK    5  A    between atoms: N_14  and  C_15
REMARK    6  A    between atoms: C_18  and  N_22
REMARK                            x       y       z     vdW  Elec       q    Type
REMARK                         _______ _______ _______ _____ _____    ______ ____
ROOT
ATOM      1  C   UNL     1      -4.886   5.032   0.346  0.00  0.00    +0.203 C 
ATOM      2  O   UNL     1      -3.884   5.554  -0.095  0.00  0.00    -0.277 OA
ATOM      3  N   UNL     1      -4.820   3.803   0.895  0.00  0.00    -0.286 N 
ATOM      4  H   UNL     1      -5.741   3.294   1.217  0.00  0.00    +0.155 HD
ENDROOT
BRANCH   3   5
ATOM      5  C   UNL     1      -3.578   3.172   1.055  0.00  0.00    +0.052 A 
ATOM      6  C   UNL     1      -2.411   3.924   1.040  0.00  0.00    +0.026 A 
ATOM      7  C   UNL     1      -1.188   3.304   1.203  0.00  0.00    +0.024 A 
ATOM      8  C   UNL     1      -1.125   1.926   1.370  0.00  0.00    +0.026 A 
ATOM      9  C   UNL     1      -2.292   1.174   1.385  0.00  0.00    +0.044 A 
ATOM     10  C   UNL     1      -3.516   1.795   1.228  0.00  0.00    +0.064 A 
ATOM     11 CL   UNL     1      -4.975   0.855   1.245  0.00  0.00    -0.082 Cl
BRANCH   8  12
ATOM     12  N   UNL     1       0.115   1.298   1.530  0.00  0.00    -0.358 N 
ATOM     13  H   UNL     1       0.166   0.207   1.663  0.00  0.00    +0.142 HD
ATOM     14  H   UNL     1       1.039   1.894   1.523  0.00  0.00    +0.142 HD
ENDBRANCH   8  12
ENDBRANCH   3   5
BRANCH   1  15
ATOM     15  C   UNL     1      -6.205   5.758   0.279  0.00  0.00    +0.016 C 
ATOM     16  C   UNL     1      -6.949   5.349  -0.994  0.00  0.00    -0.004 C 
BRANCH  15  22
ATOM     17  C   UNL     1      -4.267   9.588   2.681  0.00  0.00    +0.005 C 
ATOM     18  C   UNL     1      -4.939   9.127   1.386  0.00  0.00    -0.031 C 
ATOM     19  C   UNL     1      -6.213   9.943   1.153  0.00  0.00    -0.001 C 
ATOM     20  C   UNL     1      -6.911   9.436  -0.112  0.00  0.00    -0.018 C 
ATOM     21  C   UNL     1      -7.217   7.944   0.043  0.00  0.00    -0.078 C 
ATOM     22  N   UNL     1      -5.966   7.207   0.264  0.00  0.00    +0.387 N 
ATOM     23  C   UNL     1      -5.302   7.644   1.498  0.00  0.00    -0.075 C 
ATOM     24  H   UNL     1      -5.293   7.431  -0.577  0.00  0.00    -0.081 HD
ENDBRANCH  15  22
ENDBRANCH   1  15
TORSDOF 4
