REMARK  Name = ZINC12328267
REMARK  9 active torsions:
REMARK  status: ('A' for Active; 'I' for Inactive)
REMARK    1  A    between atoms: C_1  and  O_2
REMARK    2  A    between atoms: O_2  and  C_3
REMARK    3  A    between atoms: C_6  and  C_9
REMARK    4  A    between atoms: C_9  and  N_61
REMARK    5  A    between atoms: C_14  and  C_15
REMARK    6  A    between atoms: C_14  and  N_61
REMARK    7  A    between atoms: N_17  and  C_24
REMARK    8  A    between atoms: C_24  and  C_25
REMARK    9  A    between atoms: N_27  and  C_28
REMARK                            x       y       z     vdW  Elec       q    Type
REMARK                         _______ _______ _______ _____ _____    ______ ____
ROOT
ATOM      1  C   UNL     1      -1.190  -2.039  -0.110  0.00  0.00    -0.043 C 
ENDROOT
BRANCH   1   2
ATOM      2  C   UNL     1      -2.416  -2.582  -0.796  0.00  0.00    -0.039 A 
ATOM      3  C   UNL     1      -3.153  -1.956  -1.728  0.00  0.00    +0.089 A 
ATOM      4  N   UNL     1      -4.189  -2.758  -2.121  0.00  0.00    -0.338 N 
ATOM      5  C   UNL     1      -4.144  -3.951  -1.434  0.00  0.00    +0.050 A 
ATOM      6  C   UNL     1      -3.028  -3.895  -0.579  0.00  0.00    +0.001 A 
ATOM      7  C   UNL     1      -2.734  -4.977   0.253  0.00  0.00    +0.010 A 
ATOM      8  C   UNL     1      -3.526  -6.090   0.225  0.00  0.00    +0.001 A 
ATOM      9  C   UNL     1      -4.624  -6.152  -0.622  0.00  0.00    +0.002 A 
ATOM     10  C   UNL     1      -4.936  -5.094  -1.447  0.00  0.00    +0.026 A 
BRANCH   4  11
ATOM     11  C   UNL     1      -5.196  -2.402  -3.123  0.00  0.00    +0.217 C 
BRANCH  11  12
ATOM     12  C   UNL     1      -6.411  -1.836  -2.434  0.00  0.00    +0.233 C 
ATOM     13  O   UNL     1      -6.434  -1.740  -1.225  0.00  0.00    -0.274 OA
ATOM     14  N   UNL     1      -7.473  -1.436  -3.162  0.00  0.00    -0.311 N 
ATOM     15  H   UNL     1      -7.456  -1.513  -4.128  0.00  0.00    +0.149 HD
BRANCH  14  16
ATOM     16  C   UNL     1      -8.655  -0.886  -2.492  0.00  0.00    +0.073 C 
ATOM     17  C   UNL     1     -10.026  -1.358  -2.979  0.00  0.00    +0.024 C 
ATOM     18  C   UNL     1      -9.547   0.060  -3.298  0.00  0.00    +0.024 C 
ENDBRANCH  14  16
ENDBRANCH  11  12
ENDBRANCH   4  11
ENDBRANCH   1   2
BRANCH   1  19
ATOM     19  N   UNL     1       0.013  -2.607  -0.748  0.00  0.00    +0.388 N 
ATOM     20  H   UNL     1      -0.056  -3.631  -0.751  0.00  0.00    -0.084 HD
ATOM     21  H   UNL     1       0.076  -2.266  -1.715  0.00  0.00    -0.084 HD
BRANCH  19  22
ATOM     22  C   UNL     1       1.224  -2.203  -0.010  0.00  0.00    -0.042 C 
ATOM     23  C   UNL     1       1.281  -0.667   0.125  0.00  0.00    -0.008 C 
ATOM     24  C   UNL     1       0.674  -0.385   1.522  0.00  0.00    -0.001 C 
ATOM     25  C   UNL     1       1.222  -1.556   2.375  0.00  0.00    -0.001 C 
ATOM     26  C   UNL     1       1.187  -2.768   1.421  0.00  0.00    -0.008 C 
BRANCH  22  30
ATOM     27  C   UNL     1       4.697  -3.623  -2.055  0.00  0.00    +0.120 A 
ATOM     28  C   UNL     1       4.831  -2.790  -0.954  0.00  0.00    +0.046 A 
ATOM     29  C   UNL     1       3.707  -2.332  -0.294  0.00  0.00    +0.006 A 
ATOM     30  C   UNL     1       2.449  -2.703  -0.731  0.00  0.00    -0.058 A 
ATOM     31  C   UNL     1       2.312  -3.534  -1.828  0.00  0.00    +0.006 A 
ATOM     32  C   UNL     1       3.434  -3.995  -2.491  0.00  0.00    +0.046 A 
BRANCH  27  34
ATOM     33  C   UNL     1       5.588  -4.929  -3.831  0.00  0.00    +0.277 C 
ATOM     34  O   UNL     1       5.802  -4.074  -2.705  0.00  0.00    -0.495 OA
ENDBRANCH  27  34
ENDBRANCH  22  30
ENDBRANCH  19  22
ENDBRANCH   1  19
TORSDOF 8
