REMARK  Name = ZINC52860386
REMARK  5 active torsions:
REMARK  status: ('A' for Active; 'I' for Inactive)
REMARK    1  A    between atoms: C_1  and  C_2
REMARK    2  A    between atoms: C_5  and  O_11
REMARK    3  A    between atoms: C_6  and  N_8
REMARK    4  A    between atoms: O_11  and  C_12
REMARK    5  A    between atoms: C_17  and  C_18
REMARK                            x       y       z     vdW  Elec       q    Type
REMARK                         _______ _______ _______ _____ _____    ______ ____
ROOT
ATOM      1  C   UNL     1       0.182  -4.663  -1.269  0.00  0.00    +0.139 A 
ATOM      2  C   UNL     1       0.228  -3.833  -2.379  0.00  0.00    +0.048 A 
ATOM      3  C   UNL     1       0.095  -4.364  -3.647  0.00  0.00    +0.023 A 
ATOM      4  C   UNL     1      -0.084  -5.728  -3.820  0.00  0.00    +0.042 A 
ATOM      5  C   UNL     1      -0.131  -6.567  -2.726  0.00  0.00    +0.035 A 
ATOM      6  C   UNL     1       0.007  -6.042  -1.440  0.00  0.00    +0.056 A 
ATOM      7 CL   UNL     1      -0.250  -6.382  -5.419  0.00  0.00    -0.084 Cl
ENDROOT
BRANCH   6   8
ATOM      8  C   UNL     1      -0.036  -6.936  -0.265  0.00  0.00    +0.098 C 
ATOM      9  N   UNL     1      -0.924  -6.719   0.705  0.00  0.00    -0.387 N 
ATOM     10  N   UNL     1       0.812  -7.960  -0.174  0.00  0.00    -0.344 N 
ATOM     11  H   UNL     1      -1.590  -6.020   0.606  0.00  0.00    +0.157 HD
ATOM     12  H   UNL     1       1.458  -8.118  -0.880  0.00  0.00    +0.144 HD
ATOM     13  H   UNL     1       0.783  -8.547   0.597  0.00  0.00    +0.144 HD
ATOM     14  H   UNL     1      -0.905  -7.260   1.510  0.00  0.00    +0.157 HD
ENDBRANCH   6   8
BRANCH   1  15
ATOM     15  O   UNL     1       0.311  -4.142  -0.023  0.00  0.00    -0.453 OA
BRANCH  15  20
ATOM     16  C   UNL     1       5.452  -4.033   2.276  0.00  0.00    +0.044 C 
ATOM     17  C   UNL     1       4.077  -4.062   1.661  0.00  0.00    -0.048 A 
ATOM     18  C   UNL     1       3.880  -4.678   0.438  0.00  0.00    +0.007 A 
ATOM     19  C   UNL     1       2.621  -4.706  -0.128  0.00  0.00    +0.049 A 
ATOM     20  C   UNL     1       1.552  -4.116   0.532  0.00  0.00    +0.159 A 
ATOM     21  C   UNL     1       1.752  -3.498   1.758  0.00  0.00    +0.168 A 
ATOM     22  C   UNL     1       3.013  -3.477   2.322  0.00  0.00    +0.039 A 
BRANCH  21  23
ATOM     23  N   UNL     1       0.614  -2.867   2.464  0.00  0.00    +0.060 N 
ATOM     24  O   UNL     1       0.804  -2.249   3.485  0.00  0.00    -0.126 OA
ATOM     25  O   UNL     1      -0.505  -2.969   2.018  0.00  0.00    -0.126 OA
ENDBRANCH  21  23
ENDBRANCH  15  20
ENDBRANCH   1  15
TORSDOF 4
