REMARK  Name = ZINC45067618
REMARK  10 active torsions:
REMARK  status: ('A' for Active; 'I' for Inactive)
REMARK    1  A    between atoms: C_1  and  C_2
REMARK    2  A    between atoms: C_7  and  C_12
REMARK    3  A    between atoms: C_8  and  C_11
REMARK    4  A    between atoms: C_12  and  C_14
REMARK    5  A    between atoms: C_12  and  N_15
REMARK    6  A    between atoms: N_15  and  C_16
REMARK    7  A    between atoms: C_16  and  C_17
REMARK    8  A    between atoms: C_17  and  C_18
REMARK    9  A    between atoms: C_18  and  S_19
REMARK   10  A    between atoms: S_19  and  N_22
REMARK                            x       y       z     vdW  Elec       q    Type
REMARK                         _______ _______ _______ _____ _____    ______ ____
ROOT
ATOM      1  C   UNL     1       0.087  -5.771   1.402  0.00  0.00    -0.041 C 
ATOM      2  C   UNL     1      -1.211  -6.531   1.125  0.00  0.00    -0.009 C 
ENDROOT
BRANCH   1   9
ATOM      3  C   UNL     1      -0.018   1.503   0.010  0.00  0.00    +0.067 C 
ATOM      4  C   UNL     1       0.002  -0.004   0.002  0.00  0.00    +0.062 A 
ATOM      5  C   UNL     1       0.008  -0.803  -1.131  0.00  0.00    +0.073 A 
ATOM      6  C   UNL     1       0.028  -2.127  -0.713  0.00  0.00    +0.156 A 
ATOM      7  N   UNL     1       0.041  -3.289  -1.380  0.00  0.00    -0.236 NA
ATOM      8  C   UNL     1       0.060  -4.433  -0.738  0.00  0.00    +0.117 A 
ATOM      9  C   UNL     1       0.067  -4.457   0.664  0.00  0.00    -0.022 A 
ATOM     10  C   UNL     1       0.054  -3.288   1.351  0.00  0.00    +0.045 A 
ATOM     11  N   UNL     1       0.035  -2.111   0.659  0.00  0.00    -0.218 N 
ATOM     12  N   UNL     1       0.023  -0.773   1.067  0.00  0.00    -0.170 NA
ATOM     13  C   UNL     1       0.060  -3.288   2.858  0.00  0.00    +0.066 C 
ENDBRANCH   1   9
BRANCH   1  14
ATOM     14  N   UNL     1       1.231  -6.571   0.944  0.00  0.00    +0.384 N 
ATOM     15  H   UNL     1       1.105  -6.812  -0.028  0.00  0.00    -0.085 HD
ATOM     16  H   UNL     1       2.080  -6.037   1.050  0.00  0.00    -0.085 HD
BRANCH  14  17
ATOM     17  C   UNL     1       1.321  -7.799   1.745  0.00  0.00    -0.080 C 
BRANCH  17  18
ATOM     18  C   UNL     1       2.512  -8.633   1.268  0.00  0.00    +0.005 C 
BRANCH  18  19
ATOM     19  C   UNL     1       2.606  -9.912   2.102  0.00  0.00    +0.183 C 
BRANCH  19  20
ATOM     20  S   UNL     1       4.018 -10.900   1.537  0.00  0.00    +0.027 S 
ATOM     21  O   UNL     1       3.774 -11.398   0.228  0.00  0.00    -0.158 OA
ATOM     22  O   UNL     1       5.236 -10.235   1.844  0.00  0.00    -0.158 OA
BRANCH  20  23
ATOM     23  N   UNL     1       4.013 -12.243   2.506  0.00  0.00    -0.208 NA
ATOM     24  H   UNL     1       3.335 -12.343   3.192  0.00  0.00    +0.144 HD
ATOM     25  H   UNL     1       4.689 -12.928   2.389  0.00  0.00    +0.144 HD
ENDBRANCH  20  23
ENDBRANCH  19  20
ENDBRANCH  18  19
ENDBRANCH  17  18
ENDBRANCH  14  17
ENDBRANCH   1  14
TORSDOF 7
