REMARK  Name = ZINC09167567
REMARK  11 active torsions:
REMARK  status: ('A' for Active; 'I' for Inactive)
REMARK    1  A    between atoms: C_1  and  C_2
REMARK    2  A    between atoms: C_2  and  CA_3
REMARK    3  A    between atoms: CA_3  and  C_5
REMARK    4  A    between atoms: CA_3  and  N_75
REMARK    5  A    between atoms: C_5  and  O_6
REMARK    6  A    between atoms: C_7  and  C_8
REMARK    7  A    between atoms: C_11  and  O_38
REMARK    8  A    between atoms: C_14  and  O_37
REMARK    9  A    between atoms: C_23  and  C_36
REMARK   10  A    between atoms: C_24  and  O_35
REMARK   11  A    between atoms: C_27  and  C_29
REMARK                            x       y       z     vdW  Elec       q    Type
REMARK                         _______ _______ _______ _____ _____    ______ ____
ROOT
ATOM      1  C   UNL     1       0.886   1.314   1.675  0.00  0.00    +0.036 C 
ATOM      2  C   UNL     1       2.275   1.858   1.322  0.00  0.00    +0.018 C 
ATOM      3  C   UNL     1       2.253   3.382   1.242  0.00  0.00    +0.032 C 
ATOM      4  C   UNL     1       1.217   3.861   0.227  0.00  0.00    +0.117 C 
ATOM      5  C   UNL     1      -0.165   3.309   0.579  0.00  0.00    +0.067 C 
ATOM      6  C   UNL     1      -0.106   1.783   0.605  0.00  0.00    +0.079 C 
ATOM      7  C   UNL     1      -1.496   1.195   0.824  0.00  0.00    +0.036 C 
ATOM      8  C   UNL     1      -1.428  -0.341   0.816  0.00  0.00    +0.009 C 
ATOM      9  C   UNL     1      -0.479  -0.762   1.931  0.00  0.00    +0.025 C 
ATOM     10  C   UNL     1       0.918  -0.216   1.639  0.00  0.00    +0.009 C 
ATOM     11  C   UNL     1       1.931  -0.827   2.590  0.00  0.00    +0.005 C 
ATOM     12  C   UNL     1       2.073  -2.343   2.349  0.00  0.00    +0.010 C 
ATOM     13  C   UNL     1       0.836  -2.918   1.717  0.00  0.00    +0.004 C 
ATOM     14  C   UNL     1      -0.443  -2.230   2.233  0.00  0.00    +0.075 C 
ATOM     15  C   UNL     1      -1.544  -3.092   1.595  0.00  0.00    +0.036 C 
ATOM     16  C   UNL     1      -0.993  -4.534   1.755  0.00  0.00    +0.011 C 
ATOM     17  C   UNL     1       0.535  -4.403   1.984  0.00  0.00    +0.027 C 
ATOM     18  C   UNL     1       0.945  -2.816   0.182  0.00  0.00    +0.014 C 
ENDROOT
BRANCH  17  19
ATOM     19  C   UNL     1       0.908  -4.852   3.373  0.00  0.00    -0.022 C 
ATOM     20  C   UNL     1       1.677  -5.890   3.690  0.00  0.00    +0.094 C 
ATOM     21  C   UNL     1       1.795  -5.986   5.147  0.00  0.00    +0.332 C 
ATOM     22  O   UNL     1       2.432  -6.833   5.742  0.00  0.00    -0.246 OA
ATOM     23  O   UNL     1       1.092  -4.997   5.731  0.00  0.00    -0.457 OA
ATOM     24  C   UNL     1       0.486  -4.205   4.671  0.00  0.00    +0.264 C 
ENDBRANCH  17  19
BRANCH   1  25
ATOM     25  C   UNL     1       0.494   1.804   3.040  0.00  0.00    +0.060 C 
ATOM     26  N   UNL     1       1.354   2.566   3.677  0.00  0.00    -0.388 N 
ATOM     27  H   UNL     1       2.252   2.803   3.239  0.00  0.00    +0.159 HD
BRANCH  26  28
ATOM     28  CA  UNL     1       1.023   3.091   5.046  0.00  0.00    +0.104 C 
BRANCH  28  30
ATOM     29  C   UNL     1       1.977   1.072   6.168  0.00  0.00    +0.006 C 
ATOM     30  C   UNL     1       2.090   2.591   6.023  0.00  0.00    +0.023 C 
ENDBRANCH  28  30
BRANCH  28  31
ATOM     31  C   UNL     1       1.054   4.620   4.996  0.00  0.00    +0.180 C 
BRANCH  31  32
ATOM     32  O   UNL     1       2.374   5.059   4.672  0.00  0.00    -0.393 OA
ATOM     33  H   UNL     1       2.468   6.021   4.623  0.00  0.00    +0.209 HD
ENDBRANCH  31  32
ENDBRANCH  28  31
ENDBRANCH  26  28
ENDBRANCH   1  25
BRANCH  14  34
ATOM     34  O   UNL     1      -0.539  -2.382   3.668  0.00  0.00    -0.388 OA
ATOM     35  H   UNL     1      -1.343  -2.005   4.050  0.00  0.00    +0.210 HD
ENDBRANCH  14  34
BRANCH   6  36
ATOM     36  O   UNL     1       0.369   1.335  -0.677  0.00  0.00    -0.388 OA
ATOM     37  H   UNL     1      -0.189   1.604  -1.419  0.00  0.00    +0.210 HD
ENDBRANCH   6  36
BRANCH   4  38
ATOM     38  O   UNL     1       1.170   5.291   0.236  0.00  0.00    -0.392 OA
ATOM     39  H   UNL     1       2.013   5.714   0.021  0.00  0.00    +0.210 HD
ENDBRANCH   4  38
TORSDOF 9
