REMARK  Name = ZINC62794463
REMARK  3 active torsions:
REMARK  status: ('A' for Active; 'I' for Inactive)
REMARK    1  A    between atoms: C_5  and  O_7
REMARK    2  A    between atoms: O_7  and  C_8
REMARK    3  A    between atoms: C_11  and  C_15
REMARK                            x       y       z     vdW  Elec       q    Type
REMARK                         _______ _______ _______ _____ _____    ______ ____
ROOT
ATOM      1  C   UNL     1      -0.001  -2.602  -0.020  0.00  0.00    +0.147 A 
ATOM      2  C   UNL     1      -1.131  -1.794  -0.069  0.00  0.00    +0.048 A 
ATOM      3  C   UNL     1      -2.386  -2.361  -0.067  0.00  0.00    +0.015 A 
ATOM      4  C   UNL     1      -2.523  -3.750  -0.017  0.00  0.00    +0.014 A 
ATOM      5  C   UNL     1      -1.386  -4.559   0.032  0.00  0.00    +0.035 A 
ATOM      6  C   UNL     1      -0.133  -3.985   0.025  0.00  0.00    +0.084 A 
ATOM      7 CL   UNL     1       1.282  -4.990   0.078  0.00  0.00    -0.080 Cl
ENDROOT
BRANCH   4   8
ATOM      8  C   UNL     1      -3.868  -4.361  -0.014  0.00  0.00    +0.094 C 
ATOM      9  N   UNL     1      -3.997  -5.687   0.034  0.00  0.00    -0.387 N 
ATOM     10  N   UNL     1      -4.952  -3.587  -0.060  0.00  0.00    -0.345 N 
ATOM     11  H   UNL     1      -3.208  -6.250   0.067  0.00  0.00    +0.157 HD
ATOM     12  H   UNL     1      -4.858  -2.623  -0.095  0.00  0.00    +0.144 HD
ATOM     13  H   UNL     1      -5.835  -3.989  -0.058  0.00  0.00    +0.144 HD
ATOM     14  H   UNL     1      -4.880  -6.088   0.035  0.00  0.00    +0.157 HD
ENDBRANCH   4   8
BRANCH   1  15
ATOM     15  O   UNL     1       1.234  -2.039  -0.022  0.00  0.00    -0.453 OA
BRANCH  15  20
ATOM     16  C   UNL     1       1.862  -2.079  -3.606  0.00  0.00    +0.004 A 
ATOM     17  C   UNL     1       3.164  -1.614  -3.644  0.00  0.00    +0.001 A 
ATOM     18  C   UNL     1       3.820  -1.291  -2.471  0.00  0.00    +0.019 A 
ATOM     19  C   UNL     1       3.177  -1.432  -1.256  0.00  0.00    +0.060 A 
ATOM     20  C   UNL     1       1.870  -1.899  -1.215  0.00  0.00    +0.142 A 
ATOM     21  C   UNL     1       1.214  -2.222  -2.394  0.00  0.00    +0.047 A 
ATOM     22 BR   UNL     1       4.075  -0.992   0.348  0.00  0.00    -0.046 Br
ENDBRANCH  15  20
ENDBRANCH   1  15
TORSDOF 3
