REMARK  Name = ZINC04949730
REMARK  3 active torsions:
REMARK  status: ('A' for Active; 'I' for Inactive)
REMARK    1  A    between atoms: C_3  and  O_23
REMARK    2  A    between atoms: C_8  and  C_12
REMARK    3  A    between atoms: N_14  and  C_15
REMARK                            x       y       z     vdW  Elec       q    Type
REMARK                         _______ _______ _______ _____ _____    ______ ____
ROOT
ATOM      1  C   UNL     1       7.248   5.426  -0.360  0.00  0.00    +0.015 A 
ATOM      2  C   UNL     1       8.395   6.155  -0.471  0.00  0.00    +0.046 A 
ATOM      3  C   UNL     1       8.340   7.544  -0.567  0.00  0.00    +0.120 A 
ATOM      4  C   UNL     1       7.120   8.202  -0.551  0.00  0.00    +0.092 A 
ATOM      5  C   UNL     1       5.943   7.477  -0.439  0.00  0.00    +0.141 A 
ATOM      6  C   UNL     1       6.003   6.074  -0.343  0.00  0.00    +0.018 A 
ATOM      7  C   UNL     1       4.811   5.318  -0.222  0.00  0.00    +0.030 A 
ATOM      8  C   UNL     1       3.598   5.981  -0.212  0.00  0.00    +0.097 A 
ATOM      9  C   UNL     1       3.592   7.450  -0.316  0.00  0.00    +0.205 A 
ATOM     10  N   UNL     1       2.460   8.101  -0.303  0.00  0.00    -0.369 N 
ATOM     11  O   UNL     1       4.756   8.124  -0.423  0.00  0.00    -0.439 OA
ATOM     12  H   UNL     1       2.456   9.199  -0.381  0.00  0.00    +0.159 HD
ATOM     13  H   UNL     1       1.511   7.553  -0.215  0.00  0.00    +0.159 HD
ENDROOT
BRANCH   8  14
ATOM     14  C   UNL     1       2.337   5.234  -0.093  0.00  0.00    +0.253 C 
ATOM     15  O   UNL     1       1.276   5.830  -0.081  0.00  0.00    -0.270 OA
ATOM     16  N   UNL     1       2.356   3.890   0.001  0.00  0.00    -0.280 N 
ATOM     17  H   UNL     1       3.316   3.358   0.081  0.00  0.00    +0.155 HD
BRANCH  16  18
ATOM     18  C   UNL     1       1.156   3.171  -0.003  0.00  0.00    +0.054 A 
ATOM     19  C   UNL     1       0.024   3.711  -0.598  0.00  0.00    +0.044 A 
ATOM     20  C   UNL     1      -1.161   2.999  -0.600  0.00  0.00    +0.043 A 
ATOM     21  C   UNL     1      -1.217   1.746  -0.015  0.00  0.00    +0.021 A 
ATOM     22  C   UNL     1      -0.093   1.208   0.584  0.00  0.00    +0.023 A 
ATOM     23  C   UNL     1       1.095   1.915   0.589  0.00  0.00    +0.062 A 
ATOM     24 CL   UNL     1       2.508   1.236   1.335  0.00  0.00    -0.082 Cl
ATOM     25 CL   UNL     1      -2.577   3.673  -1.344  0.00  0.00    -0.083 Cl
ENDBRANCH  16  18
ENDBRANCH   8  14
BRANCH   3  26
ATOM     26  O   UNL     1       9.489   8.258  -0.676  0.00  0.00    -0.507 OA
ATOM     27  H   UNL     1       9.450   9.354  -0.752  0.00  0.00    +0.292 HD
ENDBRANCH   3  26
TORSDOF 3
