REMARK  Name = ZINC04480805
REMARK  3 active torsions:
REMARK  status: ('A' for Active; 'I' for Inactive)
REMARK    1  A    between atoms: C_3  and  C_6
REMARK    2  A    between atoms: C_9  and  C_28
REMARK    3  A    between atoms: N_19  and  C_20
REMARK                            x       y       z     vdW  Elec       q    Type
REMARK                         _______ _______ _______ _____ _____    ______ ____
ROOT
ATOM      1  C   UNL     1      -0.833   2.897   2.239  0.00  0.00    +0.087 A 
ATOM      2  C   UNL     1      -1.833   2.829   1.255  0.00  0.00    -0.016 A 
ATOM      3  C   UNL     1      -1.534   2.289   0.042  0.00  0.00    -0.021 A 
ATOM      4  C   UNL     1      -0.233   1.800  -0.177  0.00  0.00    +0.093 A 
ATOM      5  C   UNL     1       0.720   1.896   0.851  0.00  0.00    +0.117 A 
ATOM      6  N   UNL     1       2.005   1.423   0.648  0.00  0.00    -0.313 N 
ATOM      7  C   UNL     1       2.338   0.372   1.619  0.00  0.00    +0.125 C 
ATOM      8  C   UNL     1       3.690  -0.248   1.250  0.00  0.00    +0.128 C 
ATOM      9  N   UNL     1       4.684   0.830   1.136  0.00  0.00    -0.282 N 
ATOM     10  C   UNL     1       4.360   1.987   0.286  0.00  0.00    +0.128 C 
ATOM     11  C   UNL     1       2.982   2.519   0.693  0.00  0.00    +0.125 C 
ATOM     12  C   UNL     1       5.859   0.761   1.792  0.00  0.00    +0.307 C 
ATOM     13  O   UNL     1       6.602   1.723   1.812  0.00  0.00    -0.252 OA
ATOM     14  N   UNL     1       6.210  -0.375   2.427  0.00  0.00    -0.269 N 
ATOM     15  C   UNL     1      -2.531   2.192  -1.080  0.00  0.00    +0.037 C 
ATOM     16  C   UNL     1      -3.954   2.355  -0.548  0.00  0.00    +0.005 C 
ATOM     17  C   UNL     1      -4.004   3.620   0.318  0.00  0.00    +0.005 C 
ATOM     18  C   UNL     1      -3.201   3.358   1.594  0.00  0.00    +0.037 C 
ATOM     19  H   UNL     1       5.682  -1.180   2.308  0.00  0.00    +0.156 HD
ATOM     20  N   UNL     1       0.445   2.442   2.068  0.00  0.00    -0.339 N 
ATOM     21  H   UNL     1       1.153   2.508   2.809  0.00  0.00    +0.167 HD
ENDROOT
BRANCH  14  22
ATOM     22  C   UNL     1       7.336  -0.392   3.258  0.00  0.00    +0.036 A 
ATOM     23  C   UNL     1       8.367   0.516   3.053  0.00  0.00    +0.025 A 
ATOM     24  C   UNL     1       9.475   0.501   3.877  0.00  0.00    +0.023 A 
ATOM     25  C   UNL     1       9.565  -0.426   4.900  0.00  0.00    +0.059 A 
ATOM     26  C   UNL     1       8.542  -1.337   5.104  0.00  0.00    +0.061 A 
ATOM     27  C   UNL     1       7.428  -1.321   4.285  0.00  0.00    +0.044 A 
ATOM     28 CL   UNL     1       8.658  -2.498   6.389  0.00  0.00    -0.082 Cl
ATOM     29 CL   UNL     1      10.962  -0.447   5.931  0.00  0.00    -0.082 Cl
ENDBRANCH  14  22
BRANCH   1  32
ATOM     30  C   UNL     1      -1.215   3.933   5.727  0.00  0.00    +0.042 A 
ATOM     31  C   UNL     1      -0.648   3.093   4.751  0.00  0.00    +0.051 A 
ATOM     32  C   UNL     1      -1.149   3.493   3.550  0.00  0.00    +0.151 A 
ATOM     33  O   UNL     1      -1.981   4.530   3.768  0.00  0.00    -0.461 OA
ATOM     34  C   UNL     1      -2.027   4.796   5.082  0.00  0.00    +0.196 A 
ENDBRANCH   1  32
BRANCH   4  35
ATOM     35  C   UNL     1       0.118   1.216  -1.437  0.00  0.00    +0.103 C 
ATOM     36  N   UNL     1       0.397   0.753  -2.436  0.00  0.00    -0.191 NA
ENDBRANCH   4  35
TORSDOF 3
