REMARK  Name = ZINC22325803
REMARK  9 active torsions:
REMARK  status: ('A' for Active; 'I' for Inactive)
REMARK    1  A    between atoms: C_1  and  O_2
REMARK    2  A    between atoms: O_2  and  C_3
REMARK    3  A    between atoms: C_5  and  C_10
REMARK    4  A    between atoms: C_8  and  O_9
REMARK    5  A    between atoms: N_11  and  N_12
REMARK    6  A    between atoms: C_13  and  C_25
REMARK    7  A    between atoms: N_17  and  C_18
REMARK    8  A    between atoms: C_28  and  O_32
REMARK    9  A    between atoms: C_30  and  O_31
REMARK                            x       y       z     vdW  Elec       q    Type
REMARK                         _______ _______ _______ _____ _____    ______ ____
ROOT
ATOM      1  N   UNL     1      -4.832   3.926   0.161  0.00  0.00    -0.209 N 
ATOM      2  C   UNL     1      -6.034   3.283   0.271  0.00  0.00    +0.085 A 
ATOM      3  C   UNL     1      -7.170   4.004   0.376  0.00  0.00    +0.077 A 
ATOM      4  S   UNL     1      -6.557   5.680   0.322  0.00  0.00    -0.058 S 
ATOM      5  C   UNL     1      -4.818   5.304   0.167  0.00  0.00    +0.173 A 
ATOM      6  N   UNL     1      -3.792   6.128   0.081  0.00  0.00    -0.334 N 
ATOM      7  H   UNL     1      -2.766   5.731   0.071  0.00  0.00    +0.168 HD
ENDROOT
BRANCH   6   8
ATOM      8  C   UNL     1      -4.003   7.478   0.002  0.00  0.00    +0.041 A 
ATOM      9  C   UNL     1      -4.248   8.078  -1.235  0.00  0.00    +0.028 A 
ATOM     10  C   UNL     1      -4.466   9.438  -1.307  0.00  0.00    +0.040 A 
ATOM     11  C   UNL     1      -4.430  10.210  -0.157  0.00  0.00    +0.124 A 
ATOM     12  C   UNL     1      -4.181   9.621   1.072  0.00  0.00    +0.040 A 
ATOM     13  C   UNL     1      -3.968   8.261   1.158  0.00  0.00    +0.028 A 
ATOM     14  F   UNL     1      -4.638  11.543  -0.235  0.00  0.00    -0.205 F 
ENDBRANCH   6   8
BRANCH   2  15
ATOM     15  C   UNL     1      -6.088   1.805   0.275  0.00  0.00    +0.043 A 
ATOM     16  C   UNL     1      -5.065   1.069   0.871  0.00  0.00    +0.017 A 
ATOM     17  C   UNL     1      -5.121  -0.310   0.877  0.00  0.00    +0.046 A 
ATOM     18  C   UNL     1      -6.189  -0.968   0.281  0.00  0.00    +0.120 A 
ATOM     19  C   UNL     1      -7.209  -0.243  -0.319  0.00  0.00    +0.091 A 
ATOM     20  C   UNL     1      -7.164   1.140  -0.325  0.00  0.00    +0.129 A 
BRANCH  20  21
ATOM     21  O   UNL     1      -8.162   1.851  -0.913  0.00  0.00    -0.506 OA
ATOM     22  H   UNL     1      -9.007   1.327  -1.384  0.00  0.00    +0.292 HD
ENDBRANCH  20  21
BRANCH  18  23
ATOM     23  O   UNL     1      -6.235  -2.326   0.286  0.00  0.00    -0.507 OA
ATOM     24  H   UNL     1      -7.081  -2.849  -0.185  0.00  0.00    +0.292 HD
ENDBRANCH  18  23
ENDBRANCH   2  15
BRANCH   1  26
ATOM     25  C   UNL     1      -2.601   3.737  -0.516  0.00  0.00    +0.141 C 
ATOM     26  N   UNL     1      -3.639   3.200   0.051  0.00  0.00    -0.172 NA
BRANCH  25  29
ATOM     27  C   UNL     1       1.014   2.929  -1.126  0.00  0.00    +0.162 A 
ATOM     28  C   UNL     1      -0.193   3.601  -1.128  0.00  0.00    +0.059 A 
ATOM     29  C   UNL     1      -1.311   3.025  -0.518  0.00  0.00    -0.002 A 
ATOM     30  C   UNL     1      -1.203   1.769   0.085  0.00  0.00    +0.013 A 
ATOM     31  C   UNL     1       0.006   1.107   0.087  0.00  0.00    +0.050 A 
ATOM     32  C   UNL     1       1.116   1.680  -0.518  0.00  0.00    +0.158 A 
BRANCH  27  34
ATOM     33  C   UNL     1       1.928   4.770  -2.322  0.00  0.00    +0.277 C 
ATOM     34  O   UNL     1       2.104   3.487  -1.718  0.00  0.00    -0.491 OA
ENDBRANCH  27  34
BRANCH  32  35
ATOM     35  O   UNL     1       2.304   1.020  -0.518  0.00  0.00    -0.503 OA
ATOM     36  H   UNL     1       2.386   0.034  -0.038  0.00  0.00    +0.292 HD
ENDBRANCH  32  35
ENDBRANCH  25  29
ENDBRANCH   1  26
TORSDOF 8
