REMARK  Name = ZINC35738043
REMARK  7 active torsions:
REMARK  status: ('A' for Active; 'I' for Inactive)
REMARK    1  A    between atoms: C_1  and  C_2
REMARK    2  A    between atoms: C_2  and  C_3
REMARK    3  A    between atoms: C_2  and  C_4
REMARK    4  A    between atoms: C_4  and  C_6
REMARK    5  A    between atoms: C_4  and  N_15
REMARK    6  A    between atoms: N_8  and  C_9
REMARK    7  A    between atoms: N_12  and  C_14
REMARK                            x       y       z     vdW  Elec       q    Type
REMARK                         _______ _______ _______ _____ _____    ______ ____
ROOT
ATOM      1  C   UNL     1      -1.413  -2.041   0.005  0.00  0.00    +0.203 C 
ATOM      2  O   UNL     1      -1.577  -2.655   1.038  0.00  0.00    -0.277 OA
ATOM      3  N   UNL     1      -1.212  -2.705  -1.150  0.00  0.00    -0.284 N 
ATOM      4  H   UNL     1      -1.081  -2.214  -1.976  0.00  0.00    +0.155 HD
ENDROOT
BRANCH   3   5
ATOM      5  C   UNL     1      -1.193  -4.113  -1.158  0.00  0.00    +0.071 A 
ATOM      6  C   UNL     1      -1.374  -4.947  -0.046  0.00  0.00    +0.157 A 
ATOM      7  N   UNL     1      -1.290  -6.190  -0.446  0.00  0.00    -0.178 NA
ATOM      8  N   UNL     1      -1.053  -6.195  -1.826  0.00  0.00    -0.273 N 
ATOM      9  C   UNL     1      -1.002  -4.904  -2.245  0.00  0.00    +0.131 A 
ATOM     10  C   UNL     1      -0.893  -7.382  -2.670  0.00  0.00    +0.172 C 
ENDBRANCH   3   5
BRANCH   1  11
ATOM     11  C   UNL     1      -1.433  -0.534   0.013  0.00  0.00    +0.016 C 
BRANCH  11  12
ATOM     12  N   UNL     1      -2.121  -0.060   1.222  0.00  0.00    +0.386 N 
ATOM     13  H   UNL     1      -2.135   0.949   1.227  0.00  0.00    -0.089 HD
ATOM     14  H   UNL     1      -3.067  -0.409   1.229  0.00  0.00    -0.089 HD
ATOM     15  H   UNL     1      -1.633  -0.394   2.039  0.00  0.00    -0.089 HD
ENDBRANCH  11  12
BRANCH  11  17
ATOM     16  C   UNL     1      -0.019   1.526   0.010  0.00  0.00    +0.006 C 
ATOM     17  C   UNL     1       0.002  -0.004   0.002  0.00  0.00    -0.023 C 
ATOM     18  C   UNL     1       0.742  -0.511   1.242  0.00  0.00    +0.006 C 
ENDBRANCH  11  17
ENDBRANCH   1  11
TORSDOF 4
