REMARK  Name = ZINC08493459
REMARK  7 active torsions:
REMARK  status: ('A' for Active; 'I' for Inactive)
REMARK    1  A    between atoms: C_1  and  C_2
REMARK    2  A    between atoms: C_5  and  C_8
REMARK    3  A    between atoms: C_14  and  C_15
REMARK    4  A    between atoms: C_20  and  O_21
REMARK    5  A    between atoms: O_21  and  S_22
REMARK    6  A    between atoms: S_22  and  C_25
REMARK    7  A    between atoms: C_28  and  C_31
REMARK                            x       y       z     vdW  Elec       q    Type
REMARK                         _______ _______ _______ _____ _____    ______ ____
ROOT
ATOM      1  C   UNL     1      -1.940  -5.340  -0.413  0.00  0.00    +0.130 C 
ATOM      2  N   UNL     1      -1.203  -5.760   0.586  0.00  0.00    -0.164 NA
ATOM      3  N   UNL     1      -1.087  -7.105   0.867  0.00  0.00    -0.152 N 
ATOM      4  C   UNL     1      -0.399  -7.660   1.968  0.00  0.00    +0.153 C 
ATOM      5  N   UNL     1      -0.149  -6.998   3.066  0.00  0.00    -0.283 NA
ATOM      6  C   UNL     1       0.013  -9.076   1.754  0.00  0.00    +0.081 C 
ATOM      7  C   UNL     1       1.171  -9.585   2.298  0.00  0.00    +0.028 C 
ATOM      8  C   UNL     1      -0.892  -9.909   0.922  0.00  0.00    +0.273 C 
ATOM      9  O   UNL     1      -0.919 -11.122   1.046  0.00  0.00    -0.268 OA
ATOM     10  N   UNL     1      -1.683  -9.285   0.028  0.00  0.00    -0.152 NA
ATOM     11  C   UNL     1      -1.723  -7.976   0.010  0.00  0.00    +0.181 C 
ATOM     12  S   UNL     1      -2.568  -6.870  -1.090  0.00  0.00    -0.033 S 
ATOM     13  H   UNL     1      -0.440  -6.077   3.155  0.00  0.00    +0.188 HD
ENDROOT
BRANCH   1  18
ATOM     14  C   UNL     1      -2.929   0.056  -2.155  0.00  0.00    +0.044 C 
ATOM     15  C   UNL     1      -2.670  -1.357  -1.699  0.00  0.00    -0.050 A 
ATOM     16  C   UNL     1      -3.258  -2.415  -2.368  0.00  0.00    +0.004 A 
ATOM     17  C   UNL     1      -3.025  -3.711  -1.955  0.00  0.00    +0.011 A 
ATOM     18  C   UNL     1      -2.194  -3.953  -0.861  0.00  0.00    +0.009 A 
ATOM     19  C   UNL     1      -1.605  -2.881  -0.190  0.00  0.00    +0.011 A 
ATOM     20  C   UNL     1      -1.841  -1.590  -0.616  0.00  0.00    +0.004 A 
ENDBRANCH   1  18
BRANCH   7  21
ATOM     21  C   UNL     1       1.628 -10.925   1.925  0.00  0.00    +0.020 A 
ATOM     22  C   UNL     1       1.532 -11.359   0.595  0.00  0.00    +0.011 A 
ATOM     23  C   UNL     1       1.963 -12.621   0.253  0.00  0.00    +0.001 A 
ATOM     24  C   UNL     1       2.493 -13.466   1.217  0.00  0.00    +0.004 A 
ATOM     25  C   UNL     1       2.594 -13.053   2.531  0.00  0.00    +0.049 A 
ATOM     26  C   UNL     1       2.171 -11.785   2.897  0.00  0.00    +0.164 A 
BRANCH  26  27
ATOM     27  O   UNL     1       2.275 -11.376   4.186  0.00  0.00    -0.342 OA
BRANCH  27  28
ATOM     28  S   UNL     1       1.054 -11.695   5.037  0.00  0.00    +0.151 S 
ATOM     29  O   UNL     1       1.238 -11.027   6.277  0.00  0.00    -0.131 OA
ATOM     30  O   UNL     1      -0.083 -11.475   4.214  0.00  0.00    -0.131 OA
BRANCH  28  31
ATOM     31  C   UNL     1       1.098 -13.422   5.384  0.00  0.00    +0.128 A 
ATOM     32  C   UNL     1       0.485 -14.316   4.526  0.00  0.00    +0.031 A 
ATOM     33  C   UNL     1       0.519 -15.670   4.799  0.00  0.00    +0.005 A 
ATOM     34  C   UNL     1       1.167 -16.132   5.929  0.00  0.00    -0.050 A 
ATOM     35  C   UNL     1       1.780 -15.238   6.787  0.00  0.00    +0.005 A 
ATOM     36  C   UNL     1       1.750 -13.884   6.512  0.00  0.00    +0.031 A 
ATOM     37  C   UNL     1       1.203 -17.608   6.227  0.00  0.00    +0.044 C 
ENDBRANCH  28  31
ENDBRANCH  27  28
ENDBRANCH  26  27
ENDBRANCH   7  21
TORSDOF 5
