REMARK  Name = ZINC62613546
REMARK  4 active torsions:
REMARK  status: ('A' for Active; 'I' for Inactive)
REMARK    1  A    between atoms: C_2  and  C_12
REMARK    2  A    between atoms: C_12  and  C_14
REMARK    3  A    between atoms: C_12  and  O_16
REMARK    4  A    between atoms: C_14  and  N_15
REMARK                            x       y       z     vdW  Elec       q    Type
REMARK                         _______ _______ _______ _____ _____    ______ ____
ROOT
ATOM      1  C   UNL     1      -0.017   1.381   0.010  0.00  0.00    +0.013 A 
ATOM      2  C   UNL     1       1.166   2.095   0.002  0.00  0.00    -0.019 A 
ATOM      3  C   UNL     1       2.376   1.427  -0.014  0.00  0.00    +0.029 A 
ATOM      4  C   UNL     1       2.402   0.046  -0.024  0.00  0.00    +0.083 A 
ATOM      5  C   UNL     1       1.211  -0.676  -0.017  0.00  0.00    +0.142 A 
ATOM      6  C   UNL     1       0.002  -0.004   0.002  0.00  0.00    -0.004 A 
ATOM      7  C   UNL     1      -1.310  -0.748   0.021  0.00  0.00    +0.042 C 
ATOM      8  C   UNL     1      -1.089  -2.194  -0.427  0.00  0.00    +0.046 C 
ATOM      9  C   UNL     1       0.108  -2.761   0.347  0.00  0.00    +0.229 C 
ATOM     10  O   UNL     1       1.276  -2.033  -0.033  0.00  0.00    -0.490 OA
ATOM     11 CL   UNL     1       3.922  -0.792  -0.046  0.00  0.00    -0.080 Cl
ENDROOT
BRANCH   2  12
ATOM     12  C   UNL     1       1.137   3.601   0.011  0.00  0.00    +0.127 C 
BRANCH  12  13
ATOM     13  O   UNL     1       2.238   4.095   0.776  0.00  0.00    -0.389 OA
ATOM     14  H   UNL     1       3.103   3.828   0.436  0.00  0.00    +0.210 HD
ENDBRANCH  12  13
BRANCH  12  15
ATOM     15  C   UNL     1       1.239   4.122  -1.424  0.00  0.00    -0.050 C 
BRANCH  15  16
ATOM     16  N   UNL     1       1.210   5.590  -1.416  0.00  0.00    +0.380 N 
ATOM     17  H   UNL     1       0.345   5.908  -1.004  0.00  0.00    -0.090 HD
ATOM     18  H   UNL     1       1.988   5.939  -0.876  0.00  0.00    -0.090 HD
ATOM     19  H   UNL     1       1.277   5.934  -2.362  0.00  0.00    -0.090 HD
ENDBRANCH  15  16
ENDBRANCH  12  15
ENDBRANCH   2  12
TORSDOF 4
