REMARK  Name = ZINC33250797
REMARK  8 active torsions:
REMARK  status: ('A' for Active; 'I' for Inactive)
REMARK    1  A    between atoms: C_1  and  C_2
REMARK    2  A    between atoms: C_5  and  C_36
REMARK    3  A    between atoms: C_6  and  C_8
REMARK    4  A    between atoms: C_9  and  C_10
REMARK    5  A    between atoms: C_11  and  S_16
REMARK    6  A    between atoms: C_12  and  C_15
REMARK    7  A    between atoms: S_16  and  N_19
REMARK    8  A    between atoms: C_23  and  C_26
REMARK                            x       y       z     vdW  Elec       q    Type
REMARK                         _______ _______ _______ _____ _____    ______ ____
ROOT
ATOM      1  S   UNL     1      -8.425   3.565  -1.387  0.00  0.00    +0.066 S 
ATOM      2  O   UNL     1      -9.199   4.757  -1.407  0.00  0.00    -0.153 OA
ATOM      3  O   UNL     1      -7.741   3.082  -2.534  0.00  0.00    -0.153 OA
ENDROOT
BRANCH   1   5
ATOM      4  C   UNL     1      -9.393   0.926  -1.105  0.00  0.00    +0.187 A 
ATOM      5  C   UNL     1      -9.504   2.274  -0.863  0.00  0.00    +0.174 A 
ATOM      6  C   UNL     1     -10.684   2.384  -0.103  0.00  0.00    +0.107 A 
ATOM      7  N   UNL     1     -11.149   1.175   0.043  0.00  0.00    -0.081 NA
ATOM      8  O   UNL     1     -10.450   0.351  -0.501  0.00  0.00    -0.353 OA
ATOM      9  C   UNL     1     -11.292   3.652   0.438  0.00  0.00    +0.071 C 
BRANCH   4  11
ATOM     10  C   UNL     1      -8.366  -1.087  -2.015  0.00  0.00    +0.012 C 
ATOM     11  C   UNL     1      -8.336   0.251  -1.864  0.00  0.00    +0.051 C 
BRANCH  10  17
ATOM     12  C   UNL     1      -4.153  -0.868  -4.674  0.00  0.00    +0.044 C 
ATOM     13  C   UNL     1      -5.274  -1.666  -4.060  0.00  0.00    -0.050 A 
ATOM     14  C   UNL     1      -5.308  -3.041  -4.213  0.00  0.00    +0.003 A 
ATOM     15  C   UNL     1      -6.334  -3.781  -3.653  0.00  0.00    +0.004 A 
ATOM     16  C   UNL     1      -7.332  -3.153  -2.938  0.00  0.00    -0.043 A 
ATOM     17  C   UNL     1      -7.304  -1.765  -2.778  0.00  0.00    -0.022 A 
ATOM     18  C   UNL     1      -6.268  -1.023  -3.352  0.00  0.00    +0.011 A 
ATOM     19  C   UNL     1      -8.449  -3.962  -2.329  0.00  0.00    +0.044 C 
ENDBRANCH  10  17
ENDBRANCH   4  11
ENDBRANCH   1   5
BRANCH   1  20
ATOM     20  N   UNL     1      -7.284   3.761  -0.203  0.00  0.00    -0.176 NA
ATOM     21  C   UNL     1      -7.508   4.699   0.905  0.00  0.00    +0.109 C 
ATOM     22  C   UNL     1      -6.318   5.660   0.986  0.00  0.00    +0.018 C 
ATOM     23  C   UNL     1      -5.022   4.853   1.099  0.00  0.00    +0.015 C 
ATOM     24  C   UNL     1      -4.854   3.978  -0.146  0.00  0.00    +0.091 C 
ATOM     25  C   UNL     1      -6.029   2.999  -0.240  0.00  0.00    +0.122 C 
BRANCH  24  26
ATOM     26  C   UNL     1      -3.563   3.208  -0.049  0.00  0.00    +0.223 C 
ATOM     27  O   UNL     1      -3.579   1.995  -0.056  0.00  0.00    -0.275 OA
ATOM     28  N   UNL     1      -2.391   3.866   0.045  0.00  0.00    -0.270 N 
ATOM     29  C   UNL     1      -1.190   3.157   0.028  0.00  0.00    +0.125 A 
ATOM     30  C   UNL     1       0.017   3.848   0.018  0.00  0.00    +0.045 A 
ATOM     31  C   UNL     1       1.201   3.133  -0.005  0.00  0.00    +0.025 A 
ATOM     32  C   UNL     1       1.138   1.745  -0.006  0.00  0.00    +0.059 A 
ATOM     33  C   UNL     1      -0.097   1.125   0.011  0.00  0.00    +0.132 A 
ATOM     34  N   UNL     1      -1.210   1.834   0.027  0.00  0.00    -0.239 NA
ATOM     35 CL   UNL     1       2.594   0.800  -0.028  0.00  0.00    -0.082 Cl
ATOM     36  H   UNL     1      -2.381   4.962   0.135  0.00  0.00    +0.156 HD
ENDBRANCH  24  26
ENDBRANCH   1  20
TORSDOF 5
