REMARK  Name = ZINC02403517
REMARK  8 active torsions:
REMARK  status: ('A' for Active; 'I' for Inactive)
REMARK    1  A    between atoms: C_1  and  C_2
REMARK    2  A    between atoms: C_2  and  C_3
REMARK    3  A    between atoms: C_3  and  N_4
REMARK    4  A    between atoms: C_5  and  C_7
REMARK    5  A    between atoms: N_18  and  C_21
REMARK    6  A    between atoms: C_19  and  N_20
REMARK    7  A    between atoms: C_24  and  S_27
REMARK    8  A    between atoms: S_27  and  N_30
REMARK                            x       y       z     vdW  Elec       q    Type
REMARK                         _______ _______ _______ _____ _____    ______ ____
ROOT
ATOM      1  C   UNL     1       1.341  -4.084  -2.293  0.00  0.00    +0.104 A 
ATOM      2  C   UNL     1       0.329  -4.975  -2.883  0.00  0.00    +0.123 A 
ATOM      3  C   UNL     1       0.811  -6.335  -2.627  0.00  0.00    +0.166 A 
ATOM      4  N   UNL     1       0.103  -7.362  -3.045  0.00  0.00    -0.225 NA
ATOM      5  C   UNL     1      -1.048  -7.157  -3.698  0.00  0.00    +0.092 A 
ATOM      6  C   UNL     1      -1.812  -8.250  -4.148  0.00  0.00    +0.030 A 
ATOM      7  C   UNL     1      -2.980  -8.033  -4.811  0.00  0.00    +0.002 A 
ATOM      8  C   UNL     1      -3.436  -6.738  -5.054  0.00  0.00    +0.002 A 
ATOM      9  C   UNL     1      -2.726  -5.657  -4.634  0.00  0.00    +0.030 A 
ATOM     10  C   UNL     1      -1.513  -5.841  -3.945  0.00  0.00    +0.090 A 
ATOM     11  N   UNL     1      -0.805  -4.785  -3.528  0.00  0.00    -0.241 NA
ATOM     12  N   UNL     1       2.006  -6.217  -1.943  0.00  0.00    -0.280 N 
ATOM     13  C   UNL     1       2.323  -4.905  -1.750  0.00  0.00    +0.117 A 
ENDROOT
BRANCH  12  14
ATOM     14  C   UNL     1       2.787  -7.297  -1.512  0.00  0.00    +0.050 A 
ATOM     15  C   UNL     1       2.295  -8.173  -0.554  0.00  0.00    +0.028 A 
ATOM     16  C   UNL     1       3.067  -9.237  -0.131  0.00  0.00    +0.030 A 
ATOM     17  C   UNL     1       4.330  -9.431  -0.661  0.00  0.00    +0.105 A 
ATOM     18  C   UNL     1       4.823  -8.559  -1.615  0.00  0.00    +0.030 A 
ATOM     19  C   UNL     1       4.053  -7.497  -2.046  0.00  0.00    +0.028 A 
BRANCH  17  20
ATOM     20  S   UNL     1       5.312 -10.789  -0.119  0.00  0.00    +0.056 S 
ATOM     21  O   UNL     1       6.666 -10.435  -0.367  0.00  0.00    -0.153 OA
ATOM     22  O   UNL     1       4.842 -11.140   1.175  0.00  0.00    -0.153 OA
BRANCH  20  23
ATOM     23  N   UNL     1       4.968 -12.069  -1.111  0.00  0.00    -0.204 NA
ATOM     24  H   UNL     1       4.322 -11.967  -1.828  0.00  0.00    +0.144 HD
ATOM     25  H   UNL     1       5.411 -12.921  -0.975  0.00  0.00    +0.144 HD
ENDBRANCH  20  23
ENDBRANCH  17  20
ENDBRANCH  12  14
BRANCH   1  27
ATOM     26  N   UNL     1       0.738  -1.962  -1.265  0.00  0.00    -0.311 N 
ATOM     27  C   UNL     1       1.321  -2.623  -2.285  0.00  0.00    +0.250 C 
ATOM     28  O   UNL     1       1.831  -2.002  -3.200  0.00  0.00    -0.270 OA
ATOM     29  H   UNL     1       0.332  -2.457  -0.536  0.00  0.00    +0.149 HD
BRANCH  26  30
ATOM     30  C   UNL     1       0.718  -0.497  -1.257  0.00  0.00    +0.104 C 
BRANCH  30  32
ATOM     31  C   UNL     1      -0.019   1.526   0.010  0.00  0.00    +0.005 C 
ATOM     32  C   UNL     1       0.002  -0.004   0.002  0.00  0.00    +0.015 C 
ENDBRANCH  30  32
ENDBRANCH  26  30
ENDBRANCH   1  27
BRANCH  13  33
ATOM     33  N   UNL     1       3.449  -4.459  -1.108  0.00  0.00    -0.343 N 
ATOM     34  H   UNL     1       3.604  -3.507  -1.007  0.00  0.00    +0.144 HD
ATOM     35  H   UNL     1       4.090  -5.096  -0.755  0.00  0.00    +0.144 HD
ENDBRANCH  13  33
TORSDOF 7
