REMARK  Name = ZINC42531546
REMARK  7 active torsions:
REMARK  status: ('A' for Active; 'I' for Inactive)
REMARK    1  A    between atoms: C_6  and  C_7
REMARK    2  A    between atoms: C_7  and  N_8
REMARK    3  A    between atoms: N_8  and  C_9
REMARK    4  A    between atoms: N_8  and  C_15
REMARK    5  A    between atoms: C_9  and  C_10
REMARK    6  A    between atoms: C_10  and  C_11
REMARK    7  A    between atoms: N_12  and  O_13
REMARK                            x       y       z     vdW  Elec       q    Type
REMARK                         _______ _______ _______ _____ _____    ______ ____
ROOT
ATOM      1  N   UNL     1      -1.842  -0.987  -1.543  0.00  0.00    +0.385 N 
ATOM      2  H   UNL     1      -1.932  -0.049  -1.905  0.00  0.00    -0.081 HD
ENDROOT
BRANCH   1   3
ATOM      3  C   UNL     1      -1.003  -1.783  -2.448  0.00  0.00    -0.068 C 
ATOM      4  C   UNL     1      -0.191  -1.031  -3.504  0.00  0.00    -0.017 C 
ATOM      5  C   UNL     1      -1.415  -1.849  -3.919  0.00  0.00    -0.017 C 
ENDBRANCH   1   3
BRANCH   1   6
ATOM      6  C   UNL     1      -1.221  -0.941  -0.212  0.00  0.00    -0.043 C 
BRANCH   6  12
ATOM      7  C   UNL     1       0.123   1.168  -0.104  0.00  0.00    +0.004 A 
ATOM      8  C   UNL     1       1.324   1.848  -0.180  0.00  0.00    +0.039 A 
ATOM      9  C   UNL     1       2.494   1.158  -0.447  0.00  0.00    +0.137 A 
ATOM     10  C   UNL     1       2.459  -0.214  -0.638  0.00  0.00    +0.053 A 
ATOM     11  C   UNL     1       1.257  -0.892  -0.562  0.00  0.00    +0.020 A 
ATOM     12  C   UNL     1       0.089  -0.201  -0.295  0.00  0.00    -0.063 A 
ATOM     13 BR   UNL     1       4.056  -1.159  -1.004  0.00  0.00    -0.047 Br
ATOM     14  F   UNL     1       3.668   1.822  -0.521  0.00  0.00    -0.204 F 
ENDBRANCH   6  12
ENDBRANCH   1   6
BRANCH   1  15
ATOM     15  C   UNL     1      -3.172  -1.601  -1.441  0.00  0.00    -0.070 C 
BRANCH  15  16
ATOM     16  C   UNL     1      -4.089  -0.699  -0.613  0.00  0.00    +0.056 C 
BRANCH  16  17
ATOM     17  C   UNL     1      -5.431  -1.364  -0.445  0.00  0.00    +0.130 C 
ATOM     18  N   UNL     1      -6.447  -0.951  -1.127  0.00  0.00    -0.077 NA
ATOM     19  N   UNL     1      -5.574  -2.413   0.436  0.00  0.00    -0.344 N 
ATOM     20  H   UNL     1      -4.811  -2.724   0.949  0.00  0.00    +0.143 HD
ATOM     21  H   UNL     1      -6.438  -2.841   0.544  0.00  0.00    +0.143 HD
BRANCH  18  22
ATOM     22  O   UNL     1      -6.277   0.051  -2.114  0.00  0.00    -0.408 OA
ATOM     23  H   UNL     1      -7.093   0.295  -2.571  0.00  0.00    +0.328 HD
ENDBRANCH  18  22
ENDBRANCH  16  17
ENDBRANCH  15  16
ENDBRANCH   1  15
TORSDOF 7
