REMARK  Name = ZINC02136472
REMARK  8 active torsions:
REMARK  status: ('A' for Active; 'I' for Inactive)
REMARK    1  A    between atoms: C_1  and  C_2
REMARK    2  A    between atoms: C_16  and  C_18
REMARK    3  A    between atoms: C_18  and  C_19
REMARK    4  A    between atoms: C_19  and  C_20
REMARK    5  A    between atoms: N_25  and  C_28
REMARK    6  A    between atoms: C_31  and  O_34
REMARK    7  A    between atoms: O_34  and  C_35
REMARK    8  A    between atoms: C_35  and  C_37
REMARK                            x       y       z     vdW  Elec       q    Type
REMARK                         _______ _______ _______ _____ _____    ______ ____
ROOT
ATOM      1  C   UNL     1       1.117   7.261   5.658  0.00  0.00    +0.047 C 
ATOM      2  C   UNL     1       0.379   6.137   4.978  0.00  0.00    -0.011 A 
ATOM      3  C   UNL     1      -0.907   5.821   5.369  0.00  0.00    +0.046 A 
ATOM      4  C   UNL     1      -1.591   4.790   4.750  0.00  0.00    +0.020 A 
ATOM      5  C   UNL     1      -0.984   4.073   3.733  0.00  0.00    +0.006 A 
ATOM      6  C   UNL     1       0.297   4.386   3.339  0.00  0.00    -0.027 A 
ATOM      7  C   UNL     1       0.996   5.420   3.955  0.00  0.00    +0.040 A 
ATOM      8  N   UNL     1       2.267   5.548   3.390  0.00  0.00    -0.286 N 
ATOM      9  C   UNL     1       2.479   4.650   2.409  0.00  0.00    +0.211 C 
ATOM     10  O   UNL     1       3.486   4.528   1.744  0.00  0.00    -0.277 OA
ATOM     11  C   UNL     1       1.225   3.826   2.299  0.00  0.00    +0.050 C 
ATOM     12  C   UNL     1       0.615   3.926   0.878  0.00  0.00    +0.088 C 
ATOM     13  C   UNL     1       1.113   2.636   0.169  0.00  0.00    +0.073 C 
ATOM     14  C   UNL     1       1.984   1.903   1.211  0.00  0.00    -0.057 C 
ATOM     15  C   UNL     1      -0.158   1.851  -0.062  0.00  0.00    +0.228 C 
ATOM     16  O   UNL     1      -0.222   0.761  -0.590  0.00  0.00    -0.275 OA
ATOM     17  N   UNL     1      -1.201   2.548   0.403  0.00  0.00    -0.210 N 
ATOM     18  C   UNL     1      -0.883   3.725   0.953  0.00  0.00    +0.229 C 
ATOM     19  O   UNL     1      -1.672   4.511   1.432  0.00  0.00    -0.275 OA
ATOM     20 CL   UNL     1      -1.667   6.720   6.644  0.00  0.00    -0.083 Cl
ATOM     21  H   UNL     1       2.920   6.208   3.671  0.00  0.00    +0.155 HD
ATOM     22  N   UNL     1       1.503   2.415   2.497  0.00  0.00    +0.394 N 
ATOM     23  H   UNL     1       0.648   1.921   2.778  0.00  0.00    -0.083 HD
ATOM     24  H   UNL     1       2.223   2.293   3.219  0.00  0.00    -0.083 HD
ENDROOT
BRANCH  17  25
ATOM     25  C   UNL     1      -2.522   2.080   0.323  0.00  0.00    +0.044 A 
ATOM     26  C   UNL     1      -2.911   0.971   1.062  0.00  0.00    +0.027 A 
ATOM     27  C   UNL     1      -4.212   0.514   0.987  0.00  0.00    +0.048 A 
ATOM     28  C   UNL     1      -5.127   1.157   0.166  0.00  0.00    +0.132 A 
ATOM     29  C   UNL     1      -4.737   2.262  -0.577  0.00  0.00    +0.048 A 
ATOM     30  C   UNL     1      -3.438   2.723  -0.499  0.00  0.00    +0.027 A 
BRANCH  28  31
ATOM     31  O   UNL     1      -6.407   0.704   0.089  0.00  0.00    -0.426 OA
BRANCH  31  32
ATOM     32  C   UNL     1      -6.739  -0.001  -1.004  0.00  0.00    +0.309 C 
ATOM     33  O   UNL     1      -5.943  -0.132  -1.903  0.00  0.00    -0.251 OA
ATOM     34  C   UNL     1      -8.104  -0.630  -1.109  0.00  0.00    +0.136 C 
ENDBRANCH  31  32
ENDBRANCH  28  31
ENDBRANCH  17  25
BRANCH  14  35
ATOM     35  C   UNL     1       3.459   2.259   1.018  0.00  0.00    -0.006 C 
BRANCH  35  36
ATOM     36  C   UNL     1       4.114   1.232   0.091  0.00  0.00    +0.094 C 
BRANCH  36  37
ATOM     37  C   UNL     1       5.567   1.583  -0.100  0.00  0.00    +0.210 C 
ATOM     38  O   UNL     1       6.033   2.558   0.451  0.00  0.00    -0.276 OA
ATOM     39  N   UNL     1       6.349   0.813  -0.882  0.00  0.00    -0.329 N 
ATOM     40  H   UNL     1       5.976   0.033  -1.322  0.00  0.00    +0.145 HD
ATOM     41  H   UNL     1       7.284   1.039  -1.005  0.00  0.00    +0.145 HD
ENDBRANCH  36  37
ENDBRANCH  35  36
ENDBRANCH  14  35
TORSDOF 6
