REMARK  Name = ZINC35526137
REMARK  9 active torsions:
REMARK  status: ('A' for Active; 'I' for Inactive)
REMARK    1  A    between atoms: C_1  and  C_2
REMARK    2  A    between atoms: C_11  and  N_18
REMARK    3  A    between atoms: C_13  and  C_15
REMARK    4  A    between atoms: C_15  and  C_16
REMARK    5  A    between atoms: C_15  and  C_17
REMARK    6  A    between atoms: N_21  and  S_24
REMARK    7  A    between atoms: S_24  and  C_27
REMARK    8  A    between atoms: C_30  and  N_33
REMARK    9  A    between atoms: C_34  and  C_36
REMARK                            x       y       z     vdW  Elec       q    Type
REMARK                         _______ _______ _______ _____ _____    ______ ____
ROOT
ATOM      1  N   UNL     1      -2.427  -4.729  -0.405  0.00  0.00    -0.312 N 
ATOM      2  C   UNL     1      -2.636  -3.327  -0.793  0.00  0.00    +0.123 C 
ATOM      3  C   UNL     1      -2.519  -3.219  -2.319  0.00  0.00    +0.128 C 
ATOM      4  N   UNL     1      -3.362  -4.257  -2.929  0.00  0.00    -0.174 NA
ATOM      5  C   UNL     1      -3.153  -5.659  -2.540  0.00  0.00    +0.128 C 
ATOM      6  C   UNL     1      -3.265  -5.768  -1.019  0.00  0.00    +0.123 C 
ENDROOT
BRANCH   1  16
ATOM      7  C   UNL     1      -6.416  -3.505   4.879  0.00  0.00    +0.008 C 
ATOM      8  C   UNL     1      -5.126  -3.588   4.061  0.00  0.00    -0.009 C 
ATOM      9  C   UNL     1      -5.391  -4.348   2.759  0.00  0.00    +0.008 C 
ATOM     10  C   UNL     1      -4.184  -4.222   1.830  0.00  0.00    +0.037 C 
ATOM     11  C   UNL     1      -2.929  -4.645   2.589  0.00  0.00    -0.025 A 
ATOM     12  C   UNL     1      -2.924  -4.682   3.941  0.00  0.00    -0.004 A 
ATOM     13  S   UNL     1      -1.292  -5.218   4.388  0.00  0.00    -0.073 S 
ATOM     14  C   UNL     1      -0.618  -5.392   2.768  0.00  0.00    +0.114 A 
ATOM     15  C   UNL     1      -1.695  -5.024   1.922  0.00  0.00    +0.051 A 
ATOM     16  C   UNL     1      -1.453  -5.066   0.519  0.00  0.00    +0.133 A 
ATOM     17  N   UNL     1      -0.232  -5.449   0.151  0.00  0.00    -0.216 NA
ATOM     18  C   UNL     1       0.723  -5.778   0.998  0.00  0.00    +0.135 A 
ATOM     19  N   UNL     1       0.565  -5.761   2.317  0.00  0.00    -0.224 NA
ATOM     20  C   UNL     1      -4.054  -4.340   4.864  0.00  0.00    +0.046 C 
BRANCH  18  21
ATOM     21  C   UNL     1       2.061  -6.194   0.443  0.00  0.00    +0.051 C 
ATOM     22  C   UNL     1       3.144  -5.243   0.956  0.00  0.00    +0.015 C 
ATOM     23  C   UNL     1       2.379  -7.620   0.895  0.00  0.00    +0.015 C 
ENDBRANCH  18  21
ENDBRANCH   1  16
BRANCH   4  24
ATOM     24  S   UNL     1      -4.528  -3.854  -4.034  0.00  0.00    +0.061 S 
ATOM     25  O   UNL     1      -5.491  -4.898  -4.008  0.00  0.00    -0.153 OA
ATOM     26  O   UNL     1      -4.868  -2.496  -3.789  0.00  0.00    -0.153 OA
BRANCH  24  27
ATOM     27  C   UNL     1      -3.775  -3.904  -5.627  0.00  0.00    +0.106 A 
ATOM     28  C   UNL     1      -3.175  -2.770  -6.143  0.00  0.00    +0.030 A 
ATOM     29  C   UNL     1      -2.584  -2.806  -7.390  0.00  0.00    +0.025 A 
ATOM     30  C   UNL     1      -2.592  -3.983  -8.127  0.00  0.00    +0.033 A 
ATOM     31  C   UNL     1      -3.195  -5.121  -7.606  0.00  0.00    +0.025 A 
ATOM     32  C   UNL     1      -3.780  -5.080  -6.355  0.00  0.00    +0.030 A 
BRANCH  30  33
ATOM     33  N   UNL     1      -1.995  -4.023  -9.392  0.00  0.00    -0.286 N 
ATOM     34  C   UNL     1      -0.886  -3.297  -9.636  0.00  0.00    +0.214 C 
ATOM     35  O   UNL     1      -0.350  -2.686  -8.736  0.00  0.00    -0.276 OA
ATOM     36  C   UNL     1      -0.312  -3.244 -11.029  0.00  0.00    +0.109 C 
ATOM     37  H   UNL     1      -2.379  -4.573 -10.092  0.00  0.00    +0.155 HD
ENDBRANCH  30  33
ENDBRANCH  24  27
ENDBRANCH   4  24
TORSDOF 5
