REMARK  Name = ZINC44783096
REMARK  4 active torsions:
REMARK  status: ('A' for Active; 'I' for Inactive)
REMARK    1  A    between atoms: C_6  and  N_7
REMARK    2  A    between atoms: C_8  and  C_10
REMARK    3  A    between atoms: C_10  and  C_15
REMARK    4  A    between atoms: N_16  and  O_17
REMARK                            x       y       z     vdW  Elec       q    Type
REMARK                         _______ _______ _______ _____ _____    ______ ____
ROOT
ATOM      1  C   UNL     1      -2.599  -2.723  -0.318  0.00  0.00    +0.105 C 
ATOM      2  C   UNL     1      -3.445  -2.369  -1.558  0.00  0.00    +0.024 C 
ATOM      3  C   UNL     1      -3.065  -3.451  -2.599  0.00  0.00    +0.001 C 
ATOM      4  C   UNL     1      -2.918  -4.725  -1.730  0.00  0.00    +0.001 C 
ATOM      5  C   UNL     1      -2.263  -4.221  -0.427  0.00  0.00    +0.024 C 
ENDROOT
BRANCH   1   6
ATOM      6  C   UNL     1      -3.388  -2.461   0.939  0.00  0.00    +0.147 C 
ATOM      7  N   UNL     1      -4.573  -2.958   1.073  0.00  0.00    -0.076 NA
ATOM      8  N   UNL     1      -2.845  -1.692   1.945  0.00  0.00    -0.343 N 
ATOM      9  H   UNL     1      -1.967  -1.296   1.833  0.00  0.00    +0.144 HD
ATOM     10  H   UNL     1      -3.341  -1.548   2.766  0.00  0.00    +0.144 HD
BRANCH   7  11
ATOM     11  O   UNL     1      -5.051  -3.911   0.141  0.00  0.00    -0.408 OA
ATOM     12  H   UNL     1      -5.947  -4.224   0.324  0.00  0.00    +0.328 HD
ENDBRANCH   7  11
ENDBRANCH   1   6
BRANCH   1  14
ATOM     13  N   UNL     1      -1.392  -0.564  -0.368  0.00  0.00    -0.285 N 
ATOM     14  C   UNL     1      -1.330  -1.909  -0.309  0.00  0.00    +0.231 C 
ATOM     15  O   UNL     1      -0.254  -2.465  -0.250  0.00  0.00    -0.274 OA
ATOM     16  H   UNL     1      -2.248  -0.115  -0.298  0.00  0.00    +0.155 HD
BRANCH  13  22
ATOM     17  C   UNL     1      -0.252   1.387  -1.220  0.00  0.00    +0.024 A 
ATOM     18  C   UNL     1       0.906   2.123  -1.377  0.00  0.00    +0.016 A 
ATOM     19  C   UNL     1       2.097   1.662  -0.845  0.00  0.00    +0.013 A 
ATOM     20  C   UNL     1       2.132   0.464  -0.156  0.00  0.00    +0.016 A 
ATOM     21  C   UNL     1       0.977  -0.277   0.004  0.00  0.00    +0.024 A 
ATOM     22  C   UNL     1      -0.220   0.183  -0.528  0.00  0.00    +0.033 A 
ATOM     23  I   UNL     1       3.852   2.782  -1.086  0.00  0.00    -0.044 I 
ENDBRANCH  13  22
ENDBRANCH   1  14
TORSDOF 4
