REMARK  Name = ZINC37441778
REMARK  8 active torsions:
REMARK  status: ('A' for Active; 'I' for Inactive)
REMARK    1  A    between atoms: C_1  and  C_2
REMARK    2  A    between atoms: C_2  and  C_4
REMARK    3  A    between atoms: C_2  and  O_20
REMARK    4  A    between atoms: C_4  and  C_6
REMARK    5  A    between atoms: C_4  and  N_19
REMARK    6  A    between atoms: N_14  and  C_15
REMARK    7  A    between atoms: C_15  and  C_16
REMARK    8  A    between atoms: C_15  and  C_17
REMARK                            x       y       z     vdW  Elec       q    Type
REMARK                         _______ _______ _______ _____ _____    ______ ____
ROOT
ATOM      1  C   UNL     1       0.739  -2.004  -1.265  0.00  0.00    +0.099 A 
ATOM      2  N   UNL     1       1.506  -2.743  -0.518  0.00  0.00    -0.234 NA
ATOM      3  C   UNL     1       1.269  -4.055  -0.778  0.00  0.00    +0.090 A 
ATOM      4  C   UNL     1       1.799  -5.247  -0.276  0.00  0.00    +0.045 A 
ATOM      5  C   UNL     1       1.339  -6.454  -0.754  0.00  0.00    +0.020 A 
ATOM      6  C   UNL     1       0.354  -6.496  -1.732  0.00  0.00    +0.017 A 
ATOM      7  C   UNL     1      -0.178  -5.329  -2.237  0.00  0.00    +0.029 A 
ATOM      8  C   UNL     1       0.273  -4.104  -1.767  0.00  0.00    +0.069 A 
ATOM      9  N   UNL     1      -0.047  -2.790  -2.050  0.00  0.00    -0.326 N 
ATOM     10 BR   UNL     1       2.056  -8.066  -0.074  0.00  0.00    -0.050 Br
ENDROOT
BRANCH   9  11
ATOM     11  C   UNL     1      -1.043  -2.328  -3.019  0.00  0.00    +0.083 C 
ATOM     12  C   UNL     1      -0.671  -2.835  -4.414  0.00  0.00    +0.030 C 
ATOM     13  C   UNL     1      -2.421  -2.869  -2.631  0.00  0.00    +0.030 C 
ENDBRANCH   9  11
BRANCH   1  14
ATOM     14  C   UNL     1       0.718  -0.497  -1.257  0.00  0.00    +0.021 C 
BRANCH  14  15
ATOM     15  N   UNL     1       2.096   0.011  -1.267  0.00  0.00    +0.386 N 
ATOM     16  H   UNL     1       2.584  -0.323  -0.450  0.00  0.00    -0.089 HD
ATOM     17  H   UNL     1       2.569  -0.314  -2.097  0.00  0.00    -0.089 HD
ATOM     18  H   UNL     1       2.083   1.020  -1.262  0.00  0.00    -0.089 HD
ENDBRANCH  14  15
BRANCH  14  20
ATOM     19  C   UNL     1      -0.019   1.526   0.010  0.00  0.00    +0.036 C 
ATOM     20  C   UNL     1       0.002  -0.004   0.002  0.00  0.00    +0.104 C 
BRANCH  20  21
ATOM     21  O   UNL     1      -1.339  -0.499   0.012  0.00  0.00    -0.393 OA
ATOM     22  H   UNL     1      -1.853  -0.225   0.784  0.00  0.00    +0.210 HD
ENDBRANCH  20  21
ENDBRANCH  14  20
ENDBRANCH   1  14
TORSDOF 5
