REMARK  Name = ZINC40681005
REMARK  4 active torsions:
REMARK  status: ('A' for Active; 'I' for Inactive)
REMARK    1  A    between atoms: C_1  and  C_2
REMARK    2  A    between atoms: C_9  and  N_22
REMARK    3  A    between atoms: C_10  and  N_14
REMARK    4  A    between atoms: N_14  and  C_15
REMARK                            x       y       z     vdW  Elec       q    Type
REMARK                         _______ _______ _______ _____ _____    ______ ____
ROOT
ATOM      1  C   UNL     1      -0.018   1.503  -0.027  0.00  0.00    +0.089 C 
ATOM      2  C   UNL     1      -0.014   0.008  -0.222  0.00  0.00    +0.136 A 
ATOM      3  C   UNL     1      -1.088  -0.798  -0.162  0.00  0.00    +0.091 A 
ATOM      4  C   UNL     1      -0.656  -2.123  -0.401  0.00  0.00    +0.167 A 
ATOM      5  N   UNL     1       0.638  -2.094  -0.595  0.00  0.00    -0.063 NA
ATOM      6  O   UNL     1       1.063  -0.747  -0.491  0.00  0.00    -0.358 OA
ATOM      7  N   UNL     1      -1.463  -3.256  -0.424  0.00  0.00    -0.280 N 
ATOM      8  C   UNL     1      -2.831  -3.141  -0.199  0.00  0.00    +0.150 A 
ATOM      9  C   UNL     1      -3.650  -4.272  -0.214  0.00  0.00    +0.106 A 
ATOM     10  C   UNL     1      -5.016  -4.099   0.018  0.00  0.00    +0.149 A 
ATOM     11  N   UNL     1      -5.482  -2.873   0.243  0.00  0.00    -0.219 NA
ATOM     12  C   UNL     1      -4.674  -1.832   0.248  0.00  0.00    +0.225 A 
ATOM     13  N   UNL     1      -3.379  -1.952   0.040  0.00  0.00    -0.219 NA
ATOM     14  H   UNL     1      -1.072  -4.127  -0.597  0.00  0.00    +0.155 HD
ENDROOT
BRANCH   9  15
ATOM     15  N   UNL     1      -3.115  -5.546  -0.456  0.00  0.00    -0.353 N 
ATOM     16  H   UNL     1      -2.164  -5.651  -0.616  0.00  0.00    +0.143 HD
ATOM     17  H   UNL     1      -3.696  -6.323  -0.463  0.00  0.00    +0.143 HD
ENDBRANCH   9  15
BRANCH  10  18
ATOM     18  N   UNL     1      -5.877  -5.191   0.014  0.00  0.00    -0.298 N 
ATOM     19  H   UNL     1      -5.519  -6.090  -0.068  0.00  0.00    +0.154 HD
BRANCH  18  20
ATOM     20  C   UNL     1      -7.256  -4.995   0.127  0.00  0.00    +0.032 A 
ATOM     21  C   UNL     1      -8.033  -5.906   0.832  0.00  0.00    +0.024 A 
ATOM     22  C   UNL     1      -9.395  -5.709   0.942  0.00  0.00    +0.017 A 
ATOM     23  C   UNL     1      -9.987  -4.606   0.351  0.00  0.00    +0.018 A 
ATOM     24  C   UNL     1      -9.215  -3.697  -0.351  0.00  0.00    +0.017 A 
ATOM     25  C   UNL     1      -7.851  -3.886  -0.461  0.00  0.00    +0.024 A 
ATOM     26 BR   UNL     1     -11.853  -4.341   0.504  0.00  0.00    -0.050 Br
ENDBRANCH  18  20
ENDBRANCH  10  18
TORSDOF 3
