REMARK  Name = ZINC18090357
REMARK  8 active torsions:
REMARK  status: ('A' for Active; 'I' for Inactive)
REMARK    1  A    between atoms: C_1  and  C_2
REMARK    2  A    between atoms: C_2  and  C_3
REMARK    3  A    between atoms: C_2  and  C_4
REMARK    4  A    between atoms: C_2  and  C_5
REMARK    5  A    between atoms: C_12  and  N_31
REMARK    6  A    between atoms: C_13  and  C_29
REMARK    7  A    between atoms: C_14  and  C_16
REMARK    8  A    between atoms: C_21  and  C_22
REMARK                            x       y       z     vdW  Elec       q    Type
REMARK                         _______ _______ _______ _____ _____    ______ ____
ROOT
ATOM      1  C   UNL     1       0.852  -0.591  -1.681  0.00  0.00    +0.076 A 
ATOM      2  C   UNL     1       1.044  -1.961  -1.794  0.00  0.00    +0.050 A 
ATOM      3  C   UNL     1       1.831  -2.190  -2.888  0.00  0.00    +0.222 A 
ATOM      4  N   UNL     1       2.116  -0.999  -3.439  0.00  0.00    -0.246 N 
ATOM      5  H   UNL     1       2.657  -0.851  -4.230  0.00  0.00    +0.192 HD
ATOM      6  N   UNL     1       1.488  -0.008  -2.669  0.00  0.00    -0.175 NA
ATOM      7  O   UNL     1       2.207  -3.435  -3.272  0.00  0.00    -0.423 OA
ATOM      8  C   UNL     1       2.018  -4.443  -2.396  0.00  0.00    +0.200 C 
ATOM      9  C   UNL     1       1.254  -4.341  -1.286  0.00  0.00    +0.098 C 
ATOM     10  C   UNL     1       0.523  -3.073  -0.920  0.00  0.00    +0.105 C 
ENDROOT
BRANCH  10  11
ATOM     11  C   UNL     1      -0.955  -3.251  -1.152  0.00  0.00    +0.010 A 
ATOM     12  C   UNL     1      -1.554  -3.456  -2.346  0.00  0.00    +0.110 A 
ATOM     13  N   UNL     1      -2.883  -3.565  -2.132  0.00  0.00    -0.284 N 
ATOM     14  H   UNL     1      -3.558  -3.716  -2.812  0.00  0.00    +0.188 HD
ATOM     15  N   UNL     1      -3.117  -3.424  -0.758  0.00  0.00    -0.174 NA
ATOM     16  C   UNL     1      -1.958  -3.241  -0.163  0.00  0.00    +0.097 A 
BRANCH  16  17
ATOM     17  C   UNL     1      -1.744  -3.052   1.294  0.00  0.00    +0.003 A 
ATOM     18  C   UNL     1      -0.599  -3.559   1.904  0.00  0.00    +0.013 A 
ATOM     19  C   UNL     1      -0.405  -3.382   3.258  0.00  0.00    +0.039 A 
ATOM     20  C   UNL     1      -1.347  -2.700   4.012  0.00  0.00    +0.123 A 
ATOM     21  C   UNL     1      -2.487  -2.194   3.409  0.00  0.00    +0.039 A 
ATOM     22  C   UNL     1      -2.686  -2.362   2.054  0.00  0.00    +0.013 A 
ATOM     23  F   UNL     1      -1.153  -2.529   5.338  0.00  0.00    -0.205 F 
ENDBRANCH  16  17
ENDBRANCH  10  11
BRANCH   1  25
ATOM     24  C   UNL     1      -1.442  -0.173  -0.836  0.00  0.00    +0.017 C 
ATOM     25  C   UNL     1       0.047   0.105  -0.614  0.00  0.00    +0.007 C 
ATOM     26  C   UNL     1       0.301   1.612  -0.685  0.00  0.00    +0.017 C 
ATOM     27  C   UNL     1       0.464  -0.419   0.762  0.00  0.00    +0.017 C 
ENDBRANCH   1  25
BRANCH   8  28
ATOM     28  N   UNL     1       2.639  -5.641  -2.645  0.00  0.00    -0.328 N 
ATOM     29  H   UNL     1       3.195  -5.745  -3.434  0.00  0.00    +0.145 HD
ATOM     30  H   UNL     1       2.523  -6.385  -2.033  0.00  0.00    +0.145 HD
ENDBRANCH   8  28
BRANCH   9  31
ATOM     31  C   UNL     1       1.132  -5.479  -0.426  0.00  0.00    +0.101 C 
ATOM     32  N   UNL     1       1.036  -6.383   0.256  0.00  0.00    -0.191 NA
ENDBRANCH   9  31
TORSDOF 5
