REMARK  Name = ZINC25518110
REMARK  6 active torsions:
REMARK  status: ('A' for Active; 'I' for Inactive)
REMARK    1  A    between atoms: C_6  and  S_7
REMARK    2  A    between atoms: S_7  and  N_10
REMARK    3  A    between atoms: C_15  and  C_17
REMARK    4  A    between atoms: N_19  and  C_20
REMARK    5  A    between atoms: N_23  and  C_26
REMARK    6  A    between atoms: C_26  and  C_27
REMARK                            x       y       z     vdW  Elec       q    Type
REMARK                         _______ _______ _______ _____ _____    ______ ____
ROOT
ATOM      1  C   UNL     1      -0.905   2.780  -1.160  0.00  0.00    +0.232 C 
ATOM      2  O   UNL     1      -1.693   2.308  -1.951  0.00  0.00    -0.274 OA
ATOM      3  N   UNL     1      -0.212   3.891  -1.481  0.00  0.00    -0.311 N 
ATOM      4  H   UNL     1       0.503   4.320  -0.763  0.00  0.00    +0.149 HD
ENDROOT
BRANCH   3   5
ATOM      5  C   UNL     1      -0.411   4.527  -2.785  0.00  0.00    +0.069 C 
ATOM      6  C   UNL     1       0.487   3.853  -3.826  0.00  0.00    +0.003 C 
ATOM      7  C   UNL     1       0.320   4.560  -5.172  0.00  0.00    -0.076 C 
ATOM      8  N   UNL     1       0.683   5.976  -5.031  0.00  0.00    +0.385 N 
ATOM      9  C   UNL     1      -0.197   6.656  -4.072  0.00  0.00    -0.076 C 
ATOM     10  C   UNL     1      -0.045   6.011  -2.692  0.00  0.00    +0.003 C 
ATOM     11  H   UNL     1       1.708   6.022  -4.636  0.00  0.00    -0.081 HD
BRANCH   8  12
ATOM     12  C   UNL     1       0.668   6.656  -6.333  0.00  0.00    +0.018 C 
BRANCH  12  13
ATOM     13  C   UNL     1       1.311   8.013  -6.199  0.00  0.00    +0.194 C 
ATOM     14  O   UNL     1       1.822   8.340  -5.149  0.00  0.00    -0.278 OA
ATOM     15  N   UNL     1       1.317   8.862  -7.245  0.00  0.00    -0.331 N 
ATOM     16  H   UNL     1       1.786   9.852  -7.147  0.00  0.00    +0.145 HD
ATOM     17  H   UNL     1       0.853   8.565  -8.197  0.00  0.00    +0.145 HD
ENDBRANCH  12  13
ENDBRANCH   8  12
ENDBRANCH   3   5
BRANCH   1  23
ATOM     18  N   UNL     1      -1.952   2.170   0.951  0.00  0.00    -0.165 NA
ATOM     19  C   UNL     1      -2.018   1.457   2.234  0.00  0.00    +0.110 C 
ATOM     20  C   UNL     1      -1.597   0.001   2.012  0.00  0.00    +0.017 C 
ATOM     21  C   UNL     1      -0.220  -0.032   1.345  0.00  0.00    +0.003 C 
ATOM     22  C   UNL     1      -0.294   0.662  -0.017  0.00  0.00    +0.030 C 
ATOM     23  C   UNL     1      -0.700   2.126   0.182  0.00  0.00    +0.165 C 
BRANCH  18  24
ATOM     24  S   UNL     1      -3.263   3.006   0.381  0.00  0.00    +0.062 S 
ATOM     25  O   UNL     1      -4.084   3.288   1.506  0.00  0.00    -0.153 OA
ATOM     26  O   UNL     1      -2.756   4.027  -0.467  0.00  0.00    -0.153 OA
BRANCH  24  32
ATOM     27  C   UNL     1      -4.347   2.192  -1.988  0.00  0.00    +0.029 A 
ATOM     28  C   UNL     1      -5.060   1.326  -2.795  0.00  0.00    +0.017 A 
ATOM     29  C   UNL     1      -5.612   0.177  -2.259  0.00  0.00    +0.018 A 
ATOM     30  C   UNL     1      -5.446  -0.108  -0.915  0.00  0.00    +0.017 A 
ATOM     31  C   UNL     1      -4.729   0.756  -0.110  0.00  0.00    +0.029 A 
ATOM     32  C   UNL     1      -4.177   1.904  -0.646  0.00  0.00    +0.106 A 
ATOM     33 BR   UNL     1      -6.593  -1.005  -3.362  0.00  0.00    -0.050 Br
ENDBRANCH  24  32
ENDBRANCH  18  24
ENDBRANCH   1  23
TORSDOF 6
