REMARK  Name = ZINC12559520
REMARK  9 active torsions:
REMARK  status: ('A' for Active; 'I' for Inactive)
REMARK    1  A    between atoms: C_1  and  N_2
REMARK    2  A    between atoms: C_6  and  C_7
REMARK    3  A    between atoms: C_7  and  C_9
REMARK    4  A    between atoms: C_7  and  N_17
REMARK    5  A    between atoms: C_12  and  O_15
REMARK    6  A    between atoms: O_15  and  C_16
REMARK    7  A    between atoms: N_17  and  C_18
REMARK    8  A    between atoms: C_21  and  C_27
REMARK    9  A    between atoms: C_23  and  N_24
REMARK                            x       y       z     vdW  Elec       q    Type
REMARK                         _______ _______ _______ _____ _____    ______ ____
ROOT
ATOM      1  C   UNL     1       0.067   0.029   3.197  0.00  0.00    +0.165 C 
ENDROOT
BRANCH   1   7
ATOM      2  C   UNL     1       0.255   2.054   0.859  0.00  0.00    +0.150 C 
ATOM      3  N   UNL     1       0.419   0.602   0.744  0.00  0.00    -0.337 N 
ATOM      4  C   UNL     1       0.686  -0.097  -0.402  0.00  0.00    +0.104 A 
ATOM      5  C   UNL     1       0.757  -1.397  -0.057  0.00  0.00    +0.102 A 
ATOM      6  N   UNL     1       0.539  -1.489   1.263  0.00  0.00    -0.348 N 
ATOM      7  C   UNL     1       0.341  -0.295   1.751  0.00  0.00    +0.112 A 
ATOM      8  H   UNL     1       0.534  -2.313   1.775  0.00  0.00    +0.167 HD
ENDBRANCH   1   7
BRANCH   1   9
ATOM      9  C   UNL     1       1.372   0.156   3.939  0.00  0.00    -0.020 A 
ATOM     10  C   UNL     1       2.045  -0.980   4.351  0.00  0.00    +0.009 A 
ATOM     11  C   UNL     1       3.242  -0.866   5.032  0.00  0.00    +0.046 A 
ATOM     12  C   UNL     1       3.768   0.389   5.303  0.00  0.00    +0.120 A 
ATOM     13  C   UNL     1       3.091   1.526   4.888  0.00  0.00    +0.046 A 
ATOM     14  C   UNL     1       1.897   1.407   4.203  0.00  0.00    +0.009 A 
BRANCH  12  15
ATOM     15  O   UNL     1       4.944   0.503   5.973  0.00  0.00    -0.495 OA
ATOM     16  C   UNL     1       5.426   1.827   6.217  0.00  0.00    +0.277 C 
ENDBRANCH  12  15
ENDBRANCH   1   9
BRANCH   1  17
ATOM     17  N   UNL     1      -0.732  -1.044   3.794  0.00  0.00    -0.329 N 
ATOM     18  H   UNL     1      -0.296  -1.762   4.278  0.00  0.00    +0.147 HD
BRANCH  17  19
ATOM     19  C   UNL     1      -2.117  -1.032   3.667  0.00  0.00    +0.059 A 
ATOM     20  C   UNL     1      -2.751   0.057   3.076  0.00  0.00    +0.026 A 
ATOM     21  C   UNL     1      -4.121   0.072   2.949  0.00  0.00    +0.015 A 
ATOM     22  C   UNL     1      -4.876  -1.009   3.414  0.00  0.00    +0.039 A 
ATOM     23  C   UNL     1      -4.237  -2.101   4.007  0.00  0.00    +0.047 A 
ATOM     24  C   UNL     1      -2.866  -2.112   4.127  0.00  0.00    +0.148 A 
BRANCH  22  25
ATOM     25  C   UNL     1      -6.345  -0.997   3.279  0.00  0.00    +0.242 C 
ATOM     26  O   UNL     1      -7.001  -1.938   3.684  0.00  0.00    -0.270 OA
ATOM     27  N   UNL     1      -6.961   0.057   2.708  0.00  0.00    -0.325 N 
ATOM     28  H   UNL     1      -6.438   0.807   2.385  0.00  0.00    +0.145 HD
ATOM     29  H   UNL     1      -7.927   0.065   2.619  0.00  0.00    +0.145 HD
ENDBRANCH  22  25
BRANCH  24  30
ATOM     30  N   UNL     1      -2.187  -3.271   4.750  0.00  0.00    +0.058 N 
ATOM     31  O   UNL     1      -1.126  -3.655   4.315  0.00  0.00    -0.126 OA
ATOM     32  O   UNL     1      -2.693  -3.833   5.693  0.00  0.00    -0.126 OA
ENDBRANCH  24  30
ENDBRANCH  17  19
ENDBRANCH   1  17
TORSDOF 7
