REMARK  Name = ZINC39736423
REMARK  14 active torsions:
REMARK  status: ('A' for Active; 'I' for Inactive)
REMARK    1  A    between atoms: C_1  and  C_2
REMARK    2  A    between atoms: C_2  and  N_3
REMARK    3  A    between atoms: N_3  and  C_4
REMARK    4  A    between atoms: N_3  and  C_6
REMARK    5  A    between atoms: C_4  and  C_5
REMARK    6  A    between atoms: C_6  and  C_7
REMARK    7  A    between atoms: C_7  and  N_8
REMARK    8  A    between atoms: C_20  and  C_22
REMARK    9  A    between atoms: C_25  and  S_28
REMARK   10  A    between atoms: S_28  and  N_31
REMARK   11  A    between atoms: N_31  and  C_32
REMARK   12  A    between atoms: N_31  and  C_33
REMARK   13  A    between atoms: C_33  and  C_34
REMARK   14  A    between atoms: C_33  and  C_35
REMARK                            x       y       z     vdW  Elec       q    Type
REMARK                         _______ _______ _______ _____ _____    ______ ____
ROOT
ATOM      1  N   UNL     1      -1.482  -3.389  -1.720  0.00  0.00    -0.248 N 
ATOM      2  C   UNL     1      -1.718  -4.045  -0.523  0.00  0.00    +0.168 A 
ATOM      3  N   UNL     1      -2.046  -3.539   0.642  0.00  0.00    -0.221 NA
ATOM      4  C   UNL     1      -2.248  -4.306   1.736  0.00  0.00    +0.116 A 
ATOM      5  C   UNL     1      -2.603  -3.889   3.042  0.00  0.00    +0.152 A 
ATOM      6  C   UNL     1      -2.769  -4.806   4.050  0.00  0.00    +0.079 A 
ATOM      7  C   UNL     1      -2.597  -6.166   3.828  0.00  0.00    +0.127 A 
ATOM      8  C   UNL     1      -2.250  -6.607   2.562  0.00  0.00    +0.055 A 
ATOM      9  C   UNL     1      -2.082  -5.696   1.548  0.00  0.00    +0.046 A 
ATOM     10  S   UNL     1      -1.659  -5.797  -0.174  0.00  0.00    -0.052 S 
ATOM     11  F   UNL     1      -2.766  -7.049   4.836  0.00  0.00    -0.205 F 
ATOM     12  F   UNL     1      -2.780  -2.574   3.299  0.00  0.00    -0.203 F 
ATOM     13  C   UNL     1      -1.158  -4.094  -2.822  0.00  0.00    +0.252 C 
ATOM     14  O   UNL     1      -1.133  -5.308  -2.782  0.00  0.00    -0.270 OA
ENDROOT
BRANCH  13  15
ATOM     15  C   UNL     1      -0.833  -3.390  -4.080  0.00  0.00    +0.037 A 
ATOM     16  C   UNL     1       0.098  -2.349  -4.081  0.00  0.00    +0.015 A 
ATOM     17  C   UNL     1       0.396  -1.696  -5.259  0.00  0.00    +0.029 A 
ATOM     18  C   UNL     1      -0.224  -2.071  -6.438  0.00  0.00    +0.106 A 
ATOM     19  C   UNL     1      -1.147  -3.101  -6.444  0.00  0.00    +0.029 A 
ATOM     20  C   UNL     1      -1.451  -3.766  -5.274  0.00  0.00    +0.015 A 
BRANCH  18  21
ATOM     21  S   UNL     1       0.163  -1.231  -7.938  0.00  0.00    +0.061 S 
ATOM     22  O   UNL     1      -0.953  -1.405  -8.801  0.00  0.00    -0.153 OA
ATOM     23  O   UNL     1       0.649   0.053  -7.571  0.00  0.00    -0.153 OA
BRANCH  21  24
ATOM     24  N   UNL     1       1.431  -2.035  -8.636  0.00  0.00    -0.177 NA
ATOM     25  C   UNL     1       1.177  -3.134  -9.571  0.00  0.00    +0.132 C 
BRANCH  24  26
ATOM     26  C   UNL     1       2.808  -1.648  -8.318  0.00  0.00    +0.073 C 
ATOM     27  C   UNL     1       3.543  -2.838  -7.699  0.00  0.00    +0.025 C 
ATOM     28  C   UNL     1       3.525  -1.216  -9.599  0.00  0.00    +0.025 C 
ENDBRANCH  24  26
ENDBRANCH  21  24
ENDBRANCH  18  21
ENDBRANCH  13  15
BRANCH   1  29
ATOM     29  C   UNL     1      -1.585  -1.929  -1.788  0.00  0.00    +0.097 C 
BRANCH  29  30
ATOM     30  C   UNL     1      -0.339  -1.300  -1.160  0.00  0.00    -0.059 C 
BRANCH  30  31
ATOM     31  N   UNL     1      -0.371   0.154  -1.361  0.00  0.00    +0.380 N 
ATOM     32  H   UNL     1      -0.470   0.356  -2.344  0.00  0.00    -0.082 HD
BRANCH  31  34
ATOM     33  C   UNL     1      -1.625   2.217  -0.948  0.00  0.00    -0.017 C 
ATOM     34  C   UNL     1      -1.507   0.726  -0.626  0.00  0.00    -0.082 C 
ENDBRANCH  31  34
BRANCH  31  35
ATOM     35  C   UNL     1       0.879   0.745  -0.864  0.00  0.00    -0.082 C 
ATOM     36  C   UNL     1       2.049   0.258  -1.722  0.00  0.00    -0.017 C 
ENDBRANCH  31  35
ENDBRANCH  30  31
ENDBRANCH  29  30
ENDBRANCH   1  29
TORSDOF 9
