REMARK  Name = ZINC63372535
REMARK  6 active torsions:
REMARK  status: ('A' for Active; 'I' for Inactive)
REMARK    1  A    between atoms: C_1  and  C_2
REMARK    2  A    between atoms: C_5  and  N_8
REMARK    3  A    between atoms: C_9  and  O_40
REMARK    4  A    between atoms: C_11  and  C_25
REMARK    5  A    between atoms: N_15  and  C_18
REMARK    6  A    between atoms: C_21  and  C_24
REMARK                            x       y       z     vdW  Elec       q    Type
REMARK                         _______ _______ _______ _____ _____    ______ ____
ROOT
ATOM      1  N   UNL     1      -0.590  -4.057   0.006  0.00  0.00    -0.228 N 
ATOM      2  C   UNL     1      -0.071  -4.577   1.273  0.00  0.00    +0.224 C 
ATOM      3  C   UNL     1      -0.204  -6.101   1.292  0.00  0.00    +0.142 C 
ATOM      4  C   UNL     1       0.298  -6.659  -0.015  0.00  0.00    +0.236 C 
ATOM      5  O   UNL     1       0.863  -7.732  -0.040  0.00  0.00    -0.274 OA
ATOM      6  N   UNL     1       0.119  -5.966  -1.155  0.00  0.00    -0.193 N 
ATOM      7  C   UNL     1      -0.428  -4.740  -1.138  0.00  0.00    +0.322 C 
ATOM      8  O   UNL     1      -0.783  -4.236  -2.186  0.00  0.00    -0.251 OA
ENDROOT
BRANCH   3   9
ATOM      9  C   UNL     1       0.625  -6.671   2.445  0.00  0.00    +0.096 C 
ATOM     10  C   UNL     1       0.152  -6.067   3.769  0.00  0.00    +0.124 C 
ATOM     11  C   UNL     1       1.131  -6.551   4.833  0.00  0.00    -0.036 C 
ATOM     12  C   UNL     1       0.402  -7.120   5.782  0.00  0.00    -0.001 A 
ATOM     13  C   UNL     1       0.765  -7.691   7.090  0.00  0.00    +0.010 A 
ATOM     14  C   UNL     1      -0.255  -8.215   7.819  0.00  0.00    +0.001 A 
ATOM     15  C   UNL     1      -1.583  -8.230   7.385  0.00  0.00    +0.002 A 
ATOM     16  C   UNL     1      -2.009  -7.722   6.200  0.00  0.00    +0.026 A 
ATOM     17  C   UNL     1      -1.028  -7.137   5.347  0.00  0.00    +0.043 A 
ATOM     18  N   UNL     1      -1.166  -6.554   4.172  0.00  0.00    -0.376 N 
ATOM     19  C   UNL     1       2.624  -6.427   4.649  0.00  0.00    +0.048 C 
ATOM     20  C   UNL     1       2.929  -6.957   3.236  0.00  0.00    +0.085 C 
ATOM     21  N   UNL     1       2.042  -6.323   2.257  0.00  0.00    -0.310 NA
ATOM     22  H   UNL     1       2.342  -6.524   1.314  0.00  0.00    +0.122 HD
ATOM     23  H   UNL     1      -1.985  -6.466   3.659  0.00  0.00    +0.160 HD
ENDBRANCH   3   9
BRANCH   1  28
ATOM     24  C   UNL     1      -3.341   0.904  -0.062  0.00  0.00    +0.044 C 
ATOM     25  C   UNL     1      -2.610  -0.413  -0.044  0.00  0.00    -0.050 A 
ATOM     26  C   UNL     1      -3.307  -1.586   0.182  0.00  0.00    +0.005 A 
ATOM     27  C   UNL     1      -2.640  -2.795   0.199  0.00  0.00    +0.024 A 
ATOM     28  C   UNL     1      -1.268  -2.833  -0.011  0.00  0.00    +0.040 A 
ATOM     29  C   UNL     1      -0.571  -1.654  -0.238  0.00  0.00    +0.024 A 
ATOM     30  C   UNL     1      -1.244  -0.448  -0.259  0.00  0.00    +0.005 A 
ENDBRANCH   1  28
BRANCH   6  31
ATOM     31  C   UNL     1       0.506  -6.535  -2.377  0.00  0.00    +0.045 A 
ATOM     32  C   UNL     1       1.779  -6.304  -2.879  0.00  0.00    +0.024 A 
ATOM     33  C   UNL     1       2.157  -6.866  -4.083  0.00  0.00    +0.005 A 
ATOM     34  C   UNL     1       1.268  -7.657  -4.788  0.00  0.00    -0.050 A 
ATOM     35  C   UNL     1      -0.001  -7.888  -4.290  0.00  0.00    +0.005 A 
ATOM     36  C   UNL     1      -0.382  -7.335  -3.083  0.00  0.00    +0.024 A 
ATOM     37  C   UNL     1       1.683  -8.268  -6.102  0.00  0.00    +0.044 C 
ENDBRANCH   6  31
BRANCH   2  38
ATOM     38  O   UNL     1       1.306  -4.217   1.407  0.00  0.00    -0.373 OA
ATOM     39  H   UNL     1       1.465  -3.263   1.403  0.00  0.00    +0.212 HD
ENDBRANCH   2  38
TORSDOF 4
