REMARK  Name = ZINC35455248
REMARK  14 active torsions:
REMARK  status: ('A' for Active; 'I' for Inactive)
REMARK    1  A    between atoms: C_3  and  O_42
REMARK    2  A    between atoms: C_6  and  C_7
REMARK    3  A    between atoms: C_7  and  O_9
REMARK    4  A    between atoms: O_9  and  C_10
REMARK    5  A    between atoms: C_13  and  C_40
REMARK    6  A    between atoms: C_16  and  O_39
REMARK    7  A    between atoms: C_20  and  O_22
REMARK    8  A    between atoms: O_22  and  C_23
REMARK    9  A    between atoms: C_25  and  O_38
REMARK   10  A    between atoms: C_27  and  O_37
REMARK   11  A    between atoms: C_29  and  O_36
REMARK   12  A    between atoms: C_31  and  C_34
REMARK   13  A    between atoms: C_34  and  O_35
REMARK   14  A    between atoms: C_40  and  O_41
REMARK                            x       y       z     vdW  Elec       q    Type
REMARK                         _______ _______ _______ _____ _____    ______ ____
ROOT
ATOM      1  C   UNL     1      -2.506  -2.776   0.012  0.00  0.00    +0.236 C 
ATOM      2  C   UNL     1      -2.924  -3.126   1.437  0.00  0.00    +0.022 C 
ATOM      3  C   UNL     1      -2.560  -4.364   1.733  0.00  0.00    -0.033 C 
ATOM      4  C   UNL     1      -1.832  -4.943   0.575  0.00  0.00    +0.125 C 
ATOM      5  C   UNL     1      -2.399  -4.150  -0.654  0.00  0.00    +0.140 C 
ATOM      6  C   UNL     1      -1.323  -4.316  -1.691  0.00  0.00    +0.049 C 
ATOM      7  C   UNL     1      -0.902  -5.580  -1.813  0.00  0.00    +0.189 C 
ATOM      8  O   UNL     1      -1.425  -6.596  -1.096  0.00  0.00    -0.470 OA
ATOM      9  C   UNL     1      -1.968  -6.403   0.229  0.00  0.00    +0.319 C 
ENDROOT
BRANCH   5  10
ATOM     10  O   UNL     1      -3.668  -4.639  -1.094  0.00  0.00    -0.380 OA
ATOM     11  H   UNL     1      -4.096  -4.082  -1.758  0.00  0.00    +0.211 HD
ENDBRANCH   5  10
BRANCH   1  12
ATOM     12  O   UNL     1      -1.243  -2.108   0.003  0.00  0.00    -0.450 OA
BRANCH  12  13
ATOM     13  C   UNL     1      -1.264  -0.761   0.011  0.00  0.00    +0.340 C 
ATOM     14  O   UNL     1      -2.325  -0.169   0.024  0.00  0.00    -0.245 OA
BRANCH  13  20
ATOM     15  C   UNL     1      -0.017   1.394   0.010  0.00  0.00    +0.018 A 
ATOM     16  C   UNL     1       1.167   2.096   0.002  0.00  0.00    +0.046 A 
ATOM     17  C   UNL     1       2.380   1.418  -0.013  0.00  0.00    +0.117 A 
ATOM     18  C   UNL     1       2.404   0.028  -0.021  0.00  0.00    +0.046 A 
ATOM     19  C   UNL     1       1.224  -0.682  -0.014  0.00  0.00    +0.018 A 
ATOM     20  C   UNL     1       0.002  -0.004   0.002  0.00  0.00    +0.059 A 
BRANCH  17  21
ATOM     21  O   UNL     1       3.545   2.114  -0.020  0.00  0.00    -0.507 OA
ATOM     22  H   UNL     1       3.891   2.311   0.861  0.00  0.00    +0.292 HD
ENDBRANCH  17  21
ENDBRANCH  13  20
ENDBRANCH  12  13
ENDBRANCH   1  12
BRANCH   9  23
ATOM     23  O   UNL     1      -3.347  -6.779   0.248  0.00  0.00    -0.309 OA
BRANCH  23  24
ATOM     24  C   UNL     1      -3.567  -8.188   0.155  0.00  0.00    +0.286 C 
ATOM     25  C   UNL     1      -5.057  -8.458  -0.065  0.00  0.00    +0.201 C 
ATOM     26  C   UNL     1      -5.293  -9.971  -0.103  0.00  0.00    +0.179 C 
ATOM     27  C   UNL     1      -4.776 -10.591   1.199  0.00  0.00    +0.177 C 
ATOM     28  C   UNL     1      -3.296 -10.238   1.370  0.00  0.00    +0.178 C 
ATOM     29  O   UNL     1      -3.143  -8.817   1.366  0.00  0.00    -0.340 OA
BRANCH  27  30
ATOM     30  O   UNL     1      -5.522 -10.075   2.303  0.00  0.00    -0.386 OA
ATOM     31  H   UNL     1      -6.470 -10.259   2.257  0.00  0.00    +0.210 HD
ENDBRANCH  27  30
BRANCH  26  32
ATOM     32  O   UNL     1      -6.691 -10.234  -0.237  0.00  0.00    -0.386 OA
ATOM     33  H   UNL     1      -7.086  -9.864  -1.038  0.00  0.00    +0.210 HD
ENDBRANCH  26  32
BRANCH  25  34
ATOM     34  O   UNL     1      -5.810  -7.883   1.005  0.00  0.00    -0.384 OA
ATOM     35  H   UNL     1      -5.704  -6.926   1.091  0.00  0.00    +0.210 HD
ENDBRANCH  25  34
BRANCH  28  36
ATOM     36  C   UNL     1      -2.787 -10.803   2.698  0.00  0.00    +0.190 C 
BRANCH  36  37
ATOM     37  O   UNL     1      -1.380 -10.575   2.804  0.00  0.00    -0.392 OA
ATOM     38  H   UNL     1      -0.989 -10.908   3.623  0.00  0.00    +0.210 HD
ENDBRANCH  36  37
ENDBRANCH  28  36
ENDBRANCH  23  24
ENDBRANCH   9  23
BRANCH   3  39
ATOM     39  C   UNL     1      -2.839  -5.071   3.034  0.00  0.00    +0.187 C 
BRANCH  39  40
ATOM     40  O   UNL     1      -3.561  -4.198   3.905  0.00  0.00    -0.391 OA
ATOM     41  H   UNL     1      -3.775  -4.588   4.764  0.00  0.00    +0.210 HD
ENDBRANCH  39  40
ENDBRANCH   3  39
TORSDOF 14
