REMARK  Name = ZINC39916300
REMARK  6 active torsions:
REMARK  status: ('A' for Active; 'I' for Inactive)
REMARK    1  A    between atoms: C_1  and  C_2
REMARK    2  A    between atoms: C_2  and  O_3
REMARK    3  A    between atoms: O_3  and  C_4
REMARK    4  A    between atoms: C_4  and  C_6
REMARK    5  A    between atoms: C_7  and  N_28
REMARK    6  A    between atoms: C_21  and  C_23
REMARK                            x       y       z     vdW  Elec       q    Type
REMARK                         _______ _______ _______ _____ _____    ______ ____
ROOT
ATOM      1  C   UNL     1       1.426  -2.323  -2.466  0.00  0.00    +0.105 C 
ATOM      2  C   UNL     1       1.597  -3.663  -2.554  0.00  0.00    +0.195 C 
ATOM      3  O   UNL     1       2.189  -4.238  -3.627  0.00  0.00    -0.445 OA
ATOM      4  C   UNL     1       2.767  -3.415  -4.505  0.00  0.00    +0.129 C 
ATOM      5  C   UNL     1       3.984  -3.681  -5.114  0.00  0.00    +0.035 A 
ATOM      6  C   UNL     1       4.686  -4.877  -4.857  0.00  0.00    +0.013 A 
ATOM      7  C   UNL     1       5.873  -5.107  -5.482  0.00  0.00    +0.001 A 
ATOM      8  C   UNL     1       6.413  -4.183  -6.372  0.00  0.00    +0.002 A 
ATOM      9  C   UNL     1       5.785  -3.008  -6.656  0.00  0.00    +0.024 A 
ATOM     10  C   UNL     1       4.556  -2.703  -6.047  0.00  0.00    +0.044 A 
ATOM     11  N   UNL     1       3.943  -1.545  -6.321  0.00  0.00    -0.284 N 
ATOM     12  C   UNL     1       2.781  -1.189  -5.810  0.00  0.00    +0.229 C 
ATOM     13  O   UNL     1       2.289  -0.116  -6.104  0.00  0.00    -0.275 OA
ATOM     14  C   UNL     1       2.060  -2.118  -4.858  0.00  0.00    +0.157 C 
ATOM     15  C   UNL     1       1.888  -1.370  -3.534  0.00  0.00    +0.116 C 
ATOM     16  H   UNL     1       4.380  -0.930  -6.931  0.00  0.00    +0.155 HD
ENDROOT
BRANCH  15  17
ATOM     17  C   UNL     1       0.867  -0.275  -3.704  0.00  0.00    +0.114 A 
ATOM     18  C   UNL     1       1.089   1.041  -3.533  0.00  0.00    +0.045 A 
ATOM     19  C   UNL     1      -0.134   1.700  -3.792  0.00  0.00    +0.041 A 
ATOM     20  C   UNL     1      -1.031   0.748  -4.106  0.00  0.00    +0.195 A 
ATOM     21  O   UNL     1      -0.417  -0.446  -4.056  0.00  0.00    -0.467 OA
ENDBRANCH  15  17
BRANCH   2  22
ATOM     22  N   UNL     1       1.158  -4.459  -1.530  0.00  0.00    -0.329 N 
ATOM     23  H   UNL     1       0.665  -4.070  -0.791  0.00  0.00    +0.145 HD
ATOM     24  H   UNL     1       1.341  -5.411  -1.543  0.00  0.00    +0.145 HD
ENDBRANCH   2  22
BRANCH   1  25
ATOM     25  C   UNL     1       0.785  -1.801  -1.330  0.00  0.00    +0.341 C 
ATOM     26  O   UNL     1       1.442  -1.289  -0.442  0.00  0.00    -0.245 OA
BRANCH  25  27
ATOM     27  O   UNL     1      -0.559  -1.865  -1.224  0.00  0.00    -0.462 OA
BRANCH  27  29
ATOM     28  C   UNL     1      -2.664  -1.478  -0.102  0.00  0.00    +0.048 C 
ATOM     29  C   UNL     1      -1.144  -1.314  -0.043  0.00  0.00    +0.229 C 
ENDBRANCH  27  29
ENDBRANCH  25  27
ENDBRANCH   1  25
TORSDOF 5
