REMARK  Name = ZINC62921258
REMARK  4 active torsions:
REMARK  status: ('A' for Active; 'I' for Inactive)
REMARK    1  A    between atoms: C_1  and  C_2
REMARK    2  A    between atoms: C_2  and  C_3
REMARK    3  A    between atoms: C_3  and  C_4
REMARK    4  A    between atoms: C_4  and  C_9
REMARK                            x       y       z     vdW  Elec       q    Type
REMARK                         _______ _______ _______ _____ _____    ______ ____
ROOT
ATOM      1  C   UNL     1       0.849  -2.021  -1.205  0.00  0.00    +0.014 C 
ATOM      2  C   UNL     1      -0.528  -2.702  -1.375  0.00  0.00    -0.006 C 
ATOM      3  C   UNL     1      -0.563  -3.041  -2.886  0.00  0.00    -0.082 C 
ATOM      4  N   UNL     1       0.839  -3.435  -3.179  0.00  0.00    +0.380 N 
ATOM      5  C   UNL     1       1.689  -2.508  -2.401  0.00  0.00    -0.068 C 
ATOM      6  H   UNL     1       1.002  -4.386  -2.885  0.00  0.00    -0.086 HD
ATOM      7  H   UNL     1       1.029  -3.337  -4.165  0.00  0.00    -0.086 HD
ENDROOT
BRANCH   1   8
ATOM      8  C   UNL     1       1.490  -2.446   0.091  0.00  0.00    +0.136 A 
ATOM      9  N   UNL     1       2.695  -1.996   0.573  0.00  0.00    -0.293 N 
ATOM     10  H   UNL     1       3.276  -1.353   0.138  0.00  0.00    +0.172 HD
ATOM     11  C   UNL     1       2.931  -2.601   1.755  0.00  0.00    +0.342 A 
ATOM     12  O   UNL     1       3.908  -2.439   2.464  0.00  0.00    -0.245 OA
ATOM     13  N   UNL     1       1.887  -3.417   2.006  0.00  0.00    -0.227 N 
ATOM     14  H   UNL     1       1.776  -3.984   2.785  0.00  0.00    +0.194 HD
ATOM     15  N   UNL     1       0.992  -3.291   0.936  0.00  0.00    -0.156 NA
ENDBRANCH   1   8
BRANCH   1  16
ATOM     16  C   UNL     1       0.698  -0.499  -1.247  0.00  0.00    +0.012 C 
BRANCH  16  18
ATOM     17  C   UNL     1      -0.156   1.498  -0.012  0.00  0.00    +0.004 C 
ATOM     18  C   UNL     1      -0.087  -0.031  -0.020  0.00  0.00    -0.002 C 
ENDBRANCH  16  18
ENDBRANCH   1  16
TORSDOF 3
