REMARK  Name = ZINC53127761
REMARK  5 active torsions:
REMARK  status: ('A' for Active; 'I' for Inactive)
REMARK    1  A    between atoms: C_1  and  C_2
REMARK    2  A    between atoms: C_7  and  C_9
REMARK    3  A    between atoms: C_7  and  N_11
REMARK    4  A    between atoms: C_9  and  O_10
REMARK    5  A    between atoms: C_12  and  C_14
REMARK                            x       y       z     vdW  Elec       q    Type
REMARK                         _______ _______ _______ _____ _____    ______ ____
ROOT
ATOM      1  N   UNL     1       2.171   1.421   1.357  0.00  0.00    -0.309 N 
ATOM      2  C   UNL     1       3.421   1.903   1.212  0.00  0.00    +0.200 C 
ATOM      3  O   UNL     1       4.354   1.139   1.077  0.00  0.00    -0.278 OA
ATOM      4  H   UNL     1       1.436   2.026   1.540  0.00  0.00    +0.149 HD
ENDROOT
BRANCH   2   5
ATOM      5  C   UNL     1       3.660   3.391   1.218  0.00  0.00    +0.017 C 
ATOM      6  C   UNL     1       2.914   4.047   0.039  0.00  0.00    -0.005 C 
ATOM      7  C   UNL     1       4.029   4.701  -0.825  0.00  0.00    -0.026 C 
ATOM      8  C   UNL     1       4.426   3.669  -1.883  0.00  0.00    +0.002 C 
ATOM      9  C   UNL     1       5.759   4.039  -2.528  0.00  0.00    +0.000 C 
ATOM     10  C   UNL     1       6.844   4.031  -1.446  0.00  0.00    -0.002 C 
ATOM     11  C   UNL     1       6.511   5.117  -0.423  0.00  0.00    -0.015 C 
ATOM     12  C   UNL     1       5.152   4.899   0.210  0.00  0.00    -0.068 C 
ATOM     13  N   UNL     1       5.105   3.671   1.033  0.00  0.00    +0.389 N 
ATOM     14  H   UNL     1       5.548   3.827   1.926  0.00  0.00    -0.084 HD
ATOM     15  H   UNL     1       5.551   2.907   0.548  0.00  0.00    -0.084 HD
ENDBRANCH   2   5
BRANCH   1  21
ATOM     16  C   UNL     1       2.459   1.233   3.833  0.00  0.00    +0.007 C 
ATOM     17  C   UNL     1       2.200  -0.270   3.709  0.00  0.00    -0.012 C 
ATOM     18  C   UNL     1       0.701  -0.542   3.849  0.00  0.00    +0.003 C 
ATOM     19  C   UNL     1      -0.057   0.199   2.746  0.00  0.00    +0.002 C 
ATOM     20  C   UNL     1       0.424  -0.290   1.379  0.00  0.00    +0.028 C 
ATOM     21  C   UNL     1       1.923  -0.018   1.238  0.00  0.00    +0.058 C 
ATOM     22  C   UNL     1       2.681  -0.759   2.341  0.00  0.00    +0.031 C 
BRANCH  21  23
ATOM     23  C   UNL     1       2.404  -0.508  -0.129  0.00  0.00    +0.181 C 
BRANCH  23  24
ATOM     24  O   UNL     1       1.680   0.168  -1.159  0.00  0.00    -0.393 OA
ATOM     25  H   UNL     1       1.933  -0.094  -2.054  0.00  0.00    +0.209 HD
ENDBRANCH  23  24
ENDBRANCH  21  23
ENDBRANCH   1  21
TORSDOF 4
