REMARK  Name = ZINC61809785
REMARK  7 active torsions:
REMARK  status: ('A' for Active; 'I' for Inactive)
REMARK    1  A    between atoms: C_1  and  C_2
REMARK    2  A    between atoms: C_4  and  C_12
REMARK    3  A    between atoms: C_9  and  N_11
REMARK    4  A    between atoms: N_14  and  C_15
REMARK    5  A    between atoms: N_14  and  C_19
REMARK    6  A    between atoms: C_15  and  C_16
REMARK    7  A    between atoms: C_19  and  C_20
REMARK                            x       y       z     vdW  Elec       q    Type
REMARK                         _______ _______ _______ _____ _____    ______ ____
ROOT
ATOM      1  C   UNL     1       2.243  -0.261  -1.115  0.00  0.00    +0.220 C 
ATOM      2  O   UNL     1       2.630   0.423  -0.191  0.00  0.00    -0.275 OA
ATOM      3  N   UNL     1       2.987  -0.366  -2.234  0.00  0.00    -0.284 N 
ENDROOT
BRANCH   1   6
ATOM      4  C   UNL     1      -0.038   0.921   0.268  0.00  0.00    +0.006 C 
ATOM      5  C   UNL     1       0.220  -0.587   0.281  0.00  0.00    -0.017 C 
ATOM      6  C   UNL     1       0.931  -0.994  -1.011  0.00  0.00    +0.076 C 
ATOM      7  C   UNL     1       1.189  -2.502  -0.998  0.00  0.00    +0.013 C 
ATOM      8  C   UNL     1       2.068  -2.859   0.203  0.00  0.00    -0.001 C 
ATOM      9  C   UNL     1       1.357  -2.451   1.495  0.00  0.00    -0.016 C 
ATOM     10  C   UNL     1       1.099  -0.943   1.481  0.00  0.00    -0.072 C 
BRANCH  10  11
ATOM     11  N   UNL     1       0.417  -0.552   2.722  0.00  0.00    +0.380 N 
ATOM     12  H   UNL     1      -0.462  -1.043   2.792  0.00  0.00    -0.090 HD
ATOM     13  H   UNL     1       0.997  -0.787   3.513  0.00  0.00    -0.090 HD
ATOM     14  H   UNL     1       0.247   0.442   2.713  0.00  0.00    -0.090 HD
ENDBRANCH  10  11
ENDBRANCH   1   6
BRANCH   3  15
ATOM     15  C   UNL     1       4.314   0.252  -2.292  0.00  0.00    +0.203 C 
BRANCH  15  16
ATOM     16  C   UNL     1       5.346  -0.726  -1.792  0.00  0.00    +0.228 C 
ATOM     17  O   UNL     1       5.006  -1.830  -1.424  0.00  0.00    -0.274 OA
ATOM     18  N   UNL     1       6.646  -0.373  -1.755  0.00  0.00    -0.328 N 
ATOM     19  H   UNL     1       6.918   0.510  -2.049  0.00  0.00    +0.145 HD
ATOM     20  H   UNL     1       7.310  -1.003  -1.433  0.00  0.00    +0.145 HD
ENDBRANCH  15  16
ENDBRANCH   3  15
BRANCH   3  21
ATOM     21  C   UNL     1       2.468  -1.097  -3.392  0.00  0.00    +0.203 C 
BRANCH  21  22
ATOM     22  C   UNL     1       1.835  -0.127  -4.357  0.00  0.00    +0.228 C 
ATOM     23  O   UNL     1       1.819   1.058  -4.101  0.00  0.00    -0.274 OA
ATOM     24  N   UNL     1       1.287  -0.577  -5.503  0.00  0.00    -0.328 N 
ATOM     25  H   UNL     1       1.300  -1.525  -5.707  0.00  0.00    +0.145 HD
ATOM     26  H   UNL     1       0.880   0.047  -6.123  0.00  0.00    +0.145 HD
ENDBRANCH  21  22
ENDBRANCH   3  21
TORSDOF 6
