REMARK  Name = ZINC36728548
REMARK  8 active torsions:
REMARK  status: ('A' for Active; 'I' for Inactive)
REMARK    1  A    between atoms: C_15  and  O_35
REMARK    2  A    between atoms: C_16  and  C_19
REMARK    3  A    between atoms: C_17  and  O_18
REMARK    4  A    between atoms: C_21  and  O_34
REMARK    5  A    between atoms: C_23  and  O_33
REMARK    6  A    between atoms: C_25  and  O_32
REMARK    7  A    between atoms: C_27  and  C_30
REMARK    8  A    between atoms: C_30  and  O_31
REMARK                            x       y       z     vdW  Elec       q    Type
REMARK                         _______ _______ _______ _____ _____    ______ ____
ROOT
ATOM      1  C   UNL     1      -0.022   0.992  -0.988  0.00  0.00    +0.001 A 
ATOM      2  C   UNL     1       1.162   1.711  -1.054  0.00  0.00    +0.004 A 
ATOM      3  C   UNL     1       2.381   1.068  -0.983  0.00  0.00    +0.046 A 
ATOM      4  C   UNL     1       2.433  -0.312  -0.844  0.00  0.00    +0.132 A 
ATOM      5  C   UNL     1       1.234  -1.040  -0.781  0.00  0.00    +0.060 A 
ATOM      6  C   UNL     1       0.006  -0.379  -0.852  0.00  0.00    +0.015 A 
ATOM      7  C   UNL     1       1.288  -2.510  -0.642  0.00  0.00    +0.181 C 
ATOM      8  O   UNL     1       0.309  -3.171  -0.366  0.00  0.00    -0.291 OA
ATOM      9  C   UNL     1       2.651  -3.134  -0.868  0.00  0.00    +0.170 C 
ATOM     10  C   UNL     1       3.669  -2.224  -0.162  0.00  0.00    +0.218 C 
ATOM     11  O   UNL     1       3.637  -0.937  -0.770  0.00  0.00    -0.483 OA
ATOM     12  C   UNL     1       5.029  -2.856  -0.253  0.00  0.00    +0.064 C 
ATOM     13  C   UNL     1       5.131  -4.188  -0.129  0.00  0.00    +0.125 C 
ATOM     14  C   UNL     1       3.918  -4.992   0.103  0.00  0.00    +0.063 C 
ATOM     15  C   UNL     1       2.715  -4.511  -0.267  0.00  0.00    +0.118 C 
ENDROOT
BRANCH  14  16
ATOM     16  C   UNL     1       4.023  -6.357   0.734  0.00  0.00    +0.187 C 
ATOM     17  C   UNL     1       4.746  -7.308  -0.224  0.00  0.00    +0.179 C 
ATOM     18  C   UNL     1       4.902  -8.676   0.448  0.00  0.00    +0.177 C 
ATOM     19  C   UNL     1       5.654  -8.499   1.770  0.00  0.00    +0.176 C 
ATOM     20  C   UNL     1       4.897  -7.502   2.651  0.00  0.00    +0.175 C 
ATOM     21  O   UNL     1       4.759  -6.262   1.955  0.00  0.00    -0.361 OA
BRANCH  19  22
ATOM     22  O   UNL     1       5.744  -9.758   2.441  0.00  0.00    -0.386 OA
ATOM     23  H   UNL     1       6.209 -10.440   1.937  0.00  0.00    +0.210 HD
ENDBRANCH  19  22
BRANCH  18  24
ATOM     24  O   UNL     1       3.611  -9.234   0.702  0.00  0.00    -0.386 OA
ATOM     25  H   UNL     1       3.635 -10.102   1.127  0.00  0.00    +0.210 HD
ENDBRANCH  18  24
BRANCH  17  26
ATOM     26  O   UNL     1       3.982  -7.449  -1.424  0.00  0.00    -0.386 OA
ATOM     27  H   UNL     1       4.382  -8.039  -2.078  0.00  0.00    +0.210 HD
ENDBRANCH  17  26
BRANCH  20  28
ATOM     28  C   UNL     1       3.510  -8.061   2.977  0.00  0.00    +0.190 C 
BRANCH  28  29
ATOM     29  O   UNL     1       2.862  -7.205   3.920  0.00  0.00    -0.392 OA
ATOM     30  H   UNL     1       1.976  -7.498   4.173  0.00  0.00    +0.210 HD
ENDBRANCH  28  29
ENDBRANCH  20  28
ENDBRANCH  14  16
BRANCH  15  31
ATOM     31  O   UNL     1       1.586  -5.238  -0.087  0.00  0.00    -0.510 OA
ATOM     32  H   UNL     1       1.728  -6.076   0.375  0.00  0.00    +0.292 HD
ENDBRANCH  15  31
BRANCH  13  33
ATOM     33  O   UNL     1       6.345  -4.792  -0.217  0.00  0.00    -0.506 OA
ATOM     34  H   UNL     1       7.079  -4.180  -0.370  0.00  0.00    +0.292 HD
ENDBRANCH  13  33
TORSDOF 8
