REMARK  Name = ZINC04788233
REMARK  9 active torsions:
REMARK  status: ('A' for Active; 'I' for Inactive)
REMARK    1  A    between atoms: C_1  and  C_2
REMARK    2  A    between atoms: C_4  and  N_32
REMARK    3  A    between atoms: C_9  and  N_12
REMARK    4  A    between atoms: C_13  and  C_15
REMARK    5  A    between atoms: C_15  and  C_16
REMARK    6  A    between atoms: C_16  and  C_17
REMARK    7  A    between atoms: N_22  and  C_25
REMARK    8  A    between atoms: C_34  and  C_41
REMARK    9  A    between atoms: C_37  and  C_40
REMARK                            x       y       z     vdW  Elec       q    Type
REMARK                         _______ _______ _______ _____ _____    ______ ____
ROOT
ATOM      1  N   UNL     1       0.030  -0.241   4.712  0.00  0.00    -0.285 N 
ATOM      2  C   UNL     1       0.764  -0.915   5.620  0.00  0.00    +0.218 C 
ATOM      3  O   UNL     1       1.379  -1.906   5.287  0.00  0.00    -0.275 OA
ATOM      4  H   UNL     1      -0.397   0.595   4.958  0.00  0.00    +0.155 HD
ENDROOT
BRANCH   1  13
ATOM      5  C   UNL     1      -0.345   1.959   0.097  0.00  0.00    +0.044 C 
ATOM      6  C   UNL     1      -0.416   0.463  -0.068  0.00  0.00    -0.038 A 
ATOM      7  C   UNL     1      -0.553  -0.098  -1.302  0.00  0.00    +0.045 A 
ATOM      8  C   UNL     1      -0.616  -1.493  -1.432  0.00  0.00    +0.099 A 
ATOM      9  N   UNL     1      -0.546  -2.286  -0.383  0.00  0.00    -0.343 N 
ATOM     10  C   UNL     1      -0.412  -1.793   0.854  0.00  0.00    +0.048 A 
ATOM     11  C   UNL     1      -0.336  -0.392   1.050  0.00  0.00    +0.003 A 
ATOM     12  C   UNL     1      -0.190   0.120   2.348  0.00  0.00    +0.033 A 
ATOM     13  C   UNL     1      -0.116  -0.747   3.415  0.00  0.00    +0.034 A 
ATOM     14  C   UNL     1      -0.186  -2.130   3.214  0.00  0.00    +0.025 A 
ATOM     15  C   UNL     1      -0.339  -2.649   1.966  0.00  0.00    +0.028 A 
ATOM     16  H   UNL     1      -0.594  -3.247  -0.510  0.00  0.00    +0.167 HD
BRANCH   8  17
ATOM     17  N   UNL     1      -0.755  -2.050  -2.695  0.00  0.00    -0.316 N 
ATOM     18  C   UNL     1      -0.952  -1.194  -3.873  0.00  0.00    +0.109 C 
ATOM     19  C   UNL     1       0.106  -1.550  -4.923  0.00  0.00    +0.004 C 
ATOM     20  C   UNL     1       0.042  -3.050  -5.218  0.00  0.00    +0.009 C 
ATOM     21  C   UNL     1       0.345  -3.836  -3.940  0.00  0.00    +0.004 C 
ATOM     22  C   UNL     1      -0.704  -3.506  -2.881  0.00  0.00    +0.109 C 
ATOM     23  C   UNL     1       0.314  -5.336  -4.244  0.00  0.00    +0.009 C 
ATOM     24  C   UNL     1      -0.164  -0.764  -6.207  0.00  0.00    +0.009 C 
ENDBRANCH   8  17
ENDBRANCH   1  13
BRANCH   2  25
ATOM     25  C   UNL     1       0.821  -0.437   7.048  0.00  0.00    +0.105 C 
BRANCH  25  26
ATOM     26  C   UNL     1       1.716  -1.372   7.864  0.00  0.00    +0.105 C 
BRANCH  26  27
ATOM     27  C   UNL     1       1.773  -0.894   9.292  0.00  0.00    +0.216 C 
ATOM     28  O   UNL     1       1.158   0.097   9.624  0.00  0.00    -0.276 OA
ATOM     29  N   UNL     1       2.506  -1.568  10.199  0.00  0.00    -0.298 N 
ATOM     30  C   UNL     1       3.261  -2.767   9.809  0.00  0.00    +0.126 C 
ATOM     31  C   UNL     1       4.732  -2.568  10.197  0.00  0.00    +0.124 C 
ATOM     32  N   UNL     1       4.792  -2.117  11.594  0.00  0.00    -0.325 N 
ATOM     33  C   UNL     1       4.037  -0.918  11.984  0.00  0.00    +0.124 C 
ATOM     34  C   UNL     1       2.571  -1.113  11.595  0.00  0.00    +0.126 C 
BRANCH  32  35
ATOM     35  C   UNL     1       5.554  -2.816  12.536  0.00  0.00    +0.065 A 
ATOM     36  C   UNL     1       6.883  -2.476  12.747  0.00  0.00    +0.026 A 
ATOM     37  C   UNL     1       7.633  -3.168  13.678  0.00  0.00    +0.002 A 
ATOM     38  C   UNL     1       7.061  -4.199  14.400  0.00  0.00    +0.003 A 
ATOM     39  C   UNL     1       5.738  -4.542  14.194  0.00  0.00    +0.040 A 
ATOM     40  C   UNL     1       4.979  -3.850  13.268  0.00  0.00    +0.144 A 
ATOM     41  F   UNL     1       3.684  -4.181  13.070  0.00  0.00    -0.204 F 
ENDBRANCH  32  35
ENDBRANCH  26  27
ENDBRANCH  25  26
ENDBRANCH   2  25
TORSDOF 6
