REMARK  Name = ZINC15206503
REMARK  7 active torsions:
REMARK  status: ('A' for Active; 'I' for Inactive)
REMARK    1  A    between atoms: C_12  and  O_13
REMARK    2  A    between atoms: O_13  and  C_14
REMARK    3  A    between atoms: C_16  and  O_29
REMARK    4  A    between atoms: C_18  and  O_28
REMARK    5  A    between atoms: C_20  and  O_27
REMARK    6  A    between atoms: C_22  and  C_25
REMARK    7  A    between atoms: C_25  and  O_26
REMARK                            x       y       z     vdW  Elec       q    Type
REMARK                         _______ _______ _______ _____ _____    ______ ____
ROOT
ATOM      1  C   UNL     1      -0.098   8.283   0.045  0.00  0.00    +0.339 C 
ATOM      2  C   UNL     1       0.998   9.320  -0.209  0.00  0.00    +0.214 C 
ATOM      3  C   UNL     1       2.028   9.252   0.923  0.00  0.00    +0.180 C 
ATOM      4  C   UNL     1       1.315   9.475   2.261  0.00  0.00    +0.177 C 
ATOM      5  C   UNL     1       0.206   8.431   2.420  0.00  0.00    +0.179 C 
ATOM      6  O   UNL     1      -0.699   8.528   1.318  0.00  0.00    -0.331 OA
ENDROOT
BRANCH   4   7
ATOM      7  O   UNL     1       0.744  10.785   2.285  0.00  0.00    -0.386 OA
ATOM      8  H   UNL     1       1.391  11.498   2.189  0.00  0.00    +0.210 HD
ENDBRANCH   4   7
BRANCH   3   9
ATOM      9  O   UNL     1       2.654   7.968   0.924  0.00  0.00    -0.386 OA
ATOM     10  H   UNL     1       3.125   7.760   0.105  0.00  0.00    +0.210 HD
ENDBRANCH   3   9
BRANCH   2  11
ATOM     11  O   UNL     1       1.640   9.042  -1.455  0.00  0.00    -0.383 OA
ATOM     12  H   UNL     1       1.045   9.063  -2.217  0.00  0.00    +0.210 HD
ENDBRANCH   2  11
BRANCH   1  13
ATOM     13  O   UNL     1       0.474   6.973   0.033  0.00  0.00    -0.459 OA
BRANCH  13  25
ATOM     14  C   UNL     1       1.178   3.803   0.011  0.00  0.00    +0.030 A 
ATOM     15  C   UNL     1      -0.034   4.498   0.026  0.00  0.00    +0.043 A 
ATOM     16  C   UNL     1      -1.249   3.789   0.033  0.00  0.00    +0.052 A 
ATOM     17  C   UNL     1      -1.228   2.398   0.021  0.00  0.00    +0.047 A 
ATOM     18  C   UNL     1      -0.021   1.732   0.012  0.00  0.00    +0.057 A 
ATOM     19  C   UNL     1       1.177   2.437   0.004  0.00  0.00    +0.037 A 
ATOM     20 BR   UNL     1       2.818   1.497  -0.017  0.00  0.00    -0.049 Br
ATOM     21 CL   UNL     1       0.002  -0.004   0.002  0.00  0.00    -0.082 Cl
ATOM     22  N   UNL     1      -2.264   4.720   0.048  0.00  0.00    -0.358 N 
ATOM     23  H   UNL     1      -3.211   4.512   0.055  0.00  0.00    +0.165 HD
ATOM     24  C   UNL     1      -1.734   5.989   0.049  0.00  0.00    +0.130 A 
ATOM     25  C   UNL     1      -0.391   5.920   0.036  0.00  0.00    +0.149 A 
ENDBRANCH  13  25
ENDBRANCH   1  13
BRANCH   5  26
ATOM     26  C   UNL     1      -0.550   8.684   3.725  0.00  0.00    +0.190 C 
BRANCH  26  27
ATOM     27  O   UNL     1      -1.507   7.644   3.931  0.00  0.00    -0.392 OA
ATOM     28  H   UNL     1      -2.025   7.740   4.742  0.00  0.00    +0.210 HD
ENDBRANCH  26  27
ENDBRANCH   5  26
TORSDOF 7
