REMARK  Name = ZINC59170645
REMARK  10 active torsions:
REMARK  status: ('A' for Active; 'I' for Inactive)
REMARK    1  A    between atoms: C_1  and  C_2
REMARK    2  A    between atoms: C_2  and  C_3
REMARK    3  A    between atoms: C_8  and  N_9
REMARK    4  A    between atoms: C_10  and  C_12
REMARK    5  A    between atoms: C_18  and  O_33
REMARK    6  A    between atoms: N_22  and  C_23
REMARK    7  A    between atoms: C_26  and  S_29
REMARK    8  A    between atoms: S_29  and  N_32
REMARK    9  A    between atoms: O_33  and  C_34
REMARK   10  A    between atoms: C_34  and  C_35
REMARK                            x       y       z     vdW  Elec       q    Type
REMARK                         _______ _______ _______ _____ _____    ______ ____
ROOT
ATOM      1  C   UNL     1      -1.448  -0.339  -4.807  0.00  0.00    +0.098 A 
ATOM      2  C   UNL     1      -2.141  -0.458  -6.004  0.00  0.00    +0.030 A 
ATOM      3  C   UNL     1      -1.423  -0.114  -7.234  0.00  0.00    +0.022 A 
ATOM      4  C   UNL     1      -2.111   0.051  -8.443  0.00  0.00    +0.012 A 
ATOM      5  C   UNL     1      -1.423   0.377  -9.578  0.00  0.00    +0.004 A 
ATOM      6  C   UNL     1      -0.047   0.546  -9.544  0.00  0.00    +0.049 A 
ATOM      7  C   UNL     1       0.655   0.385  -8.362  0.00  0.00    +0.163 A 
ATOM      8  C   UNL     1      -0.027   0.052  -7.195  0.00  0.00    +0.179 A 
ATOM      9  O   UNL     1       0.641  -0.117  -6.028  0.00  0.00    -0.435 OA
ATOM     10  C   UNL     1      -0.049   0.130  -4.883  0.00  0.00    +0.212 A 
ATOM     11  N   UNL     1       0.510   0.760  -3.873  0.00  0.00    -0.325 N 
ATOM     12  H   UNL     1      -0.027   1.029  -3.111  0.00  0.00    +0.169 HD
ENDROOT
BRANCH  11  13
ATOM     13  C   UNL     1       1.849   1.037  -3.897  0.00  0.00    +0.042 A 
ATOM     14  C   UNL     1       2.761   0.059  -4.302  0.00  0.00    +0.027 A 
ATOM     15  C   UNL     1       4.110   0.346  -4.324  0.00  0.00    +0.030 A 
ATOM     16  C   UNL     1       4.561   1.598  -3.946  0.00  0.00    +0.105 A 
ATOM     17  C   UNL     1       3.664   2.571  -3.543  0.00  0.00    +0.030 A 
ATOM     18  C   UNL     1       2.311   2.301  -3.522  0.00  0.00    +0.027 A 
BRANCH  16  19
ATOM     19  S   UNL     1       6.286   1.954  -3.976  0.00  0.00    +0.056 S 
ATOM     20  O   UNL     1       6.497   3.018  -3.057  0.00  0.00    -0.153 OA
ATOM     21  O   UNL     1       6.960   0.708  -3.867  0.00  0.00    -0.153 OA
BRANCH  19  22
ATOM     22  N   UNL     1       6.636   2.552  -5.480  0.00  0.00    -0.204 NA
ATOM     23  H   UNL     1       7.359   3.190  -5.593  0.00  0.00    +0.144 HD
ATOM     24  H   UNL     1       6.119   2.265  -6.249  0.00  0.00    +0.144 HD
ENDBRANCH  19  22
ENDBRANCH  16  19
ENDBRANCH  11  13
BRANCH   1  26
ATOM     25  N   UNL     1      -1.352  -0.638  -2.384  0.00  0.00    -0.281 N 
ATOM     26  C   UNL     1      -2.082  -0.659  -3.517  0.00  0.00    +0.253 C 
ATOM     27  O   UNL     1      -3.264  -0.943  -3.474  0.00  0.00    -0.270 OA
ATOM     28  H   UNL     1      -0.421  -0.366  -2.411  0.00  0.00    +0.155 HD
BRANCH  25  34
ATOM     29  C   UNL     1      -1.139  -1.414  -0.107  0.00  0.00    -0.026 A 
ATOM     30  C   UNL     1      -1.719  -1.774   1.094  0.00  0.00    +0.005 A 
ATOM     31  C   UNL     1      -3.094  -1.735   1.238  0.00  0.00    +0.000 A 
ATOM     32  C   UNL     1      -3.892  -1.338   0.180  0.00  0.00    +0.002 A 
ATOM     33  C   UNL     1      -3.318  -0.978  -1.023  0.00  0.00    +0.023 A 
ATOM     34  C   UNL     1      -1.937  -1.009  -1.169  0.00  0.00    +0.037 A 
BRANCH  29  36
ATOM     35  C   UNL     1       0.941  -0.070   0.021  0.00  0.00    +0.009 C 
ATOM     36  C   UNL     1       0.360  -1.456  -0.263  0.00  0.00    +0.033 C 
ENDBRANCH  29  36
ENDBRANCH  25  34
ENDBRANCH   1  26
BRANCH   7  37
ATOM     37  O   UNL     1       2.004   0.552  -8.340  0.00  0.00    -0.489 OA
BRANCH  37  38
ATOM     38  C   UNL     1       2.635   0.894  -9.576  0.00  0.00    +0.226 C 
ATOM     39  C   UNL     1       4.143   1.039  -9.355  0.00  0.00    +0.048 C 
ENDBRANCH  37  38
ENDBRANCH   7  37
TORSDOF 8
