REMARK  Name = ZINC37015556
REMARK  10 active torsions:
REMARK  status: ('A' for Active; 'I' for Inactive)
REMARK    1  A    between atoms: C_1  and  C_2
REMARK    2  A    between atoms: C_2  and  C_4
REMARK    3  A    between atoms: C_2  and  N_14
REMARK    4  A    between atoms: C_7  and  S_10
REMARK    5  A    between atoms: S_10  and  N_13
REMARK    6  A    between atoms: C_15  and  C_17
REMARK    7  A    between atoms: C_17  and  C_19
REMARK    8  A    between atoms: C_17  and  N_22
REMARK    9  A    between atoms: C_19  and  C_20
REMARK   10  A    between atoms: C_19  and  C_21
REMARK                            x       y       z     vdW  Elec       q    Type
REMARK                         _______ _______ _______ _____ _____    ______ ____
ROOT
ATOM      1  C   UNL     1      -0.019   1.526   0.010  0.00  0.00    +0.033 C 
ATOM      2  C   UNL     1       0.002  -0.004   0.002  0.00  0.00    +0.100 C 
ENDROOT
BRANCH   2   3
ATOM      3  C   UNL     1       0.707  -0.490  -1.238  0.00  0.00    -0.027 A 
ATOM      4  C   UNL     1       2.089  -0.511  -1.284  0.00  0.00    +0.007 A 
ATOM      5  C   UNL     1       2.736  -0.957  -2.421  0.00  0.00    +0.029 A 
ATOM      6  C   UNL     1       2.002  -1.382  -3.512  0.00  0.00    +0.105 A 
ATOM      7  C   UNL     1       0.620  -1.362  -3.466  0.00  0.00    +0.029 A 
ATOM      8  C   UNL     1      -0.027  -0.920  -2.327  0.00  0.00    +0.007 A 
BRANCH   6   9
ATOM      9  S   UNL     1       2.826  -1.949  -4.962  0.00  0.00    +0.056 S 
ATOM     10  O   UNL     1       1.916  -1.778  -6.040  0.00  0.00    -0.153 OA
ATOM     11  O   UNL     1       4.117  -1.356  -4.954  0.00  0.00    -0.153 OA
BRANCH   9  12
ATOM     12  N   UNL     1       3.054  -3.580  -4.790  0.00  0.00    -0.204 NA
ATOM     13  H   UNL     1       3.075  -4.153  -5.573  0.00  0.00    +0.144 HD
ATOM     14  H   UNL     1       3.167  -3.963  -3.906  0.00  0.00    +0.144 HD
ENDBRANCH   9  12
ENDBRANCH   6   9
ENDBRANCH   2   3
BRANCH   2  15
ATOM     15  N   UNL     1       0.711  -0.489   1.189  0.00  0.00    -0.310 N 
ATOM     16  C   UNL     1       0.051  -0.633   2.355  0.00  0.00    +0.199 C 
ATOM     17  O   UNL     1      -1.129  -0.361   2.423  0.00  0.00    -0.278 OA
ATOM     18  H   UNL     1       1.654  -0.707   1.135  0.00  0.00    +0.149 HD
BRANCH  16  19
ATOM     19  C   UNL     1       0.780  -1.133   3.576  0.00  0.00    +0.015 C 
BRANCH  19  20
ATOM     20  N   UNL     1       0.028  -0.761   4.782  0.00  0.00    +0.386 N 
ATOM     21  H   UNL     1       0.516  -1.095   5.599  0.00  0.00    -0.089 HD
ATOM     22  H   UNL     1      -0.058   0.243   4.829  0.00  0.00    -0.089 HD
ATOM     23  H   UNL     1      -0.891  -1.175   4.746  0.00  0.00    -0.089 HD
ENDBRANCH  19  20
BRANCH  19  24
ATOM     24  C   UNL     1       0.910  -2.655   3.506  0.00  0.00    -0.023 C 
ATOM     25  C   UNL     1       1.694  -3.043   2.250  0.00  0.00    +0.006 C 
ATOM     26  C   UNL     1       1.650  -3.162   4.745  0.00  0.00    +0.006 C 
ENDBRANCH  19  24
ENDBRANCH  16  19
ENDBRANCH   2  15
TORSDOF 7
