REMARK  Name = ZINC20239342
REMARK  9 active torsions:
REMARK  status: ('A' for Active; 'I' for Inactive)
REMARK    1  A    between atoms: C_1  and  C_2
REMARK    2  A    between atoms: C_3  and  S_17
REMARK    3  A    between atoms: C_4  and  C_7
REMARK    4  A    between atoms: C_8  and  C_9
REMARK    5  A    between atoms: C_12  and  O_15
REMARK    6  A    between atoms: O_15  and  C_16
REMARK    7  A    between atoms: S_17  and  N_20
REMARK    8  A    between atoms: C_23  and  C_26
REMARK    9  A    between atoms: N_28  and  C_29
REMARK                            x       y       z     vdW  Elec       q    Type
REMARK                         _______ _______ _______ _____ _____    ______ ____
ROOT
ATOM      1  S   UNL     1       2.636   7.620  -4.239  0.00  0.00    +0.066 S 
ATOM      2  O   UNL     1       3.593   7.598  -5.289  0.00  0.00    -0.153 OA
ATOM      3  O   UNL     1       1.833   8.759  -3.962  0.00  0.00    -0.153 OA
ENDROOT
BRANCH   1   6
ATOM      4  C   UNL     1       1.942   8.352  -0.992  0.00  0.00    +0.071 C 
ATOM      5  C   UNL     1       3.160   7.584  -1.432  0.00  0.00    +0.107 A 
ATOM      6  C   UNL     1       3.509   7.247  -2.754  0.00  0.00    +0.174 A 
ATOM      7  C   UNL     1       4.702   6.558  -2.614  0.00  0.00    +0.187 A 
ATOM      8  O   UNL     1       4.958   6.533  -1.291  0.00  0.00    -0.353 OA
ATOM      9  N   UNL     1       4.095   7.099  -0.663  0.00  0.00    -0.081 NA
BRANCH   7  10
ATOM     10  C   UNL     1       5.518   5.977  -3.683  0.00  0.00    +0.051 C 
ATOM     11  C   UNL     1       6.725   5.451  -3.399  0.00  0.00    +0.011 C 
BRANCH  11  12
ATOM     12  C   UNL     1       7.318   5.646  -2.066  0.00  0.00    -0.025 A 
ATOM     13  C   UNL     1       7.250   6.898  -1.445  0.00  0.00    +0.011 A 
ATOM     14  C   UNL     1       7.801   7.074  -0.195  0.00  0.00    +0.046 A 
ATOM     15  C   UNL     1       8.434   6.015   0.444  0.00  0.00    +0.120 A 
ATOM     16  C   UNL     1       8.510   4.772  -0.172  0.00  0.00    +0.046 A 
ATOM     17  C   UNL     1       7.956   4.583  -1.419  0.00  0.00    +0.011 A 
BRANCH  15  18
ATOM     18  O   UNL     1       8.981   6.195   1.674  0.00  0.00    -0.495 OA
ATOM     19  C   UNL     1       8.867   7.498   2.249  0.00  0.00    +0.277 C 
ENDBRANCH  15  18
ENDBRANCH  11  12
ENDBRANCH   7  10
ENDBRANCH   1   6
BRANCH   1  20
ATOM     20  N   UNL     1       1.594   6.364  -4.522  0.00  0.00    -0.176 NA
ATOM     21  C   UNL     1       0.230   6.386  -3.978  0.00  0.00    +0.110 C 
ATOM     22  C   UNL     1      -0.006   5.094  -3.188  0.00  0.00    +0.030 C 
ATOM     23  C   UNL     1       0.293   3.891  -4.084  0.00  0.00    +0.077 C 
ATOM     24  C   UNL     1       1.760   3.930  -4.520  0.00  0.00    +0.030 C 
ATOM     25  C   UNL     1       2.016   5.208  -5.325  0.00  0.00    +0.110 C 
BRANCH  23  26
ATOM     26  C   UNL     1       0.030   2.618  -3.321  0.00  0.00    +0.216 C 
ATOM     27  O   UNL     1      -0.360   2.669  -2.174  0.00  0.00    -0.276 OA
ATOM     28  N   UNL     1       0.226   1.424  -3.914  0.00  0.00    -0.312 N 
ATOM     29  H   UNL     1       0.579   1.378  -4.955  0.00  0.00    +0.149 HD
BRANCH  28  30
ATOM     30  C   UNL     1      -0.030   0.187  -3.173  0.00  0.00    +0.073 C 
ATOM     31  C   UNL     1       0.810  -0.946  -3.765  0.00  0.00    +0.022 C 
ATOM     32  C   UNL     1       1.617  -1.619  -2.652  0.00  0.00    +0.002 C 
ATOM     33  C   UNL     1       0.722  -1.831  -1.430  0.00  0.00    +0.000 C 
ATOM     34  C   UNL     1      -0.217  -3.012  -1.684  0.00  0.00    +0.000 C 
ATOM     35  C   UNL     1      -1.338  -2.578  -2.630  0.00  0.00    +0.000 C 
ATOM     36  C   UNL     1      -1.863  -1.206  -2.204  0.00  0.00    +0.002 C 
ATOM     37  C   UNL     1      -1.514  -0.171  -3.275  0.00  0.00    +0.022 C 
ENDBRANCH  28  30
ENDBRANCH  23  26
ENDBRANCH   1  20
TORSDOF 7
