REMARK  Name = ZINC09523889
REMARK  8 active torsions:
REMARK  status: ('A' for Active; 'I' for Inactive)
REMARK    1  A    between atoms: C_1  and  C_2
REMARK    2  A    between atoms: N_11  and  C_12
REMARK    3  A    between atoms: C_12  and  C_13
REMARK    4  A    between atoms: C_13  and  C_14
REMARK    5  A    between atoms: C_14  and  N_59
REMARK    6  A    between atoms: C_20  and  C_22
REMARK    7  A    between atoms: C_23  and  C_24
REMARK    8  A    between atoms: C_28  and  N_30
REMARK                            x       y       z     vdW  Elec       q    Type
REMARK                         _______ _______ _______ _____ _____    ______ ____
ROOT
ATOM      1  C   UNL     1      -4.247   3.103   0.556  0.00  0.00    +0.046 C 
ATOM      2  C   UNL     1      -5.349   4.125   0.446  0.00  0.00    -0.024 A 
ATOM      3  C   UNL     1      -6.656   3.713   0.426  0.00  0.00    +0.007 A 
ATOM      4  C   UNL     1      -7.701   4.620   0.326  0.00  0.00    +0.021 A 
ATOM      5  C   UNL     1      -7.418   5.973   0.243  0.00  0.00    +0.057 A 
ATOM      6  C   UNL     1      -6.112   6.394   0.262  0.00  0.00    +0.059 A 
ATOM      7  C   UNL     1      -5.023   5.498   0.363  0.00  0.00    +0.085 A 
ATOM      8  N   UNL     1      -3.797   6.065   0.364  0.00  0.00    -0.224 NA
ATOM      9  C   UNL     1      -3.620   7.364   0.287  0.00  0.00    +0.168 A 
ATOM     10  S   UNL     1      -5.298   7.971   0.183  0.00  0.00    -0.050 S 
ATOM     11  N   UNL     1      -2.436   8.080   0.280  0.00  0.00    -0.247 N 
ATOM     12  C   UNL     1      -1.255   7.430   0.265  0.00  0.00    +0.245 C 
ATOM     13  O   UNL     1      -1.228   6.216   0.352  0.00  0.00    -0.270 OA
ATOM     14 CL   UNL     1      -8.707   7.128   0.116  0.00  0.00    -0.082 Cl
ENDROOT
BRANCH  12  15
ATOM     15  C   UNL     1      -0.007   8.183   0.144  0.00  0.00    +0.068 C 
ATOM     16  C   UNL     1       1.167   7.529   0.028  0.00  0.00    +0.013 C 
BRANCH  16  17
ATOM     17  C   UNL     1       2.432   8.282   0.018  0.00  0.00    -0.023 A 
ATOM     18  C   UNL     1       2.417   9.681   0.021  0.00  0.00    +0.008 A 
ATOM     19  C   UNL     1       3.605  10.379   0.016  0.00  0.00    +0.003 A 
ATOM     20  C   UNL     1       4.811   9.700  -0.004  0.00  0.00    +0.033 A 
ATOM     21  C   UNL     1       4.834   8.316  -0.006  0.00  0.00    +0.127 A 
ATOM     22  C   UNL     1       3.654   7.603   0.004  0.00  0.00    +0.040 A 
BRANCH  21  23
ATOM     23  N   UNL     1       6.129   7.599  -0.021  0.00  0.00    +0.056 N 
ATOM     24  O   UNL     1       7.173   8.227  -0.031  0.00  0.00    -0.126 OA
ATOM     25  O   UNL     1       6.151   6.382  -0.024  0.00  0.00    -0.126 OA
ENDBRANCH  21  23
ENDBRANCH  16  17
ENDBRANCH  12  15
BRANCH  11  26
ATOM     26  C   UNL     1      -2.465   9.545   0.290  0.00  0.00    +0.114 C 
BRANCH  26  27
ATOM     27  C   UNL     1      -2.489  10.063  -1.149  0.00  0.00    +0.001 C 
BRANCH  27  28
ATOM     28  C   UNL     1      -2.520  11.593  -1.140  0.00  0.00    -0.077 C 
BRANCH  28  34
ATOM     29  C   UNL     1      -1.285  11.778  -3.215  0.00  0.00    -0.050 C 
ATOM     30  C   UNL     1      -1.374  12.260  -4.665  0.00  0.00    +0.141 C 
ATOM     31  O   UNL     1      -1.666  13.660  -4.679  0.00  0.00    -0.383 OA
ATOM     32  C   UNL     1      -2.884  14.001  -4.013  0.00  0.00    +0.141 C 
ATOM     33  C   UNL     1      -2.810  13.536  -2.556  0.00  0.00    -0.050 C 
ATOM     34  N   UNL     1      -2.562  12.080  -2.536  0.00  0.00    +0.383 N 
ATOM     35  H   UNL     1      -3.325  11.604  -3.032  0.00  0.00    -0.082 HD
ENDBRANCH  28  34
ENDBRANCH  27  28
ENDBRANCH  26  27
ENDBRANCH  11  26
TORSDOF 7
