REMARK  Name = ZINC24900144
REMARK  4 active torsions:
REMARK  status: ('A' for Active; 'I' for Inactive)
REMARK    1  A    between atoms: C_4  and  N_9
REMARK    2  A    between atoms: C_5  and  C_7
REMARK    3  A    between atoms: C_13  and  C_15
REMARK    4  A    between atoms: C_15  and  N_16
REMARK                            x       y       z     vdW  Elec       q    Type
REMARK                         _______ _______ _______ _____ _____    ______ ____
ROOT
ATOM      1  N   UNL     1       2.415   1.461   0.070  0.00  0.00    -0.268 N 
ATOM      2  C   UNL     1       3.564   2.158  -0.028  0.00  0.00    +0.310 C 
ATOM      3  O   UNL     1       3.546   3.372   0.032  0.00  0.00    -0.252 OA
ATOM      4  N   UNL     1       4.734   1.509  -0.194  0.00  0.00    -0.241 N 
ATOM      5  C   UNL     1       5.883   2.205  -0.292  0.00  0.00    +0.204 C 
ATOM      6  O   UNL     1       5.865   3.416  -0.232  0.00  0.00    -0.277 OA
ATOM      7  H   UNL     1       2.440   0.362   0.107  0.00  0.00    +0.156 HD
ATOM      8  H   UNL     1       4.750   0.410  -0.248  0.00  0.00    +0.159 HD
ENDROOT
BRANCH   1  12
ATOM      9  C   UNL     1      -1.235   3.474   0.231  0.00  0.00    +0.001 A 
ATOM     10  C   UNL     1      -0.133   4.072  -0.357  0.00  0.00    +0.002 A 
ATOM     11  C   UNL     1       1.077   3.408  -0.411  0.00  0.00    +0.024 A 
ATOM     12  C   UNL     1       1.195   2.133   0.124  0.00  0.00    +0.052 A 
ATOM     13  C   UNL     1       0.081   1.524   0.721  0.00  0.00    +0.073 A 
ATOM     14  C   UNL     1      -1.138   2.206   0.764  0.00  0.00    +0.021 A 
BRANCH  13  15
ATOM     15  C   UNL     1       0.190   0.209   1.276  0.00  0.00    +0.101 C 
ATOM     16  N   UNL     1       0.277  -0.834   1.718  0.00  0.00    -0.191 NA
ENDBRANCH  13  15
ENDBRANCH   1  12
BRANCH   5  17
ATOM     17  C   UNL     1       7.191   1.480  -0.477  0.00  0.00    +0.019 C 
BRANCH  17  18
ATOM     18  N   UNL     1       8.296   2.448  -0.459  0.00  0.00    +0.388 N 
ATOM     19  C   UNL     1       8.243   3.328  -1.635  0.00  0.00    -0.073 C 
ATOM     20  C   UNL     1       9.134   4.555  -1.376  0.00  0.00    +0.024 C 
ATOM     21  C   UNL     1      10.434   4.066  -0.828  0.00  0.00    -0.011 A 
ATOM     22  C   UNL     1      10.697   2.818  -0.348  0.00  0.00    -0.054 A 
ATOM     23  C   UNL     1      11.991   2.588   0.112  0.00  0.00    +0.009 A 
ATOM     24  C   UNL     1      12.911   3.580   0.069  0.00  0.00    +0.045 A 
ATOM     25  S   UNL     1      11.972   4.923  -0.643  0.00  0.00    -0.101 S 
ATOM     26  C   UNL     1       9.591   1.767  -0.337  0.00  0.00    -0.042 C 
ATOM     27  H   UNL     1       8.181   3.086   0.429  0.00  0.00    -0.081 HD
ENDBRANCH  17  18
ENDBRANCH   5  17
TORSDOF 4
