REMARK  Name = ZINC65406000
REMARK  3 active torsions:
REMARK  status: ('A' for Active; 'I' for Inactive)
REMARK    1  A    between atoms: C_5  and  N_10
REMARK    2  A    between atoms: C_6  and  C_7
REMARK    3  A    between atoms: C_19  and  C_21
REMARK                            x       y       z     vdW  Elec       q    Type
REMARK                         _______ _______ _______ _____ _____    ______ ____
ROOT
ATOM      1  C   UNL     1      -0.059   1.416   0.015  0.00  0.00    +0.021 A 
ATOM      2  C   UNL     1       1.125   2.096   0.001  0.00  0.00    -0.017 A 
ATOM      3  C   UNL     1       2.335   1.404  -0.024  0.00  0.00    +0.039 A 
ATOM      4  C   UNL     1       2.345   0.016  -0.033  0.00  0.00    +0.047 A 
ATOM      5  C   UNL     1       1.149  -0.685  -0.019  0.00  0.00    +0.044 A 
ATOM      6  C   UNL     1      -0.067   0.018   0.006  0.00  0.00    +0.058 A 
ATOM      7  N   UNL     1       3.538   2.109  -0.038  0.00  0.00    -0.285 N 
ATOM      8  C   UNL     1       3.579   3.399   0.339  0.00  0.00    +0.218 C 
ATOM      9  O   UNL     1       4.633   3.999   0.308  0.00  0.00    -0.275 OA
ATOM     10  C   UNL     1       2.334   4.107   0.801  0.00  0.00    +0.109 C 
ATOM     11  C   UNL     1       1.126   3.604   0.011  0.00  0.00    +0.060 C 
ATOM     12  H   UNL     1       4.352   1.665  -0.324  0.00  0.00    +0.155 HD
ENDROOT
BRANCH  11  13
ATOM     13  C   UNL     1       1.204   4.115  -1.405  0.00  0.00    -0.034 C 
ATOM     14  C   UNL     1       1.581   3.321  -2.452  0.00  0.00    +0.004 C 
ATOM     15  C   UNL     1       1.695   3.886  -3.793  0.00  0.00    -0.002 C 
ATOM     16  C   UNL     1       1.158   5.063  -4.135  0.00  0.00    +0.004 C 
ATOM     17  C   UNL     1       0.359   5.819  -3.117  0.00  0.00    +0.158 C 
ATOM     18  C   UNL     1       0.887   5.443  -1.745  0.00  0.00    -0.014 C 
ATOM     19  C   UNL     1       0.986   6.606  -1.081  0.00  0.00    +0.025 C 
ATOM     20  C   UNL     1       0.810   7.677  -1.986  0.00  0.00    +0.106 C 
ATOM     21  N   UNL     1       0.490   7.268  -3.176  0.00  0.00    -0.279 NA
ENDBRANCH  11  13
BRANCH   6  22
ATOM     22  C   UNL     1      -1.344  -0.714   0.022  0.00  0.00    +0.243 C 
ATOM     23  O   UNL     1      -1.348  -1.930   0.014  0.00  0.00    -0.270 OA
ATOM     24  N   UNL     1      -2.509  -0.036   0.045  0.00  0.00    -0.325 N 
ATOM     25  H   UNL     1      -2.506   0.934   0.052  0.00  0.00    +0.145 HD
ATOM     26  H   UNL     1      -3.351  -0.519   0.056  0.00  0.00    +0.145 HD
ENDBRANCH   6  22
BRANCH   5  27
ATOM     27  N   UNL     1       1.153  -2.074  -0.028  0.00  0.00    -0.329 N 
ATOM     28  C   UNL     1       1.143  -2.923  -1.228  0.00  0.00    +0.105 C 
ATOM     29  C   UNL     1       1.127  -4.391  -0.752  0.00  0.00    +0.020 C 
ATOM     30  C   UNL     1       0.557  -4.282   0.687  0.00  0.00    +0.020 C 
ATOM     31  C   UNL     1       1.175  -2.941   1.164  0.00  0.00    +0.105 C 
ENDBRANCH   5  27
TORSDOF 3
