REMARK  Name = ZINC41584640
REMARK  5 active torsions:
REMARK  status: ('A' for Active; 'I' for Inactive)
REMARK    1  A    between atoms: C_3  and  C_7
REMARK    2  A    between atoms: N_13  and  C_14
REMARK    3  A    between atoms: C_14  and  C_15
REMARK    4  A    between atoms: C_16  and  O_33
REMARK    5  A    between atoms: C_23  and  C_24
REMARK                            x       y       z     vdW  Elec       q    Type
REMARK                         _______ _______ _______ _____ _____    ______ ____
ROOT
ATOM      1  C   UNL     1       5.345   0.324   2.699  0.00  0.00    +0.020 A 
ATOM      2  C   UNL     1       5.104  -1.034   2.830  0.00  0.00    +0.122 A 
ATOM      3  C   UNL     1       5.716  -1.767   3.843  0.00  0.00    +0.046 A 
ATOM      4  C   UNL     1       6.563  -1.151   4.720  0.00  0.00    +0.019 A 
ATOM      5  C   UNL     1       6.815   0.216   4.600  0.00  0.00    +0.068 A 
ATOM      6  C   UNL     1       6.208   0.965   3.578  0.00  0.00    +0.144 A 
ATOM      7  O   UNL     1       6.607   2.253   3.659  0.00  0.00    -0.451 OA
ATOM      8  C   UNL     1       7.470   2.450   4.683  0.00  0.00    +0.176 C 
ATOM      9  C   UNL     1       8.048   3.627   5.028  0.00  0.00    +0.058 C 
ATOM     10  C   UNL     1       7.654   1.158   5.362  0.00  0.00    +0.231 C 
ATOM     11  O   UNL     1       8.355   0.917   6.330  0.00  0.00    -0.283 OA
ENDROOT
BRANCH   9  12
ATOM     12  C   UNL     1       7.648   4.869   4.351  0.00  0.00    -0.021 A 
ATOM     13  C   UNL     1       6.557   4.872   3.474  0.00  0.00    +0.009 A 
ATOM     14  C   UNL     1       6.189   6.040   2.843  0.00  0.00    +0.016 A 
ATOM     15  C   UNL     1       6.895   7.210   3.075  0.00  0.00    +0.018 A 
ATOM     16  C   UNL     1       7.976   7.214   3.941  0.00  0.00    +0.016 A 
ATOM     17  C   UNL     1       8.353   6.055   4.584  0.00  0.00    +0.009 A 
ATOM     18 BR   UNL     1       6.381   8.807   2.203  0.00  0.00    -0.050 Br
ENDBRANCH   9  12
BRANCH   2  19
ATOM     19  O   UNL     1       4.263  -1.656   1.965  0.00  0.00    -0.506 OA
ATOM     20  H   UNL     1       4.699  -2.009   1.177  0.00  0.00    +0.292 HD
ENDBRANCH   2  19
BRANCH   1  21
ATOM     21  C   UNL     1       4.675   1.105   1.597  0.00  0.00    -0.035 C 
BRANCH  21  27
ATOM     22  C   UNL     1       4.815   1.739  -0.710  0.00  0.00    -0.036 C 
ATOM     23  C   UNL     1       5.658   1.646  -1.984  0.00  0.00    -0.011 C 
ATOM     24  C   UNL     1       7.004   2.340  -1.750  0.00  0.00    -0.003 C 
ATOM     25  C   UNL     1       7.697   1.695  -0.547  0.00  0.00    -0.019 C 
ATOM     26  C   UNL     1       6.779   1.786   0.673  0.00  0.00    -0.078 C 
ATOM     27  N   UNL     1       5.521   1.082   0.397  0.00  0.00    +0.387 N 
ATOM     28  H   UNL     1       5.720   0.125   0.146  0.00  0.00    -0.080 HD
BRANCH  22  31
ATOM     29  C   UNL     1       1.160   1.135  -1.423  0.00  0.00    +0.020 A 
ATOM     30  C   UNL     1       2.358   1.804  -1.224  0.00  0.00    +0.005 A 
ATOM     31  C   UNL     1       3.490   1.058  -0.935  0.00  0.00    -0.043 A 
ATOM     32  C   UNL     1       3.388  -0.318  -0.855  0.00  0.00    +0.112 A 
ATOM     33  N   UNL     1       2.231  -0.921  -1.052  0.00  0.00    -0.263 NA
ATOM     34  C   UNL     1       1.134  -0.243  -1.328  0.00  0.00    +0.111 A 
ENDBRANCH  22  31
ENDBRANCH  21  27
ENDBRANCH   1  21
TORSDOF 5
