REMARK  Name = ZINC36977219
REMARK  4 active torsions:
REMARK  status: ('A' for Active; 'I' for Inactive)
REMARK    1  A    between atoms: C_1  and  C_2
REMARK    2  A    between atoms: C_2  and  C_4
REMARK    3  A    between atoms: C_2  and  N_13
REMARK    4  A    between atoms: N_13  and  C_14
REMARK                            x       y       z     vdW  Elec       q    Type
REMARK                         _______ _______ _______ _____ _____    ______ ____
ROOT
ATOM      1  N   UNL     1       0.881  -0.440   1.098  0.00  0.00    +0.391 N 
ATOM      2  H   UNL     1       0.619  -0.389   2.071  0.00  0.00    -0.084 HD
ATOM      3  H   UNL     1       0.891  -1.404   0.802  0.00  0.00    -0.084 HD
ENDROOT
BRANCH   1   4
ATOM      4  C   UNL     1       2.220   0.140   0.922  0.00  0.00    +0.017 C 
ATOM      5  C   UNL     1       2.916  -0.526  -0.267  0.00  0.00    -0.007 C 
ATOM      6  C   UNL     1       2.531  -1.991  -0.364  0.00  0.00    +0.000 C 
ATOM      7  C   UNL     1       3.042  -2.837   0.787  0.00  0.00    +0.019 C 
ATOM      8  C   UNL     1       2.359  -2.443   2.098  0.00  0.00    +0.104 C 
ATOM      9  N   UNL     1       3.105  -1.327   2.702  0.00  0.00    -0.317 N 
ATOM     10  C   UNL     1       3.047  -0.104   2.166  0.00  0.00    +0.199 C 
ATOM     11  O   UNL     1       3.662   0.812   2.672  0.00  0.00    -0.278 OA
ATOM     12  H   UNL     1       3.642  -1.480   3.495  0.00  0.00    +0.149 HD
ENDBRANCH   1   4
BRANCH   1  14
ATOM     13  C   UNL     1      -0.250   1.720   0.866  0.00  0.00    -0.009 C 
ATOM     14  C   UNL     1      -0.088   0.312   0.289  0.00  0.00    -0.040 C 
BRANCH  14  15
ATOM     15  C   UNL     1      -1.418  -0.397   0.313  0.00  0.00    -0.022 A 
ATOM     16  C   UNL     1      -1.981  -0.772   1.520  0.00  0.00    +0.044 A 
ATOM     17  C   UNL     1      -3.201  -1.423   1.542  0.00  0.00    +0.023 A 
ATOM     18  C   UNL     1      -3.860  -1.698   0.358  0.00  0.00    +0.041 A 
ATOM     19  C   UNL     1      -3.299  -1.322  -0.850  0.00  0.00    +0.142 A 
ATOM     20  C   UNL     1      -2.078  -0.666  -0.872  0.00  0.00    +0.079 A 
ATOM     21 CL   UNL     1      -1.375  -0.189  -2.386  0.00  0.00    -0.080 Cl
ATOM     22  F   UNL     1      -3.942  -1.591  -2.007  0.00  0.00    -0.204 F 
ATOM     23 CL   UNL     1      -1.154  -0.427   3.007  0.00  0.00    -0.083 Cl
ENDBRANCH  14  15
ENDBRANCH   1  14
TORSDOF 3
