REMARK  Name = ZINC63209076
REMARK  12 active torsions:
REMARK  status: ('A' for Active; 'I' for Inactive)
REMARK    1  A    between atoms: C_1  and  C_2
REMARK    2  A    between atoms: C_3  and  C_33
REMARK    3  A    between atoms: C_4  and  C_32
REMARK    4  A    between atoms: C_7  and  C_8
REMARK    5  A    between atoms: N_10  and  C_11
REMARK    6  A    between atoms: C_11  and  C_12
REMARK    7  A    between atoms: C_12  and  C_14
REMARK    8  A    between atoms: C_12  and  C_23
REMARK    9  A    between atoms: C_17  and  N_20
REMARK   10  A    between atoms: N_20  and  C_21
REMARK   11  A    between atoms: N_20  and  C_22
REMARK   12  A    between atoms: C_33  and  C_35
REMARK                            x       y       z     vdW  Elec       q    Type
REMARK                         _______ _______ _______ _____ _____    ______ ____
ROOT
ATOM      1  C   UNL     1       0.072  -2.124   5.776  0.00  0.00    +0.064 C 
ENDROOT
BRANCH   1   2
ATOM      2  C   UNL     1       1.369  -2.864   5.574  0.00  0.00    -0.033 C 
ATOM      3  C   UNL     1       1.520  -4.138   5.146  0.00  0.00    -0.000 A 
ATOM      4  C   UNL     1       0.559  -5.177   4.756  0.00  0.00    +0.010 A 
ATOM      5  C   UNL     1       1.022  -6.385   4.363  0.00  0.00    +0.001 A 
ATOM      6  C   UNL     1       2.393  -6.670   4.319  0.00  0.00    +0.002 A 
ATOM      7  C   UNL     1       3.337  -5.768   4.662  0.00  0.00    +0.026 A 
ATOM      8  C   UNL     1       2.963  -4.464   5.090  0.00  0.00    +0.043 A 
ATOM      9  N   UNL     1       3.676  -3.432   5.469  0.00  0.00    -0.380 N 
ATOM     10  C   UNL     1       2.765  -2.331   5.803  0.00  0.00    +0.145 C 
ATOM     11  H   UNL     1       4.644  -3.399   5.517  0.00  0.00    +0.160 HD
ENDBRANCH   1   2
BRANCH   1  12
ATOM     12  C   UNL     1      -0.042  -1.693   7.216  0.00  0.00    -0.039 A 
ATOM     13  C   UNL     1       0.909  -0.848   7.760  0.00  0.00    +0.006 A 
ATOM     14  C   UNL     1       0.808  -0.451   9.079  0.00  0.00    +0.023 A 
ATOM     15  C   UNL     1      -0.249  -0.901   9.859  0.00  0.00    +0.029 A 
ATOM     16  C   UNL     1      -1.202  -1.749   9.309  0.00  0.00    +0.023 A 
ATOM     17  C   UNL     1      -1.099  -2.138   7.988  0.00  0.00    +0.006 A 
BRANCH  15  18
ATOM     18  N   UNL     1      -0.354  -0.501  11.193  0.00  0.00    -0.336 N 
ATOM     19  C   UNL     1       0.585   0.482  11.739  0.00  0.00    +0.129 C 
ATOM     20  C   UNL     1      -1.403  -1.065  12.046  0.00  0.00    +0.129 C 
ENDBRANCH  15  18
ENDBRANCH   1  12
BRANCH   1  21
ATOM     21  C   UNL     1       0.042  -0.891   4.870  0.00  0.00    +0.117 C 
BRANCH  21  24
ATOM     22  C   UNL     1       0.005  -0.394   2.486  0.00  0.00    +0.261 C 
ATOM     23  O   UNL     1      -0.010   0.791   2.763  0.00  0.00    -0.269 OA
ATOM     24  N   UNL     1       0.032  -1.316   3.468  0.00  0.00    -0.309 N 
ATOM     25  H   UNL     1       0.043  -2.260   3.247  0.00  0.00    +0.149 HD
BRANCH  22  32
ATOM     26  C   UNL     1      -0.054   1.514   0.020  0.00  0.00    +0.047 C 
ATOM     27  C   UNL     1      -0.031   0.008  -0.003  0.00  0.00    -0.010 A 
ATOM     28  C   UNL     1      -0.026  -0.817  -1.153  0.00  0.00    +0.041 A 
ATOM     29  C   UNL     1      -0.002  -2.130  -0.709  0.00  0.00    +0.024 A 
ATOM     30  N   UNL     1       0.006  -2.123   0.632  0.00  0.00    -0.354 N 
ATOM     31  H   UNL     1       0.023  -2.910   1.198  0.00  0.00    +0.166 HD
ATOM     32  C   UNL     1      -0.005  -0.819   1.080  0.00  0.00    +0.106 A 
ATOM     33  C   UNL     1       0.011  -3.357  -1.584  0.00  0.00    +0.064 C 
BRANCH  28  34
ATOM     34  C   UNL     1      -0.042  -0.368  -2.549  0.00  0.00    +0.162 C 
ATOM     35  O   UNL     1      -1.095  -0.285  -3.147  0.00  0.00    -0.292 OA
ATOM     36  C   UNL     1       1.248  -0.011  -3.240  0.00  0.00    +0.091 C 
ENDBRANCH  28  34
ENDBRANCH  22  32
ENDBRANCH  21  24
ENDBRANCH   1  21
TORSDOF 7
