REMARK  Name = ZINC04349862
REMARK  11 active torsions:
REMARK  status: ('A' for Active; 'I' for Inactive)
REMARK    1  A    between atoms: C_1  and  C_2
REMARK    2  A    between atoms: C_2  and  O_4
REMARK    3  A    between atoms: O_4  and  C_5
REMARK    4  A    between atoms: C_10  and  C_31
REMARK    5  A    between atoms: C_10  and  C_32
REMARK    6  A    between atoms: C_14  and  O_30
REMARK    7  A    between atoms: C_15  and  C_29
REMARK    8  A    between atoms: C_16  and  O_28
REMARK    9  A    between atoms: C_20  and  C_26
REMARK   10  A    between atoms: C_20  and  C_27
REMARK   11  A    between atoms: C_23  and  O_25
REMARK                            x       y       z     vdW  Elec       q    Type
REMARK                         _______ _______ _______ _____ _____    ______ ____
ROOT
ATOM      1  C   UNL     1      -0.498   3.355  -0.638  0.00  0.00    +0.211 C 
ATOM      2  C   UNL     1      -1.661   3.438   0.332  0.00  0.00    +0.073 C 
ATOM      3  C   UNL     1      -1.421   2.603   1.576  0.00  0.00    +0.021 C 
ATOM      4  C   UNL     1      -1.700   1.120   1.527  0.00  0.00    -0.007 C 
ATOM      5  C   UNL     1      -2.744   0.650   0.527  0.00  0.00    +0.088 C 
ATOM      6  C   UNL     1      -2.802   1.558  -0.682  0.00  0.00    +0.166 C 
ATOM      7  O   UNL     1      -2.708   1.108  -1.792  0.00  0.00    -0.294 OA
ATOM      8  C   UNL     1      -2.947   3.030  -0.375  0.00  0.00    +0.138 C 
ATOM      9  C   UNL     1      -3.220   3.867  -1.620  0.00  0.00    +0.036 C 
ATOM     10  C   UNL     1      -3.649   5.274  -1.196  0.00  0.00    +0.124 C 
ATOM     11  C   UNL     1      -4.032   6.096  -2.428  0.00  0.00    +0.032 C 
ATOM     12  C   UNL     1      -2.803   6.226  -3.320  0.00  0.00    +0.009 C 
ATOM     13  C   UNL     1      -2.282   4.860  -3.761  0.00  0.00    -0.029 C 
ATOM     14  C   UNL     1      -2.051   3.907  -2.593  0.00  0.00    +0.038 C 
ATOM     15  C   UNL     1      -0.729   4.204  -1.893  0.00  0.00    +0.160 C 
ATOM     16  C   UNL     1      -0.980   5.130  -4.544  0.00  0.00    +0.011 C 
ATOM     17  C   UNL     1      -3.243   4.259  -4.800  0.00  0.00    +0.011 C 
ATOM     18  C   UNL     1      -4.459   3.207  -2.269  0.00  0.00    +0.017 C 
ATOM     19  C   UNL     1      -0.392   0.343   1.300  0.00  0.00    +0.016 C 
ENDROOT
BRANCH  15  20
ATOM     20  O   UNL     1       0.386   3.855  -2.741  0.00  0.00    -0.388 OA
ATOM     21  H   UNL     1       1.250   4.050  -2.354  0.00  0.00    +0.210 HD
ENDBRANCH  15  20
BRANCH  10  22
ATOM     22  O   UNL     1      -2.597   5.953  -0.512  0.00  0.00    -0.391 OA
ATOM     23  H   UNL     1      -2.827   6.847  -0.226  0.00  0.00    +0.210 HD
ENDBRANCH  10  22
BRANCH   8  24
ATOM     24  O   UNL     1      -4.047   3.192   0.534  0.00  0.00    -0.380 OA
ATOM     25  H   UNL     1      -3.974   2.659   1.337  0.00  0.00    +0.211 HD
ENDBRANCH   8  24
BRANCH   4  26
ATOM     26  C   UNL     1      -2.199   0.708   2.913  0.00  0.00    -0.028 C 
ATOM     27  C   UNL     1      -1.608  -0.265   3.560  0.00  0.00    +0.004 C 
ENDBRANCH   4  26
BRANCH   1  28
ATOM     28  O   UNL     1      -0.240   1.989  -1.054  0.00  0.00    -0.459 OA
BRANCH  28  30
ATOM     29  C   UNL     1       1.372   0.277  -1.806  0.00  0.00    +0.136 C 
ATOM     30  C   UNL     1       1.028   1.676  -1.365  0.00  0.00    +0.304 C 
ATOM     31  O   UNL     1       1.892   2.518  -1.297  0.00  0.00    -0.251 OA
ENDBRANCH  28  30
ENDBRANCH   1  28
TORSDOF 6
