REMARK  Name = ZINC15015769
REMARK  10 active torsions:
REMARK  status: ('A' for Active; 'I' for Inactive)
REMARK    1  A    between atoms: C_1  and  C_2
REMARK    2  A    between atoms: C_2  and  C_3
REMARK    3  A    between atoms: C_3  and  C_4
REMARK    4  A    between atoms: C_4  and  S_5
REMARK    5  A    between atoms: S_5  and  C_6
REMARK    6  A    between atoms: C_19  and  C_22
REMARK    7  A    between atoms: C_25  and  O_31
REMARK    8  A    between atoms: C_26  and  O_28
REMARK    9  A    between atoms: O_28  and  C_29
REMARK   10  A    between atoms: C_29  and  C_30
REMARK                            x       y       z     vdW  Elec       q    Type
REMARK                         _______ _______ _______ _____ _____    ______ ____
ROOT
ATOM      1  C   UNL     1      -0.880   1.673   6.497  0.00  0.00    +0.212 A 
ATOM      2  N   UNL     1      -0.572   1.450   7.771  0.00  0.00    -0.184 NA
ATOM      3  C   UNL     1      -1.315   1.991   8.720  0.00  0.00    +0.248 A 
ATOM      4  C   UNL     1      -2.420   2.788   8.346  0.00  0.00    +0.156 A 
ATOM      5  N   UNL     1      -2.677   2.965   7.059  0.00  0.00    -0.141 NA
ATOM      6  N   UNL     1      -1.926   2.421   6.166  0.00  0.00    -0.122 NA
ATOM      7  C   UNL     1      -3.261   3.408   9.392  0.00  0.00    +0.029 A 
ATOM      8  C   UNL     1      -4.647   3.331   9.351  0.00  0.00    +0.027 A 
ATOM      9  C   UNL     1      -5.398   3.936  10.341  0.00  0.00    +0.019 A 
ATOM     10  C   UNL     1      -4.776   4.619  11.373  0.00  0.00    +0.017 A 
ATOM     11  C   UNL     1      -3.397   4.698  11.429  0.00  0.00    +0.025 A 
ATOM     12  C   UNL     1      -2.632   4.092  10.449  0.00  0.00    +0.040 A 
ATOM     13  N   UNL     1      -1.234   4.122  10.493  0.00  0.00    -0.305 N 
ATOM     14  C   UNL     1      -0.513   2.884  10.768  0.00  0.00    +0.294 C 
ATOM     15  O   UNL     1      -1.044   1.788  10.032  0.00  0.00    -0.449 OA
ATOM     16 BR   UNL     1      -7.285   3.830  10.288  0.00  0.00    -0.050 Br
ATOM     17  H   UNL     1      -0.753   4.951  10.344  0.00  0.00    +0.150 HD
ENDROOT
BRANCH  14  18
ATOM     18  C   UNL     1      -0.606   2.577  12.241  0.00  0.00    +0.015 A 
ATOM     19  C   UNL     1      -0.522   3.602  13.165  0.00  0.00    +0.013 A 
ATOM     20  C   UNL     1      -0.613   3.326  14.517  0.00  0.00    +0.049 A 
ATOM     21  C   UNL     1      -0.778   2.020  14.948  0.00  0.00    +0.158 A 
ATOM     22  C   UNL     1      -0.857   0.988  14.018  0.00  0.00    +0.162 A 
ATOM     23  C   UNL     1      -0.771   1.271  12.664  0.00  0.00    +0.058 A 
BRANCH  21  24
ATOM     24  O   UNL     1      -0.862   1.746  16.277  0.00  0.00    -0.503 OA
ATOM     25  H   UNL     1      -0.009   1.569  16.697  0.00  0.00    +0.292 HD
ENDBRANCH  21  24
BRANCH  22  26
ATOM     26  O   UNL     1      -1.019  -0.296  14.436  0.00  0.00    -0.489 OA
BRANCH  26  27
ATOM     27  C   UNL     1      -1.093  -1.303  13.425  0.00  0.00    +0.226 C 
ATOM     28  C   UNL     1      -1.274  -2.673  14.082  0.00  0.00    +0.048 C 
ENDBRANCH  26  27
ENDBRANCH  22  26
ENDBRANCH  14  18
BRANCH   1  29
ATOM     29  S   UNL     1       0.112   0.961   5.227  0.00  0.00    -0.084 S 
BRANCH  29  30
ATOM     30  C   UNL     1      -0.758   1.579   3.764  0.00  0.00    +0.077 C 
BRANCH  30  31
ATOM     31  C   UNL     1      -0.056   1.073   2.502  0.00  0.00    +0.011 C 
BRANCH  31  33
ATOM     32  C   UNL     1      -0.090   1.090   0.004  0.00  0.00    +0.004 C 
ATOM     33  C   UNL     1      -0.791   1.595   1.266  0.00  0.00    -0.003 C 
ENDBRANCH  31  33
ENDBRANCH  30  31
ENDBRANCH  29  30
ENDBRANCH   1  29
TORSDOF 8
