REMARK  Name = ZINC15675853
REMARK  9 active torsions:
REMARK  status: ('A' for Active; 'I' for Inactive)
REMARK    1  A    between atoms: C_1  and  C_2
REMARK    2  A    between atoms: C_11  and  C_24
REMARK    3  A    between atoms: C_11  and  C_25
REMARK    4  A    between atoms: N_12  and  C_15
REMARK    5  A    between atoms: C_15  and  C_16
REMARK    6  A    between atoms: C_16  and  N_80
REMARK    7  A    between atoms: C_17  and  N_80
REMARK    8  A    between atoms: C_18  and  N_80
REMARK    9  A    between atoms: N_27  and  C_28
REMARK                            x       y       z     vdW  Elec       q    Type
REMARK                         _______ _______ _______ _____ _____    ______ ____
ROOT
ATOM      1  C   UNL     1       4.823  -6.145 -10.469  0.00  0.00    +0.086 C 
ATOM      2  C   UNL     1       3.679  -5.766  -9.563  0.00  0.00    +0.105 A 
ATOM      3  C   UNL     1       3.737  -4.849  -8.582  0.00  0.00    +0.071 A 
ATOM      4  C   UNL     1       2.458  -4.798  -7.979  0.00  0.00    +0.088 A 
ATOM      5  C   UNL     1       1.670  -5.723  -8.664  0.00  0.00    +0.154 A 
ATOM      6  O   UNL     1       2.444  -6.291  -9.613  0.00  0.00    -0.458 OA
ATOM      7  C   UNL     1       0.388  -5.694  -8.094  0.00  0.00    +0.079 A 
ATOM      8  C   UNL     1       0.407  -4.768  -7.092  0.00  0.00    +0.109 A 
ATOM      9  N   UNL     1       1.686  -4.223  -7.015  0.00  0.00    -0.331 N 
ATOM     10  C   UNL     1       2.030  -3.209  -6.013  0.00  0.00    +0.157 C 
ATOM     11  C   UNL     1       0.784  -2.389  -5.680  0.00  0.00    +0.128 C 
ATOM     12  N   UNL     1      -0.387  -3.224  -5.437  0.00  0.00    -0.282 N 
ATOM     13  C   UNL     1      -0.659  -4.315  -6.190  0.00  0.00    +0.264 C 
ATOM     14  O   UNL     1      -1.729  -4.891  -6.122  0.00  0.00    -0.268 OA
ATOM     15  C   UNL     1       0.483  -1.449  -6.849  0.00  0.00    +0.043 C 
ENDROOT
BRANCH  11  16
ATOM     16  C   UNL     1       1.058  -1.564  -4.450  0.00  0.00    +0.238 C 
ATOM     17  O   UNL     1       1.236  -0.368  -4.549  0.00  0.00    -0.273 OA
ATOM     18  N   UNL     1       1.105  -2.154  -3.239  0.00  0.00    -0.311 N 
ATOM     19  H   UNL     1       0.882  -3.094  -3.148  0.00  0.00    +0.149 HD
BRANCH  18  20
ATOM     20  C   UNL     1       1.492  -1.376  -2.059  0.00  0.00    +0.073 C 
ATOM     21  C   UNL     1       2.063  -2.314  -0.995  0.00  0.00    +0.022 C 
ATOM     22  C   UNL     1       2.822  -1.494   0.051  0.00  0.00    +0.002 C 
ATOM     23  C   UNL     1       1.823  -0.794   0.974  0.00  0.00    +0.000 C 
ATOM     24  C   UNL     1       1.900   0.718   0.757  0.00  0.00    +0.000 C 
ATOM     25  C   UNL     1       1.960   1.016  -0.742  0.00  0.00    +0.000 C 
ATOM     26  C   UNL     1       0.569   0.837  -1.354  0.00  0.00    +0.002 C 
ATOM     27  C   UNL     1       0.264  -0.655  -1.499  0.00  0.00    +0.022 C 
ENDBRANCH  18  20
ENDBRANCH  11  16
BRANCH  12  28
ATOM     28  C   UNL     1      -1.297  -2.870  -4.344  0.00  0.00    +0.091 C 
BRANCH  28  29
ATOM     29  C   UNL     1      -2.455  -2.035  -4.894  0.00  0.00    -0.060 C 
BRANCH  29  31
ATOM     30  C   UNL     1      -4.026  -2.876  -3.255  0.00  0.00    -0.096 C 
ATOM     31  N   UNL     1      -3.351  -1.669  -3.778  0.00  0.00    +0.381 N 
ATOM     32  H   UNL     1      -2.793  -1.246  -3.027  0.00  0.00    -0.082 HD
BRANCH  31  33
ATOM     33  C   UNL     1      -4.357  -0.688  -4.238  0.00  0.00    -0.069 C 
ATOM     34  C   UNL     1      -3.636   0.578  -4.706  0.00  0.00    -0.015 C 
ATOM     35  C   UNL     1      -4.667   1.612  -5.164  0.00  0.00    -0.002 C 
ATOM     36  C   UNL     1      -5.597   1.955  -3.998  0.00  0.00    -0.000 C 
ATOM     37  C   UNL     1      -6.318   0.689  -3.531  0.00  0.00    -0.002 C 
ATOM     38  C   UNL     1      -5.287  -0.345  -3.073  0.00  0.00    -0.015 C 
ENDBRANCH  31  33
ENDBRANCH  29  31
ENDBRANCH  28  29
ENDBRANCH  12  28
TORSDOF 6
