REMARK  Name = ZINC09543047
REMARK  6 active torsions:
REMARK  status: ('A' for Active; 'I' for Inactive)
REMARK    1  A    between atoms: C_1  and  O_2
REMARK    2  A    between atoms: O_2  and  C_3
REMARK    3  A    between atoms: C_6  and  C_9
REMARK    4  A    between atoms: C_11  and  C_23
REMARK    5  A    between atoms: C_13  and  C_16
REMARK    6  A    between atoms: C_21  and  O_22
REMARK                            x       y       z     vdW  Elec       q    Type
REMARK                         _______ _______ _______ _____ _____    ______ ____
ROOT
ATOM      1  C   UNL     1      -2.742   1.481   1.883  0.00  0.00    +0.040 C 
ATOM      2  N   UNL     1      -2.336   1.291   0.683  0.00  0.00    -0.299 NA
ATOM      3  C   UNL     1      -1.332   2.113   0.020  0.00  0.00    +0.081 C 
ATOM      4  C   UNL     1      -0.942   3.162   2.156  0.00  0.00    -0.028 C 
ATOM      5  C   UNL     1      -2.231   2.593   2.756  0.00  0.00    +0.044 C 
ATOM      6  N   UNL     1      -1.166   3.398   0.717  0.00  0.00    +0.401 N 
ATOM      7  H   UNL     1      -2.013   3.965   0.592  0.00  0.00    -0.081 HD
ATOM      8  H   UNL     1      -0.359   3.897   0.324  0.00  0.00    -0.081 HD
ENDROOT
BRANCH   3   9
ATOM      9  C   UNL     1      -0.017   1.378   0.010  0.00  0.00    -0.039 A 
ATOM     10  C   UNL     1       0.002  -0.004   0.002  0.00  0.00    +0.006 A 
ATOM     11  C   UNL     1       1.208  -0.680  -0.013  0.00  0.00    +0.040 A 
ATOM     12  C   UNL     1       2.397   0.028  -0.021  0.00  0.00    +0.137 A 
ATOM     13  C   UNL     1       2.378   1.413  -0.013  0.00  0.00    +0.053 A 
ATOM     14  C   UNL     1       1.170   2.087   0.002  0.00  0.00    +0.022 A 
ATOM     15 BR   UNL     1       4.002   2.383  -0.023  0.00  0.00    -0.047 Br
ATOM     16  F   UNL     1       3.576  -0.631  -0.035  0.00  0.00    -0.204 F 
ENDBRANCH   3   9
BRANCH   1  20
ATOM     17  C   UNL     1      -5.663  -1.158   3.472  0.00  0.00    +0.120 A 
ATOM     18  C   UNL     1      -5.203  -1.335   2.173  0.00  0.00    +0.046 A 
ATOM     19  C   UNL     1      -4.255  -0.481   1.653  0.00  0.00    +0.013 A 
ATOM     20  C   UNL     1      -3.757   0.564   2.435  0.00  0.00    -0.004 A 
ATOM     21  C   UNL     1      -4.219   0.736   3.743  0.00  0.00    +0.013 A 
ATOM     22  C   UNL     1      -5.170  -0.120   4.252  0.00  0.00    +0.046 A 
BRANCH  17  24
ATOM     23  C   UNL     1      -7.026  -1.763   5.322  0.00  0.00    +0.277 C 
ATOM     24  O   UNL     1      -6.597  -2.003   3.980  0.00  0.00    -0.495 OA
ENDBRANCH  17  24
ENDBRANCH   1  20
BRANCH   4  25
ATOM     25  C   UNL     1      -0.596   4.464   2.833  0.00  0.00    -0.019 A 
ATOM     26  C   UNL     1      -1.015   5.661   2.284  0.00  0.00    +0.005 A 
ATOM     27  C   UNL     1      -0.698   6.855   2.904  0.00  0.00    +0.000 A 
ATOM     28  C   UNL     1       0.037   6.855   4.075  0.00  0.00    +0.004 A 
ATOM     29  C   UNL     1       0.457   5.662   4.628  0.00  0.00    +0.045 A 
ATOM     30  C   UNL     1       0.137   4.461   4.010  0.00  0.00    +0.118 A 
BRANCH  30  31
ATOM     31  O   UNL     1       0.544   3.285   4.556  0.00  0.00    -0.507 OA
ATOM     32  H   UNL     1       1.412   2.988   4.247  0.00  0.00    +0.292 HD
ENDBRANCH  30  31
ENDBRANCH   4  25
TORSDOF 5
