REMARK  Name = ZINC14275819
REMARK  14 active torsions:
REMARK  status: ('A' for Active; 'I' for Inactive)
REMARK    1  A    between atoms: C_1  and  C_2
REMARK    2  A    between atoms: C_7  and  N_8
REMARK    3  A    between atoms: N_8  and  C_9
REMARK    4  A    between atoms: C_9  and  N_11
REMARK    5  A    between atoms: C_12  and  C_14
REMARK    6  A    between atoms: C_18  and  O_20
REMARK    7  A    between atoms: O_20  and  C_21
REMARK    8  A    between atoms: C_21  and  C_22
REMARK    9  A    between atoms: C_22  and  C_23
REMARK   10  A    between atoms: C_22  and  C_24
REMARK   11  A    between atoms: N_26  and  C_28
REMARK   12  A    between atoms: C_31  and  C_34
REMARK   13  A    between atoms: C_34  and  C_35
REMARK   14  A    between atoms: C_34  and  C_36
REMARK                            x       y       z     vdW  Elec       q    Type
REMARK                         _______ _______ _______ _____ _____    ______ ____
ROOT
ATOM      1  C   UNL     1       4.681   9.445  -0.188  0.00  0.00    +0.046 C 
ATOM      2  C   UNL     1       3.363  10.177  -0.166  0.00  0.00    -0.027 A 
ATOM      3  C   UNL     1       3.357  11.531  -0.250  0.00  0.00    +0.037 A 
ATOM      4  C   UNL     1       2.133  12.223  -0.231  0.00  0.00    +0.114 A 
ATOM      5  C   UNL     1       0.884  11.454  -0.119  0.00  0.00    +0.115 A 
ATOM      6  C   UNL     1       0.956  10.053  -0.040  0.00  0.00    +0.055 A 
ATOM      7  C   UNL     1       2.176   9.441  -0.059  0.00  0.00    +0.038 A 
ATOM      8  N   UNL     1      -0.076  12.366  -0.127  0.00  0.00    -0.147 NA
ATOM      9  N   UNL     1       0.460  13.532  -0.227  0.00  0.00    -0.149 N 
ATOM     10  N   UNL     1       1.745  13.487  -0.290  0.00  0.00    -0.147 NA
ENDROOT
BRANCH   9  11
ATOM     11  C   UNL     1      -0.277  14.723  -0.263  0.00  0.00    +0.086 A 
ATOM     12  C   UNL     1       0.378  15.943  -0.366  0.00  0.00    +0.030 A 
ATOM     13  C   UNL     1      -0.351  17.115  -0.408  0.00  0.00    +0.006 A 
ATOM     14  C   UNL     1      -1.732  17.075  -0.334  0.00  0.00    -0.045 A 
ATOM     15  C   UNL     1      -2.386  15.862  -0.225  0.00  0.00    +0.006 A 
ATOM     16  C   UNL     1      -1.663  14.686  -0.189  0.00  0.00    +0.030 A 
BRANCH  14  17
ATOM     17  C   UNL     1      -2.524  18.356  -0.372  0.00  0.00    +0.013 C 
ATOM     18  C   UNL     1      -2.116  19.244   0.805  0.00  0.00    +0.012 C 
ATOM     19  C   UNL     1      -2.244  19.090  -1.686  0.00  0.00    +0.012 C 
ENDBRANCH  14  17
ENDBRANCH   9  11
BRANCH   7  20
ATOM     20  N   UNL     1       2.242   8.046   0.026  0.00  0.00    -0.296 N 
ATOM     21  H   UNL     1       2.827   7.551  -0.569  0.00  0.00    +0.154 HD
BRANCH  20  22
ATOM     22  C   UNL     1       1.491   7.390   0.933  0.00  0.00    +0.141 C 
ATOM     23  S   UNL     1       0.566   8.268   2.074  0.00  0.00    -0.018 S 
BRANCH  22  24
ATOM     24  N   UNL     1       1.470   6.042   0.941  0.00  0.00    -0.264 N 
ATOM     25  C   UNL     1       0.720   5.386   1.848  0.00  0.00    +0.250 C 
ATOM     26  O   UNL     1       0.063   6.009   2.658  0.00  0.00    -0.270 OA
ATOM     27  H   UNL     1       1.995   5.545   0.294  0.00  0.00    +0.157 HD
BRANCH  25  28
ATOM     28  C   UNL     1       0.697   3.908   1.857  0.00  0.00    +0.041 A 
ATOM     29  C   UNL     1       1.451   3.189   0.927  0.00  0.00    +0.013 A 
ATOM     30  C   UNL     1       1.427   1.810   0.939  0.00  0.00    +0.004 A 
ATOM     31  C   UNL     1       0.658   1.135   1.870  0.00  0.00    +0.046 A 
ATOM     32  C   UNL     1      -0.100   1.841   2.795  0.00  0.00    +0.121 A 
ATOM     33  C   UNL     1      -0.079   3.226   2.796  0.00  0.00    +0.058 A 
BRANCH  32  34
ATOM     34  O   UNL     1      -0.858   1.173   3.703  0.00  0.00    -0.492 OA
BRANCH  34  35
ATOM     35  C   UNL     1      -0.828  -0.255   3.648  0.00  0.00    +0.232 C 
BRANCH  35  36
ATOM     36  C   UNL     1      -1.736  -0.827   4.738  0.00  0.00    +0.020 C 
ATOM     37  C   UNL     1      -1.802  -2.349   4.601  0.00  0.00    +0.010 C 
ATOM     38  C   UNL     1      -1.173  -0.462   6.114  0.00  0.00    +0.010 C 
ENDBRANCH  35  36
ENDBRANCH  34  35
ENDBRANCH  32  34
ENDBRANCH  25  28
ENDBRANCH  22  24
ENDBRANCH  20  22
ENDBRANCH   7  20
TORSDOF 9
