REMARK  Name = ZINC61440065
REMARK  8 active torsions:
REMARK  status: ('A' for Active; 'I' for Inactive)
REMARK    1  A    between atoms: C_1  and  C_2
REMARK    2  A    between atoms: C_9  and  S_11
REMARK    3  A    between atoms: S_11  and  C_12
REMARK    4  A    between atoms: C_12  and  C_14
REMARK    5  A    between atoms: C_12  and  C_20
REMARK    6  A    between atoms: C_17  and  C_19
REMARK    7  A    between atoms: C_20  and  C_22
REMARK    8  A    between atoms: C_20  and  N_23
REMARK                            x       y       z     vdW  Elec       q    Type
REMARK                         _______ _______ _______ _____ _____    ______ ____
ROOT
ATOM      1  C   UNL     1       0.158  -6.924   0.949  0.00  0.00    +0.105 C 
ENDROOT
BRANCH   1   2
ATOM      2  C   UNL     1       0.198  -8.342   1.458  0.00  0.00    +0.117 A 
ATOM      3  C   UNL     1       1.168  -9.240   1.208  0.00  0.00    +0.046 A 
ATOM      4  C   UNL     1       0.805 -10.432   1.877  0.00  0.00    +0.044 A 
ATOM      5  C   UNL     1      -0.364 -10.190   2.497  0.00  0.00    +0.102 A 
ATOM      6  O   UNL     1      -0.724  -8.921   2.244  0.00  0.00    -0.464 OA
ATOM      7  C   UNL     1      -1.137 -11.175   3.336  0.00  0.00    +0.086 C 
ENDBRANCH   1   2
BRANCH   1   8
ATOM      8  C   UNL     1      -1.104  -6.721   0.107  0.00  0.00    -0.057 C 
ATOM      9  C   UNL     1      -1.110  -5.303  -0.468  0.00  0.00    -0.013 C 
BRANCH   8  10
ATOM     10  N   UNL     1      -2.291  -6.913   0.950  0.00  0.00    +0.381 N 
ATOM     11  H   UNL     1      -2.279  -6.243   1.705  0.00  0.00    -0.090 HD
ATOM     12  H   UNL     1      -3.123  -6.779   0.395  0.00  0.00    -0.090 HD
ATOM     13  H   UNL     1      -2.287  -7.848   1.330  0.00  0.00    -0.090 HD
ENDBRANCH   8  10
ENDBRANCH   1   8
BRANCH   1  14
ATOM     14  S   UNL     1       0.138  -5.777   2.354  0.00  0.00    -0.078 S 
BRANCH  14  23
ATOM     15  C   UNL     1       6.723  -5.608   6.345  0.00  0.00    +0.044 C 
ATOM     16  C   UNL     1       5.671  -5.992   5.337  0.00  0.00    -0.048 A 
ATOM     17  C   UNL     1       5.926  -7.008   4.428  0.00  0.00    +0.005 A 
ATOM     18  C   UNL     1       4.976  -7.371   3.500  0.00  0.00    +0.030 A 
ATOM     19  C   UNL     1       3.745  -6.710   3.473  0.00  0.00    +0.090 A 
ATOM     20  C   UNL     1       3.492  -5.681   4.396  0.00  0.00    +0.067 A 
ATOM     21  C   UNL     1       4.459  -5.333   5.326  0.00  0.00    +0.031 A 
ATOM     22  N   UNL     1       2.211  -5.228   4.125  0.00  0.00    -0.333 N 
ATOM     23  C   UNL     1       1.732  -5.966   3.080  0.00  0.00    +0.168 A 
ATOM     24  N   UNL     1       2.635  -6.836   2.699  0.00  0.00    -0.222 NA
ATOM     25  H   UNL     1       1.742  -4.518   4.591  0.00  0.00    +0.168 HD
ENDBRANCH  14  23
ENDBRANCH   1  14
TORSDOF 5
