REMARK  Name = ZINC44713666
REMARK  7 active torsions:
REMARK  status: ('A' for Active; 'I' for Inactive)
REMARK    1  A    between atoms: C_1  and  C_2
REMARK    2  A    between atoms: C_3  and  C_9
REMARK    3  A    between atoms: C_4  and  C_8
REMARK    4  A    between atoms: C_9  and  C_11
REMARK    5  A    between atoms: C_9  and  N_12
REMARK    6  A    between atoms: C_13  and  C_15
REMARK    7  A    between atoms: C_26  and  C_28
REMARK                            x       y       z     vdW  Elec       q    Type
REMARK                         _______ _______ _______ _____ _____    ______ ____
ROOT
ATOM      1  C   UNL     1       2.526  -1.343  -5.213  0.00  0.00    +0.100 C 
ATOM      2  C   UNL     1       3.838  -1.495  -4.412  0.00  0.00    +0.121 C 
ATOM      3  N   UNL     1       4.912  -1.383  -5.428  0.00  0.00    -0.296 N 
ATOM      4  C   UNL     1       4.439  -0.320  -6.348  0.00  0.00    +0.115 C 
ATOM      5  C   UNL     1       2.924  -0.571  -6.482  0.00  0.00    -0.004 C 
ATOM      6  C   UNL     1       2.174   0.756  -6.551  0.00  0.00    -0.010 C 
ATOM      7  C   UNL     1       2.543   1.479  -7.849  0.00  0.00    -0.082 C 
ATOM      8  N   UNL     1       2.191   0.635  -8.998  0.00  0.00    +0.379 N 
ATOM      9  C   UNL     1       2.985  -0.599  -8.974  0.00  0.00    -0.082 C 
ATOM     10  C   UNL     1       2.635  -1.409  -7.723  0.00  0.00    -0.010 C 
ATOM     11  C   UNL     1       6.058  -2.088  -5.500  0.00  0.00    +0.252 C 
ATOM     12  O   UNL     1       6.846  -1.877  -6.402  0.00  0.00    -0.270 OA
ATOM     13  H   UNL     1       1.210   0.403  -8.955  0.00  0.00    -0.086 HD
ATOM     14  H   UNL     1       2.378   1.138  -9.852  0.00  0.00    -0.086 HD
ENDROOT
BRANCH  11  15
ATOM     15  C   UNL     1       6.357  -3.115  -4.484  0.00  0.00    +0.107 A 
ATOM     16  C   UNL     1       5.950  -4.439  -4.681  0.00  0.00    +0.138 A 
ATOM     17  C   UNL     1       6.235  -5.395  -3.724  0.00  0.00    +0.039 A 
ATOM     18  C   UNL     1       6.920  -5.046  -2.575  0.00  0.00    +0.006 A 
ATOM     19  C   UNL     1       7.326  -3.739  -2.372  0.00  0.00    +0.039 A 
ATOM     20  C   UNL     1       7.055  -2.772  -3.321  0.00  0.00    +0.138 A 
ATOM     21  F   UNL     1       7.457  -1.497  -3.123  0.00  0.00    -0.205 F 
ATOM     22  F   UNL     1       5.280  -4.782  -5.803  0.00  0.00    -0.205 F 
ENDBRANCH  11  15
BRANCH   1  24
ATOM     23  N   UNL     1       0.197  -0.776  -4.603  0.00  0.00    -0.308 N 
ATOM     24  C   UNL     1       1.514  -0.559  -4.418  0.00  0.00    +0.219 C 
ATOM     25  O   UNL     1       1.885   0.268  -3.611  0.00  0.00    -0.275 OA
ATOM     26  H   UNL     1      -0.100  -1.437  -5.248  0.00  0.00    +0.149 HD
BRANCH  23  27
ATOM     27  C   UNL     1      -0.787  -0.014  -3.830  0.00  0.00    +0.104 C 
ATOM     28  C   UNL     1      -1.059   1.321  -4.526  0.00  0.00    +0.033 C 
BRANCH  27  31
ATOM     29  C   UNL     1      -2.504  -0.429  -1.248  0.00  0.00    +0.065 C 
ATOM     30  C   UNL     1      -2.811  -0.980  -2.616  0.00  0.00    +0.038 A 
ATOM     31  C   UNL     1      -2.069  -0.801  -3.733  0.00  0.00    +0.015 A 
ATOM     32  C   UNL     1      -2.702  -1.474  -4.783  0.00  0.00    +0.065 A 
ATOM     33  N   UNL     1      -3.785  -2.038  -4.313  0.00  0.00    -0.179 NA
ATOM     34  N   UNL     1      -3.873  -1.744  -2.946  0.00  0.00    -0.281 N 
ATOM     35  H   UNL     1      -4.575  -2.037  -2.344  0.00  0.00    +0.189 HD
ATOM     36  C   UNL     1      -2.220  -1.540  -6.210  0.00  0.00    +0.068 C 
ENDBRANCH  27  31
ENDBRANCH  23  27
ENDBRANCH   1  24
TORSDOF 4
