REMARK  Name = ZINC02110215
REMARK  3 active torsions:
REMARK  status: ('A' for Active; 'I' for Inactive)
REMARK    1  A    between atoms: C_4  and  C_7
REMARK    2  A    between atoms: C_20  and  C_22
REMARK    3  A    between atoms: C_25  and  N_28
REMARK                            x       y       z     vdW  Elec       q    Type
REMARK                         _______ _______ _______ _____ _____    ______ ____
ROOT
ATOM      1  C   UNL     1       4.557   0.208   0.407  0.00  0.00    -0.035 C 
ATOM      2  C   UNL     1       3.076   0.137   0.009  0.00  0.00    +0.026 C 
ATOM      3  C   UNL     1       2.537   1.544  -0.019  0.00  0.00    -0.022 A 
ATOM      4  C   UNL     1       1.149   1.989  -0.032  0.00  0.00    +0.003 A 
ATOM      5  C   UNL     1      -0.087   1.338  -0.025  0.00  0.00    +0.010 A 
ATOM      6  C   UNL     1      -1.240   2.069  -0.045  0.00  0.00    +0.001 A 
ATOM      7  C   UNL     1      -1.196   3.457  -0.060  0.00  0.00    +0.002 A 
ATOM      8  C   UNL     1       0.011   4.120  -0.067  0.00  0.00    +0.026 A 
ATOM      9  C   UNL     1       1.199   3.397  -0.053  0.00  0.00    +0.047 A 
ATOM     10  N   UNL     1       2.529   3.760  -0.055  0.00  0.00    -0.359 N 
ATOM     11  H   UNL     1       2.857   4.673  -0.068  0.00  0.00    +0.166 HD
ATOM     12  C   UNL     1       3.315   2.645  -0.035  0.00  0.00    +0.010 A 
ATOM     13  C   UNL     1       4.825   2.584  -0.032  0.00  0.00    +0.008 C 
ATOM     14  N   UNL     1       5.245   1.220  -0.421  0.00  0.00    +0.392 N 
ATOM     15  H   UNL     1       5.011   1.063  -1.409  0.00  0.00    -0.084 HD
ATOM     16  H   UNL     1       6.260   1.129  -0.292  0.00  0.00    -0.084 HD
ENDROOT
BRANCH   1  20
ATOM     17  C   UNL     1       6.388  -3.598  -0.235  0.00  0.00    +0.000 A 
ATOM     18  C   UNL     1       5.994  -3.226   1.037  0.00  0.00    +0.000 A 
ATOM     19  C   UNL     1       5.401  -1.995   1.244  0.00  0.00    +0.002 A 
ATOM     20  C   UNL     1       5.203  -1.135   0.181  0.00  0.00    -0.061 A 
ATOM     21  C   UNL     1       5.593  -1.508  -1.092  0.00  0.00    +0.002 A 
ATOM     22  C   UNL     1       6.190  -2.738  -1.299  0.00  0.00    +0.000 A 
ENDBRANCH   1  20
BRANCH  13  23
ATOM     23  C   UNL     1       5.343   2.906   1.346  0.00  0.00    -0.056 A 
ATOM     24  C   UNL     1       4.601   3.706   2.194  0.00  0.00    +0.004 A 
ATOM     25  C   UNL     1       5.074   3.998   3.459  0.00  0.00    +0.033 A 
ATOM     26  C   UNL     1       6.294   3.497   3.874  0.00  0.00    +0.126 A 
ATOM     27  C   UNL     1       7.039   2.701   3.024  0.00  0.00    +0.033 A 
ATOM     28  C   UNL     1       6.563   2.406   1.760  0.00  0.00    +0.004 A 
BRANCH  26  29
ATOM     29  N   UNL     1       6.803   3.813   5.228  0.00  0.00    +0.056 N 
ATOM     30  O   UNL     1       7.877   3.371   5.593  0.00  0.00    -0.126 OA
ATOM     31  O   UNL     1       6.146   4.514   5.977  0.00  0.00    -0.126 OA
ENDBRANCH  26  29
ENDBRANCH  13  23
TORSDOF 3
