REMARK  Name = ZINC13634046
REMARK  8 active torsions:
REMARK  status: ('A' for Active; 'I' for Inactive)
REMARK    1  A    between atoms: C_1  and  C_2
REMARK    2  A    between atoms: C_5  and  S_7
REMARK    3  A    between atoms: S_7  and  C_8
REMARK    4  A    between atoms: C_8  and  C_9
REMARK    5  A    between atoms: N_19  and  C_20
REMARK    6  A    between atoms: C_23  and  C_26
REMARK    7  A    between atoms: C_26  and  C_27
REMARK    8  A    between atoms: C_26  and  C_28
REMARK                            x       y       z     vdW  Elec       q    Type
REMARK                         _______ _______ _______ _____ _____    ______ ____
ROOT
ATOM      1  C   UNL     1       3.850 -12.338   0.761  0.00  0.00    +0.060 A 
ATOM      2  C   UNL     1       2.781 -13.171   0.607  0.00  0.00    +0.094 A 
ATOM      3  C   UNL     1       1.489 -12.617   0.559  0.00  0.00    +0.253 A 
ATOM      4  O   UNL     1       0.510 -13.332   0.423  0.00  0.00    -0.268 OA
ATOM      5  N   UNL     1       1.353 -11.278   0.669  0.00  0.00    -0.293 N 
ATOM      6  C   UNL     1       2.456 -10.497   0.821  0.00  0.00    +0.211 A 
ATOM      7  N   UNL     1       3.663 -11.024   0.870  0.00  0.00    -0.218 NA
ATOM      8  N   UNL     1       2.310  -9.136   0.931  0.00  0.00    -0.298 N 
ATOM      9  C   UNL     1       3.398  -8.348   1.246  0.00  0.00    +0.180 C 
ATOM     10  N   UNL     1       3.237  -7.076   1.474  0.00  0.00    -0.371 N 
ATOM     11  N   UNL     1       4.654  -8.906   1.320  0.00  0.00    -0.328 N 
ATOM     12  H   UNL     1       4.010  -6.505   1.608  0.00  0.00    +0.159 HD
ATOM     13  H   UNL     1       4.763  -9.866   1.235  0.00  0.00    +0.169 HD
ATOM     14  H   UNL     1       2.344  -6.698   1.508  0.00  0.00    +0.159 HD
ATOM     15  H   UNL     1       1.441  -8.728   0.788  0.00  0.00    +0.172 HD
ATOM     16  H   UNL     1       0.471 -10.874   0.639  0.00  0.00    +0.172 HD
ENDROOT
BRANCH  11  17
ATOM     17  C   UNL     1       5.772  -8.090   1.518  0.00  0.00    +0.042 A 
ATOM     18  C   UNL     1       5.752  -7.109   2.502  0.00  0.00    +0.026 A 
ATOM     19  C   UNL     1       6.858  -6.305   2.695  0.00  0.00    +0.006 A 
ATOM     20  C   UNL     1       7.984  -6.474   1.910  0.00  0.00    -0.045 A 
ATOM     21  C   UNL     1       8.006  -7.449   0.930  0.00  0.00    +0.006 A 
ATOM     22  C   UNL     1       6.906  -8.261   0.736  0.00  0.00    +0.026 A 
BRANCH  20  23
ATOM     23  C   UNL     1       9.188  -5.593   2.123  0.00  0.00    +0.013 C 
ATOM     24  C   UNL     1      10.394  -6.460   2.490  0.00  0.00    +0.012 C 
ATOM     25  C   UNL     1       9.488  -4.820   0.837  0.00  0.00    +0.012 C 
ENDBRANCH  20  23
ENDBRANCH  11  17
BRANCH   1  26
ATOM     26  C   UNL     1       5.245 -12.906   0.815  0.00  0.00    +0.132 C 
BRANCH  26  27
ATOM     27  S   UNL     1       6.094 -12.572  -0.753  0.00  0.00    -0.091 S 
BRANCH  27  32
ATOM     28  C   UNL     1      11.589 -14.721  -0.752  0.00  0.00    +0.075 C 
ATOM     29  C   UNL     1      10.171 -14.253  -0.548  0.00  0.00    +0.100 A 
ATOM     30  N   UNL     1       9.377 -14.386   0.495  0.00  0.00    -0.146 NA
ATOM     31  N   UNL     1       8.201 -13.931   0.508  0.00  0.00    -0.135 NA
ATOM     32  C   UNL     1       7.689 -13.288  -0.534  0.00  0.00    +0.159 A 
ATOM     33  S   UNL     1       9.087 -13.351  -1.652  0.00  0.00    -0.044 S 
ENDBRANCH  27  32
ENDBRANCH  26  27
ENDBRANCH   1  26
TORSDOF 5
