REMARK  Name = ZINC39557693
REMARK  4 active torsions:
REMARK  status: ('A' for Active; 'I' for Inactive)
REMARK    1  A    between atoms: C_4  and  C_7
REMARK    2  A    between atoms: C_7  and  C_8
REMARK    3  A    between atoms: C_8  and  C_9
REMARK    4  A    between atoms: N_15  and  C_17
REMARK                            x       y       z     vdW  Elec       q    Type
REMARK                         _______ _______ _______ _____ _____    ______ ____
ROOT
ATOM      1  C   UNL     1       5.507  -1.710   1.381  0.00  0.00    +0.157 C 
ATOM      2  C   UNL     1       5.958  -2.029   2.781  0.00  0.00    -0.007 C 
ATOM      3  C   UNL     1       7.120  -1.378   2.924  0.00  0.00    +0.067 C 
ATOM      4  C   UNL     1       7.918  -1.433   4.209  0.00  0.00    +0.073 C 
ATOM      5  C   UNL     1       6.994  -1.953   5.318  0.00  0.00    +0.093 C 
ATOM      6  N   UNL     1       6.316  -3.177   4.869  0.00  0.00    -0.272 NA
ATOM      7  C   UNL     1       5.310  -2.879   3.833  0.00  0.00    +0.121 C 
ATOM      8  N   UNL     1       7.421  -0.713   1.790  0.00  0.00    -0.158 NA
ATOM      9  N   UNL     1       6.588  -0.839   0.879  0.00  0.00    -0.180 NA
ENDROOT
BRANCH   6  10
ATOM     10  C   UNL     1       5.709  -3.888   6.003  0.00  0.00    +0.231 C 
ATOM     11  C   UNL     1       6.782  -4.286   6.977  0.00  0.00    +0.122 A 
ATOM     12  C   UNL     1       7.179  -5.578   7.140  0.00  0.00    +0.152 A 
ATOM     13  N   UNL     1       8.138  -5.602   8.061  0.00  0.00    -0.219 NA
ATOM     14  C   UNL     1       8.357  -4.381   8.484  0.00  0.00    +0.223 A 
ATOM     15  N   UNL     1       7.527  -3.534   7.831  0.00  0.00    -0.233 NA
ATOM     16  N   UNL     1       6.582  -6.613   6.396  0.00  0.00    -0.271 N 
ATOM     17  C   UNL     1       5.434  -6.296   5.698  0.00  0.00    +0.180 C 
ATOM     18  N   UNL     1       5.023  -5.085   5.517  0.00  0.00    -0.230 NA
ATOM     19  N   UNL     1       4.689  -7.323   5.167  0.00  0.00    -0.331 N 
ATOM     20  H   UNL     1       6.959  -7.506   6.374  0.00  0.00    +0.156 HD
ATOM     21  H   UNL     1       4.975  -8.242   5.288  0.00  0.00    +0.145 HD
ATOM     22  H   UNL     1       3.878  -7.128   4.672  0.00  0.00    +0.145 HD
ENDBRANCH   6  10
BRANCH   1  23
ATOM     23  C   UNL     1       4.171  -0.963   1.399  0.00  0.00    +0.038 C 
BRANCH  23  24
ATOM     24  C   UNL     1       3.711  -0.707  -0.038  0.00  0.00    +0.037 C 
BRANCH  24  28
ATOM     25  C   UNL     1      -0.017   1.378   0.010  0.00  0.00    +0.000 A 
ATOM     26  C   UNL     1       1.171   2.086   0.002  0.00  0.00    +0.000 A 
ATOM     27  C   UNL     1       2.377   1.411  -0.013  0.00  0.00    +0.003 A 
ATOM     28  C   UNL     1       2.396   0.029  -0.020  0.00  0.00    -0.047 A 
ATOM     29  C   UNL     1       1.208  -0.679  -0.012  0.00  0.00    +0.003 A 
ATOM     30  C   UNL     1       0.002  -0.004   0.002  0.00  0.00    +0.000 A 
ENDBRANCH  24  28
ENDBRANCH  23  24
ENDBRANCH   1  23
TORSDOF 4
