REMARK  Name = ZINC31916404
REMARK  5 active torsions:
REMARK  status: ('A' for Active; 'I' for Inactive)
REMARK    1  A    between atoms: C_1  and  C_2
REMARK    2  A    between atoms: C_7  and  C_15
REMARK    3  A    between atoms: C_8  and  C_11
REMARK    4  A    between atoms: C_11  and  C_12
REMARK    5  A    between atoms: C_12  and  N_14
REMARK                            x       y       z     vdW  Elec       q    Type
REMARK                         _______ _______ _______ _____ _____    ______ ____
ROOT
ATOM      1  C   UNL     1      -1.295  -0.772   0.011  0.00  0.00    +0.045 C 
ATOM      2  C   UNL     1       0.002  -0.004   0.002  0.00  0.00    -0.034 A 
ATOM      3  C   UNL     1      -0.017   1.401   0.010  0.00  0.00    +0.008 A 
ATOM      4  C   UNL     1       1.155   2.090   0.002  0.00  0.00    +0.047 A 
ATOM      5  C   UNL     1       2.373   1.381  -0.013  0.00  0.00    +0.138 A 
ATOM      6  N   UNL     1       3.638   1.780  -0.024  0.00  0.00    -0.233 NA
ATOM      7  C   UNL     1       4.434   0.708  -0.037  0.00  0.00    +0.061 A 
ATOM      8  C   UNL     1       3.664  -0.402  -0.035  0.00  0.00    +0.052 A 
ATOM      9  N   UNL     1       2.360   0.011  -0.020  0.00  0.00    -0.303 N 
ATOM     10  C   UNL     1       1.176  -0.669  -0.013  0.00  0.00    +0.096 A 
ATOM     11  C   UNL     1       5.941   0.733  -0.052  0.00  0.00    +0.067 C 
ENDROOT
BRANCH   8  12
ATOM     12  C   UNL     1       4.151  -1.828  -0.048  0.00  0.00    +0.113 C 
BRANCH  12  13
ATOM     13  C   UNL     1       4.299  -2.296  -1.472  0.00  0.00    +0.052 C 
ATOM     14  S   UNL     1       3.951  -1.307  -2.679  0.00  0.00    -0.040 S 
BRANCH  13  15
ATOM     15  N   UNL     1       4.725  -3.549  -1.729  0.00  0.00    -0.355 N 
ATOM     16  H   UNL     1       4.833  -3.891  -2.769  0.00  0.00    +0.143 HD
ATOM     17  H   UNL     1       4.964  -4.230  -0.899  0.00  0.00    +0.143 HD
ENDBRANCH  13  15
ENDBRANCH  12  13
ENDBRANCH   8  12
TORSDOF 3
