REMARK  Name = ZINC01023792
REMARK  6 active torsions:
REMARK  status: ('A' for Active; 'I' for Inactive)
REMARK    1  A    between atoms: C_1  and  C_2
REMARK    2  A    between atoms: C_2  and  C_33
REMARK    3  A    between atoms: C_6  and  C_21
REMARK    4  A    between atoms: C_8  and  C_19
REMARK    5  A    between atoms: C_9  and  N_18
REMARK    6  A    between atoms: N_10  and  C_11
REMARK                            x       y       z     vdW  Elec       q    Type
REMARK                         _______ _______ _______ _____ _____    ______ ____
ROOT
ATOM      1  C   UNL     1       0.200   1.230   1.794  0.00  0.00    +0.011 C 
ATOM      2  C   UNL     1       0.160  -0.219   1.306  0.00  0.00    -0.023 C 
ATOM      3  C   UNL     1      -1.267  -0.583   0.889  0.00  0.00    +0.058 C 
ATOM      4  C   UNL     1      -1.296  -1.996   0.360  0.00  0.00    +0.025 C 
ATOM      5  C   UNL     1      -0.224  -2.525  -0.268  0.00  0.00    +0.025 C 
ATOM      6  C   UNL     1      -0.262  -3.931  -0.813  0.00  0.00    +0.097 C 
ATOM      7  C   UNL     1      -1.376  -4.722  -0.193  0.00  0.00    +0.077 C 
ATOM      8  C   UNL     1      -2.405  -4.106   0.444  0.00  0.00    +0.107 C 
ATOM      9  N   UNL     1      -2.438  -2.733   0.535  0.00  0.00    -0.260 N 
ATOM     10  C   UNL     1       0.957  -1.782  -0.436  0.00  0.00    +0.162 C 
ATOM     11  O   UNL     1       1.899  -2.284  -1.016  0.00  0.00    -0.292 OA
ATOM     12  C   UNL     1       1.081  -0.378   0.091  0.00  0.00    +0.086 C 
ATOM     13  C   UNL     1       0.622  -1.153   2.426  0.00  0.00    +0.011 C 
ENDROOT
BRANCH   6  14
ATOM     14  C   UNL     1      -0.465  -3.877  -2.305  0.00  0.00    -0.031 A 
ATOM     15  C   UNL     1      -1.601  -3.285  -2.826  0.00  0.00    +0.008 A 
ATOM     16  C   UNL     1      -1.789  -3.229  -4.194  0.00  0.00    +0.050 A 
ATOM     17  C   UNL     1      -0.844  -3.775  -5.047  0.00  0.00    +0.166 A 
ATOM     18  C   UNL     1       0.297  -4.376  -4.522  0.00  0.00    +0.167 A 
ATOM     19  C   UNL     1       0.482  -4.424  -3.150  0.00  0.00    +0.054 A 
ATOM     20  O   UNL     1       1.064  -4.833  -5.555  0.00  0.00    -0.453 OA
ATOM     21  C   UNL     1       0.581  -4.146  -6.725  0.00  0.00    +0.466 C 
ATOM     22  O   UNL     1      -0.793  -3.855  -6.409  0.00  0.00    -0.453 OA
ENDBRANCH   6  14
BRANCH   9  23
ATOM     23  C   UNL     1      -3.647  -2.084   0.810  0.00  0.00    +0.041 A 
ATOM     24  C   UNL     1      -4.447  -1.633  -0.231  0.00  0.00    +0.024 A 
ATOM     25  C   UNL     1      -5.640  -0.993   0.043  0.00  0.00    +0.003 A 
ATOM     26  C   UNL     1      -6.039  -0.802   1.353  0.00  0.00    +0.020 A 
ATOM     27  C   UNL     1      -5.245  -1.251   2.393  0.00  0.00    +0.043 A 
ATOM     28  C   UNL     1      -4.052  -1.896   2.125  0.00  0.00    +0.043 A 
ATOM     29 CL   UNL     1      -5.750  -1.010   4.037  0.00  0.00    -0.083 Cl
ENDBRANCH   9  23
BRANCH   8  30
ATOM     30  N   UNL     1      -3.416  -4.854   0.997  0.00  0.00    -0.345 N 
ATOM     31  H   UNL     1      -3.441  -5.814   0.858  0.00  0.00    +0.144 HD
ATOM     32  H   UNL     1      -4.104  -4.423   1.527  0.00  0.00    +0.144 HD
ENDBRANCH   8  30
BRANCH   7  33
ATOM     33  C   UNL     1      -1.353  -6.152  -0.274  0.00  0.00    +0.099 C 
ATOM     34  N   UNL     1      -1.335  -7.286  -0.338  0.00  0.00    -0.191 NA
ENDBRANCH   7  33
TORSDOF 4
