REMARK  Name = ZINC50953281
REMARK  12 active torsions:
REMARK  status: ('A' for Active; 'I' for Inactive)
REMARK    1  A    between atoms: C_1  and  C_2
REMARK    2  A    between atoms: C_5  and  C_11
REMARK    3  A    between atoms: C_6  and  C_10
REMARK    4  A    between atoms: C_7  and  O_8
REMARK    5  A    between atoms: O_8  and  C_9
REMARK    6  A    between atoms: C_11  and  N_12
REMARK    7  A    between atoms: N_12  and  C_13
REMARK    8  A    between atoms: C_16  and  S_23
REMARK    9  A    between atoms: C_18  and  C_19
REMARK   10  A    between atoms: C_19  and  O_21
REMARK   11  A    between atoms: O_21  and  C_22
REMARK   12  A    between atoms: S_23  and  N_26
REMARK                            x       y       z     vdW  Elec       q    Type
REMARK                         _______ _______ _______ _____ _____    ______ ____
ROOT
ATOM      1  C   UNL     1      -1.521  -6.119   0.041  0.00  0.00    +0.042 A 
ATOM      2  C   UNL     1      -0.494  -6.995  -0.290  0.00  0.00    +0.025 A 
ATOM      3  C   UNL     1      -0.732  -8.354  -0.332  0.00  0.00    +0.030 A 
ATOM      4  C   UNL     1      -1.992  -8.855  -0.046  0.00  0.00    +0.106 A 
ATOM      5  C   UNL     1      -3.022  -8.003   0.285  0.00  0.00    +0.045 A 
ATOM      6  C   UNL     1      -2.797  -6.624   0.338  0.00  0.00    +0.082 A 
ENDROOT
BRANCH   4   7
ATOM      7  S   UNL     1      -2.278 -10.593  -0.106  0.00  0.00    +0.056 S 
ATOM      8  O   UNL     1      -3.670 -10.768  -0.331  0.00  0.00    -0.153 OA
ATOM      9  O   UNL     1      -1.292 -11.137  -0.972  0.00  0.00    -0.153 OA
BRANCH   7  10
ATOM     10  N   UNL     1      -1.964 -11.193   1.405  0.00  0.00    -0.204 NA
ATOM     11  H   UNL     1      -1.679 -10.596   2.115  0.00  0.00    +0.144 HD
ATOM     12  H   UNL     1      -2.063 -12.142   1.581  0.00  0.00    +0.144 HD
ENDBRANCH   7  10
ENDBRANCH   4   7
BRANCH   1  13
ATOM     13  N   UNL     1      -1.284  -4.752   0.085  0.00  0.00    -0.338 N 
ATOM     14  H   UNL     1      -2.018  -4.137   0.239  0.00  0.00    +0.146 HD
BRANCH  13  15
ATOM     15  C   UNL     1       0.075  -4.237  -0.102  0.00  0.00    +0.155 C 
BRANCH  15  20
ATOM     16  C   UNL     1       0.017   1.495   0.134  0.00  0.00    +0.049 C 
ATOM     17  C   UNL     1       0.031  -0.012   0.111  0.00  0.00    +0.007 A 
ATOM     18  C   UNL     1       0.058  -0.693  -1.088  0.00  0.00    +0.089 A 
ATOM     19  N   UNL     1       0.071  -2.013  -1.116  0.00  0.00    -0.362 N 
ATOM     20  C   UNL     1       0.060  -2.733  -0.011  0.00  0.00    +0.040 A 
ATOM     21  C   UNL     1       0.033  -2.126   1.228  0.00  0.00    +0.012 A 
ATOM     22  C   UNL     1       0.024  -0.735   1.301  0.00  0.00    +0.129 A 
ATOM     23  C   UNL     1       0.019  -2.957   2.485  0.00  0.00    +0.049 C 
ATOM     24  H   UNL     1       0.090  -2.466  -1.974  0.00  0.00    +0.165 HD
BRANCH  22  25
ATOM     25  O   UNL     1       0.003  -0.101   2.501  0.00  0.00    -0.494 OA
ATOM     26  C   UNL     1      -1.280   0.189   3.059  0.00  0.00    +0.277 C 
ENDBRANCH  22  25
ENDBRANCH  15  20
ENDBRANCH  13  15
ENDBRANCH   1  13
BRANCH   6  27
ATOM     27  C   UNL     1      -3.892  -5.707   0.696  0.00  0.00    +0.341 C 
ATOM     28  O   UNL     1      -3.722  -4.505   0.636  0.00  0.00    -0.245 OA
BRANCH  27  29
ATOM     29  O   UNL     1      -5.083  -6.201   1.089  0.00  0.00    -0.464 OA
ATOM     30  C   UNL     1      -6.100  -5.254   1.421  0.00  0.00    +0.280 C 
ENDBRANCH  27  29
ENDBRANCH   6  27
TORSDOF 8
