REMARK  Name = ZINC16695936
REMARK  5 active torsions:
REMARK  status: ('A' for Active; 'I' for Inactive)
REMARK    1  A    between atoms: C_1  and  O_2
REMARK    2  A    between atoms: O_2  and  C_3
REMARK    3  A    between atoms: N_11  and  C_12
REMARK    4  A    between atoms: C_15  and  O_18
REMARK    5  A    between atoms: C_19  and  C_21
REMARK                            x       y       z     vdW  Elec       q    Type
REMARK                         _______ _______ _______ _____ _____    ______ ____
ROOT
ATOM      1  C   UNL     1       0.522  -0.639  -1.104  0.00  0.00    +0.163 A 
ATOM      2  C   UNL     1       1.075   0.135  -2.111  0.00  0.00    +0.049 A 
ATOM      3  C   UNL     1       1.720  -0.460  -3.185  0.00  0.00    +0.004 A 
ATOM      4  C   UNL     1       1.820  -1.831  -3.267  0.00  0.00    +0.012 A 
ATOM      5  C   UNL     1       1.264  -2.629  -2.259  0.00  0.00    +0.022 A 
ATOM      6  C   UNL     1       0.618  -2.026  -1.165  0.00  0.00    +0.179 A 
ATOM      7  O   UNL     1       0.093  -2.798  -0.181  0.00  0.00    -0.435 OA
ATOM      8  C   UNL     1      -0.297  -4.052  -0.525  0.00  0.00    +0.212 A 
ATOM      9  N   UNL     1      -1.409  -4.570  -0.052  0.00  0.00    -0.325 N 
ATOM     10  C   UNL     1       0.568  -4.818  -1.445  0.00  0.00    +0.097 A 
ATOM     11  C   UNL     1       1.350  -4.090  -2.327  0.00  0.00    +0.030 A 
ATOM     12  H   UNL     1      -1.719  -5.431  -0.374  0.00  0.00    +0.169 HD
ENDROOT
BRANCH   9  13
ATOM     13  C   UNL     1      -2.130  -3.893   0.895  0.00  0.00    +0.042 A 
ATOM     14  C   UNL     1      -1.480  -3.300   1.979  0.00  0.00    +0.029 A 
ATOM     15  C   UNL     1      -2.211  -2.619   2.930  0.00  0.00    +0.047 A 
ATOM     16  C   UNL     1      -3.590  -2.522   2.811  0.00  0.00    +0.117 A 
ATOM     17  C   UNL     1      -4.241  -3.110   1.734  0.00  0.00    +0.047 A 
ATOM     18  C   UNL     1      -3.518  -3.789   0.776  0.00  0.00    +0.029 A 
BRANCH  16  19
ATOM     19  O   UNL     1      -4.307  -1.850   3.751  0.00  0.00    -0.507 OA
ATOM     20  H   UNL     1      -4.421  -0.909   3.559  0.00  0.00    +0.292 HD
ENDBRANCH  16  19
ENDBRANCH   9  13
BRANCH  10  21
ATOM     21  C   UNL     1       0.588  -6.291  -1.433  0.00  0.00    +0.247 C 
ATOM     22  O   UNL     1      -0.173  -6.904  -0.710  0.00  0.00    -0.270 OA
ATOM     23  N   UNL     1       1.450  -6.959  -2.225  0.00  0.00    -0.325 N 
ATOM     24  H   UNL     1       2.107  -6.472  -2.747  0.00  0.00    +0.145 HD
ATOM     25  H   UNL     1       1.414  -7.927  -2.273  0.00  0.00    +0.145 HD
ENDBRANCH  10  21
BRANCH   1  27
ATOM     26  C   UNL     1      -0.168   1.383  -0.060  0.00  0.00    +0.277 C 
ATOM     27  O   UNL     1      -0.107  -0.045  -0.056  0.00  0.00    -0.491 OA
ENDBRANCH   1  27
TORSDOF 4
