REMARK  Name = ZINC24831113
REMARK  6 active torsions:
REMARK  status: ('A' for Active; 'I' for Inactive)
REMARK    1  A    between atoms: C_1  and  C_2
REMARK    2  A    between atoms: C_2  and  C_4
REMARK    3  A    between atoms: C_2  and  N_14
REMARK    4  A    between atoms: N_14  and  C_15
REMARK    5  A    between atoms: C_15  and  C_16
REMARK    6  A    between atoms: N_21  and  C_22
REMARK                            x       y       z     vdW  Elec       q    Type
REMARK                         _______ _______ _______ _____ _____    ______ ____
ROOT
ATOM      1  N   UNL     1       2.890  -1.930  -2.534  0.00  0.00    +0.387 N 
ATOM      2  H   UNL     1       3.750  -2.288  -1.950  0.00  0.00    -0.085 HD
ATOM      3  H   UNL     1       1.959  -2.312  -2.089  0.00  0.00    -0.085 HD
ENDROOT
BRANCH   1   5
ATOM      4  C   UNL     1       4.305   0.068  -2.537  0.00  0.00    -0.013 C 
ATOM      5  C   UNL     1       2.870  -0.461  -2.526  0.00  0.00    -0.068 C 
BRANCH   5   6
ATOM      6  C   UNL     1       2.154   0.032  -1.268  0.00  0.00    -0.041 C 
ATOM      7  C   UNL     1       0.718  -0.497  -1.257  0.00  0.00    +0.009 C 
ATOM      8  C   UNL     1       0.002  -0.004   0.002  0.00  0.00    -0.010 C 
ATOM      9  C   UNL     1      -0.019   1.526   0.010  0.00  0.00    +0.007 C 
ATOM     10  C   UNL     1       1.417   2.055  -0.000  0.00  0.00    -0.010 C 
ATOM     11  C   UNL     1       2.133   1.562  -1.259  0.00  0.00    +0.009 C 
ATOM     12  C   UNL     1       2.157   1.548   1.239  0.00  0.00    +0.007 C 
ATOM     13  C   UNL     1       2.178   0.019   1.231  0.00  0.00    -0.010 C 
ATOM     14  C   UNL     1       0.742  -0.511   1.242  0.00  0.00    +0.007 C 
ATOM     15  C   UNL     1       2.894  -0.475  -0.028  0.00  0.00    +0.009 C 
ENDBRANCH   5   6
ENDBRANCH   1   5
BRANCH   1  16
ATOM     16  C   UNL     1       3.003  -2.448  -3.905  0.00  0.00    +0.016 C 
BRANCH  16  17
ATOM     17  C   UNL     1       3.021  -3.954  -3.873  0.00  0.00    +0.203 C 
ATOM     18  O   UNL     1       2.946  -4.539  -2.814  0.00  0.00    -0.277 OA
ATOM     19  N   UNL     1       3.119  -4.651  -5.022  0.00  0.00    -0.242 N 
ATOM     20  C   UNL     1       3.135  -5.999  -4.994  0.00  0.00    +0.306 C 
ATOM     21  O   UNL     1       3.060  -6.585  -3.932  0.00  0.00    -0.252 OA
ATOM     22  N   UNL     1       3.233  -6.696  -6.143  0.00  0.00    -0.302 N 
ATOM     23  C   UNL     1       3.250  -8.161  -6.112  0.00  0.00    +0.129 C 
ATOM     24  H   UNL     1       3.187  -4.121  -5.983  0.00  0.00    +0.159 HD
ATOM     25  H   UNL     1       3.301  -6.165  -7.104  0.00  0.00    +0.150 HD
ENDBRANCH  16  17
ENDBRANCH   1  16
TORSDOF 4
