REMARK  Name = ZINC65799284
REMARK  2 active torsions:
REMARK  status: ('A' for Active; 'I' for Inactive)
REMARK    1  A    between atoms: N_12  and  N_13
REMARK    2  A    between atoms: N_16  and  C_17
REMARK                            x       y       z     vdW  Elec       q    Type
REMARK                         _______ _______ _______ _____ _____    ______ ____
ROOT
ATOM      1  N   UNL     1       1.929  -6.627  -0.068  0.00  0.00    -0.219 N 
ATOM      2  C   UNL     1       2.280  -7.929  -0.073  0.00  0.00    +0.320 C 
ATOM      3  O   UNL     1       1.421  -8.789  -0.071  0.00  0.00    -0.251 OA
ATOM      4  N   UNL     1       3.582  -8.276  -0.082  0.00  0.00    -0.267 N 
ATOM      5  H   UNL     1       0.992  -6.377  -0.062  0.00  0.00    +0.174 HD
ATOM      6  H   UNL     1       4.266  -7.592  -0.153  0.00  0.00    +0.156 HD
ENDROOT
BRANCH   1  18
ATOM      7  C   UNL     1      -0.017   1.349  -0.035  0.00  0.00    +0.041 A 
ATOM      8  C   UNL     1       1.308   1.799  -0.048  0.00  0.00    +0.135 A 
ATOM      9  N   UNL     1       2.097   0.755  -0.056  0.00  0.00    -0.173 NA
ATOM     10  N   UNL     1       1.301  -0.397  -0.049  0.00  0.00    -0.220 N 
ATOM     11  C   UNL     1       0.001  -0.004  -0.036  0.00  0.00    +0.116 A 
ATOM     12  C   UNL     1       1.763  -1.719  -0.055  0.00  0.00    +0.176 A 
ATOM     13  C   UNL     1       3.133  -1.980  -0.064  0.00  0.00    +0.053 A 
ATOM     14  C   UNL     1       3.542  -3.302  -0.069  0.00  0.00    +0.050 A 
ATOM     15  C   UNL     1       2.558  -4.292  -0.066  0.00  0.00    +0.158 A 
ATOM     16  N   UNL     1       1.279  -3.948  -0.058  0.00  0.00    -0.131 NA
ATOM     17  N   UNL     1       0.901  -2.722  -0.048  0.00  0.00    -0.128 NA
ATOM     18  N   UNL     1       2.919  -5.636  -0.071  0.00  0.00    -0.246 N 
ATOM     19  H   UNL     1       3.856  -5.886  -0.077  0.00  0.00    +0.172 HD
ENDBRANCH   1  18
BRANCH   4  20
ATOM     20  C   UNL     1       3.948  -9.627   0.012  0.00  0.00    +0.051 A 
ATOM     21  C   UNL     1       3.165 -10.613  -0.587  0.00  0.00    +0.028 A 
ATOM     22  C   UNL     1       3.564 -11.932  -0.469  0.00  0.00    +0.043 A 
ATOM     23  C   UNL     1       4.725 -12.229   0.238  0.00  0.00    +0.099 A 
ATOM     24  N   UNL     1       5.443 -11.266   0.793  0.00  0.00    -0.348 N 
ATOM     25  C   UNL     1       5.095  -9.997   0.697  0.00  0.00    +0.107 A 
ATOM     26  N   UNL     1       5.135 -13.553   0.363  0.00  0.00    -0.317 N 
ATOM     27  C   UNL     1       4.444 -14.721  -0.204  0.00  0.00    +0.106 C 
ATOM     28  C   UNL     1       5.245 -15.973   0.211  0.00  0.00    +0.020 C 
ATOM     29  C   UNL     1       6.026 -15.487   1.461  0.00  0.00    +0.020 C 
ATOM     30  C   UNL     1       6.337 -14.017   1.079  0.00  0.00    +0.106 C 
ATOM     31  H   UNL     1       6.248 -11.499   1.282  0.00  0.00    +0.167 HD
ENDBRANCH   4  20
TORSDOF 2
