REMARK  Name = ZINC44686718
REMARK  5 active torsions:
REMARK  status: ('A' for Active; 'I' for Inactive)
REMARK    1  A    between atoms: C_5  and  S_8
REMARK    2  A    between atoms: C_6  and  N_7
REMARK    3  A    between atoms: S_8  and  N_11
REMARK    4  A    between atoms: N_11  and  C_12
REMARK    5  A    between atoms: N_16  and  C_18
REMARK                            x       y       z     vdW  Elec       q    Type
REMARK                         _______ _______ _______ _____ _____    ______ ____
ROOT
ATOM      1  S   UNL     1       1.012  -2.286  -0.966  0.00  0.00    +0.061 S 
ATOM      2  O   UNL     1      -0.357  -2.538  -1.254  0.00  0.00    -0.153 OA
ATOM      3  O   UNL     1       2.039  -2.466  -1.931  0.00  0.00    -0.153 OA
ENDROOT
BRANCH   1   8
ATOM      4  C   UNL     1       0.058   1.366   0.442  0.00  0.00    +0.040 A 
ATOM      5  C   UNL     1       1.274   2.022   0.416  0.00  0.00    +0.021 A 
ATOM      6  C   UNL     1       2.407   1.366  -0.030  0.00  0.00    +0.032 A 
ATOM      7  C   UNL     1       2.326   0.050  -0.452  0.00  0.00    +0.047 A 
ATOM      8  C   UNL     1       1.113  -0.611  -0.428  0.00  0.00    +0.140 A 
ATOM      9  C   UNL     1      -0.026   0.046   0.019  0.00  0.00    +0.053 A 
ATOM     10 BR   UNL     1       3.878  -0.843  -1.062  0.00  0.00    -0.048 Br
ATOM     11 BR   UNL     1       1.389   3.820   0.991  0.00  0.00    -0.050 Br
BRANCH   9  12
ATOM     12  N   UNL     1      -1.253  -0.621   0.044  0.00  0.00    -0.356 N 
ATOM     13  H   UNL     1      -2.080  -0.117  -0.024  0.00  0.00    +0.142 HD
ATOM     14  H   UNL     1      -1.279  -1.586   0.129  0.00  0.00    +0.142 HD
ENDBRANCH   9  12
ENDBRANCH   1   8
BRANCH   1  15
ATOM     15  N   UNL     1       1.406  -3.241   0.328  0.00  0.00    -0.189 NA
ATOM     16  H   UNL     1       2.207  -3.788   0.301  0.00  0.00    +0.148 HD
BRANCH  15  17
ATOM     17  C   UNL     1       0.547  -3.259   1.515  0.00  0.00    +0.058 C 
ATOM     18  C   UNL     1      -0.396  -4.490   1.491  0.00  0.00    -0.000 C 
ATOM     19  C   UNL     1      -0.672  -4.703   3.000  0.00  0.00    -0.077 C 
ATOM     20  N   UNL     1       0.610  -4.386   3.666  0.00  0.00    +0.383 N 
ATOM     21  C   UNL     1       1.384  -3.481   2.792  0.00  0.00    -0.058 C 
ATOM     22  H   UNL     1       1.130  -5.236   3.824  0.00  0.00    -0.081 HD
BRANCH  20  23
ATOM     23  C   UNL     1       0.348  -3.722   4.950  0.00  0.00    -0.069 C 
ATOM     24  C   UNL     1       1.064  -4.269   6.187  0.00  0.00    -0.017 C 
ATOM     25  C   UNL     1      -0.437  -4.506   6.004  0.00  0.00    -0.017 C 
ENDBRANCH  20  23
ENDBRANCH  15  17
ENDBRANCH   1  15
TORSDOF 5
