REMARK  Name = ZINC59170675
REMARK  10 active torsions:
REMARK  status: ('A' for Active; 'I' for Inactive)
REMARK    1  A    between atoms: C_1  and  C_2
REMARK    2  A    between atoms: C_2  and  N_3
REMARK    3  A    between atoms: N_3  and  C_4
REMARK    4  A    between atoms: N_3  and  C_6
REMARK    5  A    between atoms: C_4  and  C_5
REMARK    6  A    between atoms: C_11  and  C_27
REMARK    7  A    between atoms: N_13  and  C_14
REMARK    8  A    between atoms: C_17  and  S_20
REMARK    9  A    between atoms: S_20  and  N_23
REMARK   10  A    between atoms: N_29  and  C_30
REMARK                            x       y       z     vdW  Elec       q    Type
REMARK                         _______ _______ _______ _____ _____    ______ ____
ROOT
ATOM      1  C   UNL     1       1.944  -0.859   1.402  0.00  0.00    +0.033 A 
ATOM      2  C   UNL     1       2.638   0.118   0.686  0.00  0.00    +0.024 A 
ATOM      3  C   UNL     1       3.987   0.250   0.827  0.00  0.00    +0.013 A 
ATOM      4  C   UNL     1       4.688  -0.607   1.689  0.00  0.00    +0.018 A 
ATOM      5  C   UNL     1       6.096  -0.502   1.815  0.00  0.00    +0.030 A 
ATOM      6  C   UNL     1       6.767  -1.493   2.519  0.00  0.00    +0.098 A 
ATOM      7  C   UNL     1       5.961  -2.606   3.059  0.00  0.00    +0.212 A 
ATOM      8  N   UNL     1       6.495  -3.787   3.283  0.00  0.00    -0.325 N 
ATOM      9  O   UNL     1       4.649  -2.366   3.316  0.00  0.00    -0.438 OA
ATOM     10  C   UNL     1       3.987  -1.575   2.436  0.00  0.00    +0.139 A 
ATOM     11  C   UNL     1       2.618  -1.698   2.281  0.00  0.00    +0.070 A 
ATOM     12  H   UNL     1       7.405  -3.969   3.003  0.00  0.00    +0.169 HD
ENDROOT
BRANCH   8  13
ATOM     13  C   UNL     1       5.766  -4.758   3.912  0.00  0.00    +0.042 A 
ATOM     14  C   UNL     1       5.012  -4.447   5.046  0.00  0.00    +0.027 A 
ATOM     15  C   UNL     1       4.279  -5.431   5.675  0.00  0.00    +0.030 A 
ATOM     16  C   UNL     1       4.289  -6.725   5.185  0.00  0.00    +0.105 A 
ATOM     17  C   UNL     1       5.034  -7.042   4.062  0.00  0.00    +0.030 A 
ATOM     18  C   UNL     1       5.767  -6.066   3.420  0.00  0.00    +0.027 A 
BRANCH  16  19
ATOM     19  S   UNL     1       3.349  -7.976   5.995  0.00  0.00    +0.056 S 
ATOM     20  O   UNL     1       3.956  -9.218   5.665  0.00  0.00    -0.153 OA
ATOM     21  O   UNL     1       3.174  -7.547   7.338  0.00  0.00    -0.153 OA
BRANCH  19  22
ATOM     22  N   UNL     1       1.845  -7.986   5.301  0.00  0.00    -0.204 NA
ATOM     23  H   UNL     1       1.335  -8.810   5.260  0.00  0.00    +0.144 HD
ATOM     24  H   UNL     1       1.475  -7.167   4.935  0.00  0.00    +0.144 HD
ENDBRANCH  19  22
ENDBRANCH  16  19
ENDBRANCH   8  13
BRANCH   6  25
ATOM     25  C   UNL     1       8.223  -1.437   2.719  0.00  0.00    +0.253 C 
ATOM     26  O   UNL     1       8.883  -0.587   2.150  0.00  0.00    -0.270 OA
ATOM     27  N   UNL     1       8.827  -2.326   3.532  0.00  0.00    -0.281 N 
ATOM     28  H   UNL     1       8.311  -3.040   3.938  0.00  0.00    +0.155 HD
BRANCH  27  29
ATOM     29  C   UNL     1      10.198  -2.219   3.790  0.00  0.00    +0.034 A 
ATOM     30  C   UNL     1      11.054  -1.729   2.812  0.00  0.00    +0.026 A 
ATOM     31  C   UNL     1      12.407  -1.625   3.069  0.00  0.00    +0.040 A 
ATOM     32  C   UNL     1      12.911  -2.009   4.300  0.00  0.00    +0.124 A 
ATOM     33  C   UNL     1      12.059  -2.498   5.277  0.00  0.00    +0.040 A 
ATOM     34  C   UNL     1      10.705  -2.599   5.026  0.00  0.00    +0.026 A 
ATOM     35  F   UNL     1      14.235  -1.907   4.549  0.00  0.00    -0.205 F 
ENDBRANCH  27  29
ENDBRANCH   6  25
BRANCH   1  36
ATOM     36  N   UNL     1       0.570  -0.990   1.239  0.00  0.00    -0.330 N 
BRANCH  36  38
ATOM     37  C   UNL     1      -0.611   1.144   1.059  0.00  0.00    +0.024 C 
ATOM     38  C   UNL     1      -0.145  -0.108   0.313  0.00  0.00    +0.102 C 
ENDBRANCH  36  38
BRANCH  36  39
ATOM     39  C   UNL     1      -0.163  -2.011   1.992  0.00  0.00    +0.102 C 
ATOM     40  C   UNL     1      -0.201  -3.311   1.187  0.00  0.00    +0.024 C 
ENDBRANCH  36  39
ENDBRANCH   1  36
TORSDOF 8
