REMARK  Name = ZINC64886060
REMARK  8 active torsions:
REMARK  status: ('A' for Active; 'I' for Inactive)
REMARK    1  A    between atoms: C_1  and  C_2
REMARK    2  A    between atoms: C_7  and  C_13
REMARK    3  A    between atoms: C_8  and  C_12
REMARK    4  A    between atoms: N_15  and  N_16
REMARK    5  A    between atoms: N_19  and  C_20
REMARK    6  A    between atoms: C_20  and  C_21
REMARK    7  A    between atoms: C_21  and  C_22
REMARK    8  A    between atoms: C_22  and  N_23
REMARK                            x       y       z     vdW  Elec       q    Type
REMARK                         _______ _______ _______ _____ _____    ______ ____
ROOT
ATOM      1  C   UNL     1       0.559  -6.256   1.364  0.00  0.00    +0.262 C 
ATOM      2  O   UNL     1       0.644  -6.764   2.466  0.00  0.00    -0.269 OA
ATOM      3  N   UNL     1       0.699  -7.015   0.259  0.00  0.00    -0.229 N 
ATOM      4  H   UNL     1       0.630  -6.610  -0.619  0.00  0.00    +0.173 HD
ENDROOT
BRANCH   1  11
ATOM      5  C   UNL     1      -0.692   1.389  -0.215  0.00  0.00    +0.044 C 
ATOM      6  C   UNL     1      -0.421  -0.092  -0.152  0.00  0.00    -0.048 A 
ATOM      7  C   UNL     1      -0.153  -0.790  -1.327  0.00  0.00    +0.004 A 
ATOM      8  C   UNL     1       0.095  -2.129  -1.302  0.00  0.00    +0.010 A 
ATOM      9  C   UNL     1       0.081  -2.815  -0.076  0.00  0.00    +0.001 A 
ATOM     10  C   UNL     1       0.333  -4.196  -0.011  0.00  0.00    +0.025 A 
ATOM     11  C   UNL     1       0.302  -4.806   1.237  0.00  0.00    +0.060 A 
ATOM     12  C   UNL     1       0.024  -4.034   2.378  0.00  0.00    +0.051 A 
ATOM     13  N   UNL     1      -0.208  -2.749   2.295  0.00  0.00    -0.251 NA
ATOM     14  C   UNL     1      -0.192  -2.106   1.121  0.00  0.00    +0.072 A 
ATOM     15  C   UNL     1      -0.438  -0.724   1.054  0.00  0.00    +0.031 A 
ATOM     16  C   UNL     1      -0.009  -4.701   3.729  0.00  0.00    +0.066 C 
ENDBRANCH   1  11
BRANCH   3  17
ATOM     17  N   UNL     1       0.942  -8.389   0.380  0.00  0.00    -0.218 N 
ATOM     18  C   UNL     1       1.082  -9.148  -0.725  0.00  0.00    +0.316 C 
ATOM     19  O   UNL     1       1.294 -10.341  -0.621  0.00  0.00    -0.251 OA
ATOM     20  N   UNL     1       0.987  -8.585  -1.946  0.00  0.00    -0.298 N 
ATOM     21  H   UNL     1       1.011  -8.795   1.258  0.00  0.00    +0.174 HD
ATOM     22  H   UNL     1       0.819  -7.634  -2.029  0.00  0.00    +0.150 HD
BRANCH  20  23
ATOM     23  C   UNL     1       1.139  -9.410  -3.147  0.00  0.00    +0.107 C 
BRANCH  23  24
ATOM     24  C   UNL     1       0.989  -8.532  -4.391  0.00  0.00    +0.040 C 
BRANCH  24  25
ATOM     25  C   UNL     1       1.147  -9.394  -5.645  0.00  0.00    +0.124 C 
BRANCH  25  26
ATOM     26  N   UNL     1       1.003  -8.553  -6.837  0.00  0.00    -0.338 N 
ATOM     27  C   UNL     1      -0.163  -8.275  -7.498  0.00  0.00    +0.104 A 
ATOM     28  C   UNL     1       0.157  -7.470  -8.529  0.00  0.00    +0.101 A 
ATOM     29  N   UNL     1       1.482  -7.262  -8.498  0.00  0.00    -0.352 N 
ATOM     30  C   UNL     1       1.994  -7.904  -7.484  0.00  0.00    +0.173 A 
ATOM     31  H   UNL     1       1.979  -6.717  -9.127  0.00  0.00    +0.166 HD
ENDBRANCH  25  26
ENDBRANCH  24  25
ENDBRANCH  23  24
ENDBRANCH  20  23
ENDBRANCH   3  17
TORSDOF 6
