REMARK  Name = ZINC40754718
REMARK  10 active torsions:
REMARK  status: ('A' for Active; 'I' for Inactive)
REMARK    1  A    between atoms: C_1  and  C_2
REMARK    2  A    between atoms: C_2  and  C_3
REMARK    3  A    between atoms: C_3  and  C_4
REMARK    4  A    between atoms: C_4  and  O_5
REMARK    5  A    between atoms: O_5  and  C_6
REMARK    6  A    between atoms: C_9  and  N_12
REMARK    7  A    between atoms: C_14  and  N_27
REMARK    8  A    between atoms: C_15  and  N_19
REMARK    9  A    between atoms: N_19  and  N_20
REMARK   10  A    between atoms: N_23  and  C_26
REMARK                            x       y       z     vdW  Elec       q    Type
REMARK                         _______ _______ _______ _____ _____    ______ ____
ROOT
ATOM      1  N   UNL     1      -3.403  -8.048  -0.009  0.00  0.00    -0.298 N 
ATOM      2  C   UNL     1      -4.675  -8.598   0.100  0.00  0.00    +0.149 A 
ATOM      3  C   UNL     1      -4.844  -9.980   0.205  0.00  0.00    +0.107 A 
ATOM      4  C   UNL     1      -6.143 -10.480   0.313  0.00  0.00    +0.158 A 
ATOM      5  N   UNL     1      -7.164  -9.626   0.311  0.00  0.00    -0.218 NA
ATOM      6  C   UNL     1      -6.961  -8.328   0.209  0.00  0.00    +0.225 A 
ATOM      7  N   UNL     1      -5.752  -7.815   0.111  0.00  0.00    -0.219 NA
ATOM      8  H   UNL     1      -2.630  -8.628  -0.093  0.00  0.00    +0.154 HD
ENDROOT
BRANCH   1  12
ATOM      9  C   UNL     1      -2.910  -3.909   0.030  0.00  0.00    +0.121 A 
ATOM     10  C   UNL     1      -3.930  -4.493   0.768  0.00  0.00    +0.047 A 
ATOM     11  C   UNL     1      -4.094  -5.864   0.756  0.00  0.00    +0.027 A 
ATOM     12  C   UNL     1      -3.238  -6.658   0.004  0.00  0.00    +0.033 A 
ATOM     13  C   UNL     1      -2.218  -6.073  -0.735  0.00  0.00    +0.027 A 
ATOM     14  C   UNL     1      -2.058  -4.701  -0.725  0.00  0.00    +0.047 A 
BRANCH   9  15
ATOM     15  O   UNL     1      -2.750  -2.559   0.043  0.00  0.00    -0.492 OA
BRANCH  15  16
ATOM     16  C   UNL     1      -3.663  -1.804   0.843  0.00  0.00    +0.229 C 
BRANCH  16  17
ATOM     17  C   UNL     1      -3.328  -0.316   0.732  0.00  0.00    +0.041 C 
BRANCH  17  19
ATOM     18  C   UNL     1      -3.970   1.981   1.477  0.00  0.00    +0.004 C 
ATOM     19  C   UNL     1      -4.305   0.492   1.588  0.00  0.00    -0.000 C 
ENDBRANCH  17  19
ENDBRANCH  16  17
ENDBRANCH  15  16
ENDBRANCH   9  15
ENDBRANCH   1  12
BRANCH   3  20
ATOM     20  N   UNL     1      -3.737 -10.844   0.203  0.00  0.00    -0.353 N 
ATOM     21  H   UNL     1      -2.840 -10.483   0.127  0.00  0.00    +0.143 HD
ATOM     22  H   UNL     1      -3.869 -11.802   0.277  0.00  0.00    +0.143 HD
ENDBRANCH   3  20
BRANCH   4  23
ATOM     23  N   UNL     1      -6.367 -11.847   0.420  0.00  0.00    -0.261 N 
ATOM     24  H   UNL     1      -5.617 -12.463   0.420  0.00  0.00    +0.168 HD
BRANCH  23  25
ATOM     25  N   UNL     1      -7.642 -12.324   0.524  0.00  0.00    -0.232 NA
ATOM     26  C   UNL     1      -7.851 -12.992   1.817  0.00  0.00    +0.087 C 
ATOM     27  C   UNL     1      -9.305 -13.458   1.918  0.00  0.00    -0.062 C 
ATOM     28  N   UNL     1      -9.600 -14.384   0.816  0.00  0.00    +0.380 N 
ATOM     29  C   UNL     1      -9.411 -13.695  -0.468  0.00  0.00    -0.062 C 
ATOM     30  C   UNL     1      -7.958 -13.231  -0.589  0.00  0.00    +0.087 C 
ATOM     31  C   UNL     1     -10.991 -14.845   0.924  0.00  0.00    -0.096 C 
ATOM     32  H   UNL     1      -8.978 -15.177   0.867  0.00  0.00    -0.082 HD
ENDBRANCH  23  25
ENDBRANCH   4  23
TORSDOF 8
