REMARK  Name = ZINC11053601
REMARK  13 active torsions:
REMARK  status: ('A' for Active; 'I' for Inactive)
REMARK    1  A    between atoms: C_1  and  C_2
REMARK    2  A    between atoms: C_2  and  O_3
REMARK    3  A    between atoms: O_3  and  C_4
REMARK    4  A    between atoms: C_7  and  C_10
REMARK    5  A    between atoms: C_10  and  C_11
REMARK    6  A    between atoms: C_11  and  C_12
REMARK    7  A    between atoms: N_15  and  C_18
REMARK    8  A    between atoms: C_18  and  C_20
REMARK    9  A    between atoms: C_18  and  C_21
REMARK   10  A    between atoms: C_21  and  C_23
REMARK   11  A    between atoms: C_24  and  N_33
REMARK   12  A    between atoms: N_25  and  C_32
REMARK   13  A    between atoms: N_28  and  C_31
REMARK                            x       y       z     vdW  Elec       q    Type
REMARK                         _______ _______ _______ _____ _____    ______ ____
ROOT
ATOM      1  C   UNL     1       1.921  -8.422   0.583  0.00  0.00    -0.014 C 
ATOM      2  C   UNL     1       2.242  -8.519   2.077  0.00  0.00    -0.015 C 
ATOM      3  C   UNL     1       2.604  -9.965   2.422  0.00  0.00    -0.078 C 
ATOM      4  N   UNL     1       3.775 -10.380   1.641  0.00  0.00    +0.386 N 
ATOM      5  C   UNL     1       3.452 -10.358   0.210  0.00  0.00    -0.078 C 
ATOM      6  C   UNL     1       3.123  -8.927  -0.221  0.00  0.00    -0.015 C 
ATOM      7  H   UNL     1       4.540  -9.748   1.822  0.00  0.00    -0.081 HD
ENDROOT
BRANCH   4   8
ATOM      8  C   UNL     1       4.165 -11.741   2.033  0.00  0.00    +0.001 C 
ATOM      9  C   UNL     1       4.511 -11.764   3.523  0.00  0.00    -0.005 C 
BRANCH   8  10
ATOM     10  C   UNL     1       5.368 -12.169   1.231  0.00  0.00    +0.158 C 
ATOM     11  O   UNL     1       6.069 -11.334   0.697  0.00  0.00    -0.294 OA
BRANCH  10  12
ATOM     12  C   UNL     1       5.679 -13.539   1.102  0.00  0.00    +0.118 A 
ATOM     13  C   UNL     1       6.868 -13.958   0.481  0.00  0.00    +0.116 A 
ATOM     14  N   UNL     1       7.125 -15.295   0.380  0.00  0.00    -0.284 N 
ATOM     15  C   UNL     1       6.268 -16.209   0.861  0.00  0.00    +0.333 A 
ATOM     16  O   UNL     1       6.543 -17.387   0.746  0.00  0.00    -0.246 OA
ATOM     17  N   UNL     1       5.117 -15.869   1.464  0.00  0.00    -0.263 N 
ATOM     18  C   UNL     1       4.774 -14.574   1.619  0.00  0.00    +0.269 A 
ATOM     19  O   UNL     1       3.732 -14.269   2.171  0.00  0.00    -0.267 OA
ATOM     20  C   UNL     1       4.227 -16.918   1.966  0.00  0.00    +0.157 C 
ATOM     21  C   UNL     1       8.362 -15.742  -0.267  0.00  0.00    +0.155 C 
BRANCH  13  22
ATOM     22  N   UNL     1       7.748 -13.046  -0.013  0.00  0.00    -0.344 N 
ATOM     23  H   UNL     1       7.675 -12.113   0.244  0.00  0.00    +0.144 HD
ATOM     24  H   UNL     1       8.448 -13.328  -0.623  0.00  0.00    +0.144 HD
ENDBRANCH  13  22
ENDBRANCH  10  12
ENDBRANCH   8  10
ENDBRANCH   4   8
BRANCH   1  25
ATOM     25  C   UNL     1       1.636  -6.964   0.215  0.00  0.00    +0.008 C 
BRANCH  25  26
ATOM     26  C   UNL     1       0.362  -6.499   0.923  0.00  0.00    +0.035 C 
BRANCH  26  30
ATOM     27  C   UNL     1      -0.435  -2.428  -0.105  0.00  0.00    +0.121 A 
ATOM     28  C   UNL     1      -0.960  -3.455  -0.875  0.00  0.00    +0.046 A 
ATOM     29  C   UNL     1      -0.701  -4.771  -0.541  0.00  0.00    +0.007 A 
ATOM     30  C   UNL     1       0.082  -5.064   0.561  0.00  0.00    -0.047 A 
ATOM     31  C   UNL     1       0.606  -4.042   1.330  0.00  0.00    +0.007 A 
ATOM     32  C   UNL     1       0.355  -2.725   0.997  0.00  0.00    +0.046 A 
BRANCH  27  33
ATOM     33  O   UNL     1      -0.688  -1.134  -0.432  0.00  0.00    -0.492 OA
BRANCH  33  35
ATOM     34  C   UNL     1      -1.681   0.603  -1.788  0.00  0.00    +0.048 C 
ATOM     35  C   UNL     1      -1.509  -0.903  -1.579  0.00  0.00    +0.225 C 
ENDBRANCH  33  35
ENDBRANCH  27  33
ENDBRANCH  26  30
ENDBRANCH  25  26
ENDBRANCH   1  25
TORSDOF 9
