REMARK  Name = ZINC41584861
REMARK  11 active torsions:
REMARK  status: ('A' for Active; 'I' for Inactive)
REMARK    1  A    between atoms: C_1  and  C_2
REMARK    2  A    between atoms: C_4  and  O_37
REMARK    3  A    between atoms: C_5  and  C_23
REMARK    4  A    between atoms: C_11  and  C_12
REMARK    5  A    between atoms: C_16  and  O_20
REMARK    6  A    between atoms: C_17  and  O_18
REMARK    7  A    between atoms: O_18  and  C_19
REMARK    8  A    between atoms: O_20  and  C_21
REMARK    9  A    between atoms: C_23  and  N_24
REMARK   10  A    between atoms: N_27  and  C_30
REMARK   11  A    between atoms: C_30  and  C_31
REMARK                            x       y       z     vdW  Elec       q    Type
REMARK                         _______ _______ _______ _____ _____    ______ ____
ROOT
ATOM      1  C   UNL     1      -0.650   1.599   0.132  0.00  0.00    +0.045 C 
ATOM      2  C   UNL     1      -0.758   0.096   0.112  0.00  0.00    -0.033 A 
ATOM      3  C   UNL     1      -1.038  -0.555  -1.057  0.00  0.00    +0.050 A 
ATOM      4  C   UNL     1      -1.138  -1.943  -1.078  0.00  0.00    +0.122 A 
ATOM      5  C   UNL     1      -0.956  -2.680   0.081  0.00  0.00    +0.020 A 
ATOM      6  C   UNL     1      -0.671  -2.034   1.278  0.00  0.00    +0.145 A 
ATOM      7  C   UNL     1      -0.567  -0.634   1.285  0.00  0.00    +0.071 A 
ATOM      8  C   UNL     1      -0.255  -0.248   2.673  0.00  0.00    +0.232 C 
ATOM      9  O   UNL     1      -0.086   0.875   3.115  0.00  0.00    -0.283 OA
ATOM     10  C   UNL     1      -0.192  -1.521   3.405  0.00  0.00    +0.176 C 
ATOM     11  C   UNL     1       0.070  -1.674   4.728  0.00  0.00    +0.062 C 
ATOM     12  O   UNL     1      -0.455  -2.514   2.522  0.00  0.00    -0.451 OA
ENDROOT
BRANCH  11  13
ATOM     13  C   UNL     1      -0.017  -3.002   5.345  0.00  0.00    +0.024 A 
ATOM     14  C   UNL     1      -0.010  -4.153   4.545  0.00  0.00    +0.012 A 
ATOM     15  C   UNL     1      -0.092  -5.397   5.129  0.00  0.00    +0.004 A 
ATOM     16  C   UNL     1      -0.181  -5.520   6.506  0.00  0.00    +0.049 A 
ATOM     17  C   UNL     1      -0.190  -4.393   7.312  0.00  0.00    +0.162 A 
ATOM     18  C   UNL     1      -0.102  -3.129   6.740  0.00  0.00    +0.169 A 
BRANCH  18  19
ATOM     19  O   UNL     1      -0.104  -2.022   7.527  0.00  0.00    -0.491 OA
ATOM     20  C   UNL     1      -1.376  -1.444   7.830  0.00  0.00    +0.277 C 
ENDBRANCH  18  19
BRANCH  17  21
ATOM     21  O   UNL     1      -0.279  -4.524   8.663  0.00  0.00    -0.491 OA
ATOM     22  C   UNL     1      -0.359  -5.853   9.182  0.00  0.00    +0.277 C 
ENDBRANCH  17  21
ENDBRANCH  11  13
BRANCH   4  23
ATOM     23  O   UNL     1      -1.416  -2.580  -2.244  0.00  0.00    -0.506 OA
ATOM     24  H   UNL     1      -0.633  -2.824  -2.755  0.00  0.00    +0.292 HD
ENDBRANCH   4  23
BRANCH   5  25
ATOM     25  C   UNL     1      -1.068  -4.183   0.044  0.00  0.00    -0.035 C 
BRANCH  25  26
ATOM     26  N   UNL     1       0.250  -4.765  -0.240  0.00  0.00    +0.384 N 
ATOM     27  C   UNL     1       0.678  -4.372  -1.589  0.00  0.00    -0.063 C 
ATOM     28  C   UNL     1       2.060  -4.963  -1.879  0.00  0.00    +0.066 C 
ATOM     29  N   UNL     1       1.995  -6.427  -1.774  0.00  0.00    -0.302 NA
ATOM     30  C   UNL     1       1.544  -6.835  -0.436  0.00  0.00    +0.066 C 
ATOM     31  C   UNL     1       0.167  -6.229  -0.159  0.00  0.00    -0.063 C 
ATOM     32  H   UNL     1       0.919  -4.428   0.436  0.00  0.00    -0.081 HD
BRANCH  29  33
ATOM     33  C   UNL     1       3.291  -7.036  -2.101  0.00  0.00    +0.119 C 
BRANCH  33  34
ATOM     34  C   UNL     1       3.128  -8.530  -2.224  0.00  0.00    -0.033 A 
ATOM     35  C   UNL     1       3.285  -9.336  -1.112  0.00  0.00    +0.005 A 
ATOM     36  C   UNL     1       3.135 -10.705  -1.224  0.00  0.00    +0.000 A 
ATOM     37  C   UNL     1       2.828 -11.269  -2.449  0.00  0.00    +0.000 A 
ATOM     38  C   UNL     1       2.670 -10.463  -3.561  0.00  0.00    +0.000 A 
ATOM     39  C   UNL     1       2.816  -9.092  -3.447  0.00  0.00    +0.005 A 
ENDBRANCH  33  34
ENDBRANCH  29  33
ENDBRANCH  25  26
ENDBRANCH   5  25
TORSDOF 8
