REMARK  Name = ZINC41585095
REMARK  12 active torsions:
REMARK  status: ('A' for Active; 'I' for Inactive)
REMARK    1  A    between atoms: C_1  and  C_2
REMARK    2  A    between atoms: C_4  and  O_38
REMARK    3  A    between atoms: C_5  and  C_25
REMARK    4  A    between atoms: C_11  and  C_12
REMARK    5  A    between atoms: C_14  and  O_22
REMARK    6  A    between atoms: C_15  and  O_20
REMARK    7  A    between atoms: C_17  and  O_18
REMARK    8  A    between atoms: O_18  and  C_19
REMARK    9  A    between atoms: O_20  and  C_21
REMARK   10  A    between atoms: O_22  and  C_23
REMARK   11  A    between atoms: C_25  and  N_26
REMARK   12  A    between atoms: N_29  and  C_32
REMARK                            x       y       z     vdW  Elec       q    Type
REMARK                         _______ _______ _______ _____ _____    ______ ____
ROOT
ATOM      1  C   UNL     1      -0.621   1.492   0.033  0.00  0.00    +0.045 C 
ATOM      2  C   UNL     1      -0.637  -0.015   0.042  0.00  0.00    -0.033 A 
ATOM      3  C   UNL     1      -0.827  -0.704  -1.123  0.00  0.00    +0.050 A 
ATOM      4  C   UNL     1      -0.843  -2.096  -1.117  0.00  0.00    +0.122 A 
ATOM      5  C   UNL     1      -0.668  -2.798   0.065  0.00  0.00    +0.020 A 
ATOM      6  C   UNL     1      -0.473  -2.112   1.258  0.00  0.00    +0.145 A 
ATOM      7  C   UNL     1      -0.454  -0.708   1.238  0.00  0.00    +0.071 A 
ATOM      8  C   UNL     1      -0.226  -0.277   2.630  0.00  0.00    +0.232 C 
ATOM      9  O   UNL     1      -0.146   0.864   3.053  0.00  0.00    -0.283 OA
ATOM     10  C   UNL     1      -0.119  -1.527   3.390  0.00  0.00    +0.176 C 
ATOM     11  C   UNL     1       0.093  -1.637   4.729  0.00  0.00    +0.062 C 
ATOM     12  O   UNL     1      -0.282  -2.552   2.520  0.00  0.00    -0.451 OA
ENDROOT
BRANCH  11  13
ATOM     13  C   UNL     1       0.023  -2.949   5.377  0.00  0.00    +0.024 A 
ATOM     14  C   UNL     1      -0.587  -4.027   4.719  0.00  0.00    +0.061 A 
ATOM     15  C   UNL     1      -0.650  -5.260   5.334  0.00  0.00    +0.162 A 
ATOM     16  C   UNL     1      -0.110  -5.436   6.609  0.00  0.00    +0.165 A 
ATOM     17  C   UNL     1       0.494  -4.375   7.266  0.00  0.00    +0.095 A 
ATOM     18  C   UNL     1       0.571  -3.134   6.658  0.00  0.00    +0.131 A 
BRANCH  18  19
ATOM     19  O   UNL     1       1.168  -2.098   7.299  0.00  0.00    -0.494 OA
ATOM     20  C   UNL     1       1.702  -2.360   8.598  0.00  0.00    +0.277 C 
ENDBRANCH  18  19
BRANCH  16  21
ATOM     21  O   UNL     1      -0.176  -6.653   7.209  0.00  0.00    -0.491 OA
ATOM     22  C   UNL     1       0.397  -6.765   8.514  0.00  0.00    +0.277 C 
ENDBRANCH  16  21
BRANCH  15  23
ATOM     23  O   UNL     1      -1.241  -6.306   4.697  0.00  0.00    -0.491 OA
ATOM     24  C   UNL     1      -1.774  -6.056   3.395  0.00  0.00    +0.277 C 
ENDBRANCH  15  23
ENDBRANCH  11  13
BRANCH   4  25
ATOM     25  O   UNL     1      -1.033  -2.771  -2.279  0.00  0.00    -0.506 OA
ATOM     26  H   UNL     1      -0.215  -2.978  -2.752  0.00  0.00    +0.292 HD
ENDBRANCH   4  25
BRANCH   5  27
ATOM     27  C   UNL     1      -0.688  -4.304   0.056  0.00  0.00    -0.035 C 
BRANCH  27  28
ATOM     28  N   UNL     1       0.673  -4.812  -0.160  0.00  0.00    +0.385 N 
ATOM     29  C   UNL     1       1.136  -4.412  -1.495  0.00  0.00    -0.059 C 
ATOM     30  C   UNL     1       2.596  -4.841  -1.678  0.00  0.00    +0.086 C 
ATOM     31  N   UNL     1       2.695  -6.283  -1.407  0.00  0.00    -0.333 N 
ATOM     32  C   UNL     1       2.108  -6.797  -0.160  0.00  0.00    +0.086 C 
ATOM     33  C   UNL     1       0.672  -6.276  -0.049  0.00  0.00    -0.059 C 
ATOM     34  H   UNL     1       1.290  -4.423   0.537  0.00  0.00    -0.081 HD
BRANCH  31  35
ATOM     35  C   UNL     1       3.330  -7.141  -2.309  0.00  0.00    +0.030 A 
ATOM     36  C   UNL     1       4.004  -6.622  -3.407  0.00  0.00    +0.023 A 
ATOM     37  C   UNL     1       4.631  -7.472  -4.296  0.00  0.00    +0.002 A 
ATOM     38  C   UNL     1       4.587  -8.840  -4.095  0.00  0.00    +0.000 A 
ATOM     39  C   UNL     1       3.917  -9.360  -3.003  0.00  0.00    +0.002 A 
ATOM     40  C   UNL     1       3.293  -8.515  -2.107  0.00  0.00    +0.023 A 
ENDBRANCH  31  35
ENDBRANCH  27  28
ENDBRANCH   5  27
TORSDOF 8
