REMARK  Name = ZINC20814977
REMARK  9 active torsions:
REMARK  status: ('A' for Active; 'I' for Inactive)
REMARK    1  A    between atoms: C_1  and  C_2
REMARK    2  A    between atoms: C_2  and  N_3
REMARK    3  A    between atoms: N_3  and  C_4
REMARK    4  A    between atoms: N_3  and  C_11
REMARK    5  A    between atoms: C_4  and  C_5
REMARK    6  A    between atoms: C_11  and  C_12
REMARK    7  A    between atoms: N_14  and  C_15
REMARK    8  A    between atoms: C_17  and  C_24
REMARK    9  A    between atoms: C_19  and  C_21
REMARK                            x       y       z     vdW  Elec       q    Type
REMARK                         _______ _______ _______ _____ _____    ______ ____
ROOT
ATOM      1  C   UNL     1      -6.078   2.879   0.185  0.00  0.00    +0.201 C 
ATOM      2  O   UNL     1      -5.046   3.517   0.176  0.00  0.00    -0.278 OA
ATOM      3  N   UNL     1      -6.040   1.536   0.081  0.00  0.00    -0.287 N 
ATOM      4  H   UNL     1      -6.977   0.964   0.005  0.00  0.00    +0.155 HD
ENDROOT
BRANCH   3   5
ATOM      5  C   UNL     1      -4.810   0.869   0.070  0.00  0.00    +0.035 A 
ATOM      6  C   UNL     1      -4.659  -0.291  -0.675  0.00  0.00    +0.036 A 
ATOM      7  C   UNL     1      -3.433  -0.959  -0.689  0.00  0.00    +0.039 A 
ATOM      8  C   UNL     1      -2.361  -0.460   0.048  0.00  0.00    +0.026 A 
ATOM      9  C   UNL     1      -2.516   0.706   0.795  0.00  0.00    +0.039 A 
ATOM     10  C   UNL     1      -3.746   1.366   0.808  0.00  0.00    +0.036 A 
BRANCH   9  11
ATOM     11  C   UNL     1      -1.381   1.240   1.578  0.00  0.00    +0.242 C 
ATOM     12  O   UNL     1      -1.518   2.257   2.230  0.00  0.00    -0.270 OA
ATOM     13  N   UNL     1      -0.196   0.599   1.569  0.00  0.00    -0.325 N 
ATOM     14  H   UNL     1       0.649   0.996   2.152  0.00  0.00    +0.145 HD
ATOM     15  H   UNL     1      -0.072  -0.321   0.980  0.00  0.00    +0.145 HD
ENDBRANCH   9  11
BRANCH   7  16
ATOM     16  C   UNL     1      -3.273  -2.196  -1.483  0.00  0.00    +0.242 C 
ATOM     17  O   UNL     1      -4.208  -2.632  -2.125  0.00  0.00    -0.270 OA
ATOM     18  N   UNL     1      -2.089  -2.841  -1.495  0.00  0.00    -0.325 N 
ATOM     19  H   UNL     1      -1.970  -3.761  -2.086  0.00  0.00    +0.145 HD
ATOM     20  H   UNL     1      -1.242  -2.447  -0.914  0.00  0.00    +0.145 HD
ENDBRANCH   7  16
ENDBRANCH   3   5
BRANCH   1  21
ATOM     21  C   UNL     1      -7.401   3.588   0.314  0.00  0.00    +0.019 C 
BRANCH  21  22
ATOM     22  N   UNL     1      -7.173   5.036   0.411  0.00  0.00    +0.388 N 
ATOM     23  H   UNL     1      -6.438   5.210   1.211  0.00  0.00    -0.081 HD
BRANCH  22  25
ATOM     24  C   UNL     1      -7.636   5.406  -1.965  0.00  0.00    -0.017 C 
ATOM     25  C   UNL     1      -6.612   5.566  -0.839  0.00  0.00    -0.081 C 
ENDBRANCH  22  25
BRANCH  22  26
ATOM     26  C   UNL     1      -8.410   5.741   0.774  0.00  0.00    -0.035 C 
BRANCH  26  27
ATOM     27  C   UNL     1      -8.077   7.138   1.229  0.00  0.00    -0.026 A 
ATOM     28  C   UNL     1      -8.078   8.291   0.515  0.00  0.00    +0.010 A 
ATOM     29  C   UNL     1      -7.734   9.471   1.148  0.00  0.00    +0.023 A 
ATOM     30  C   UNL     1      -7.407   9.440   2.464  0.00  0.00    +0.055 A 
ATOM     31  S   UNL     1      -7.588   7.707   2.849  0.00  0.00    -0.088 S 
ATOM     32 BR   UNL     1      -6.898  10.865   3.598  0.00  0.00    -0.043 Br
ENDBRANCH  26  27
ENDBRANCH  22  26
ENDBRANCH  21  22
ENDBRANCH   1  21
TORSDOF 8
