REMARK  Name = ZINC39634956
REMARK  7 active torsions:
REMARK  status: ('A' for Active; 'I' for Inactive)
REMARK    1  A    between atoms: C_1  and  O_2
REMARK    2  A    between atoms: O_2  and  C_3
REMARK    3  A    between atoms: C_6  and  C_9
REMARK    4  A    between atoms: C_9  and  C_10
REMARK    5  A    between atoms: C_10  and  N_11
REMARK    6  A    between atoms: C_12  and  C_14
REMARK    7  A    between atoms: C_25  and  C_27
REMARK                            x       y       z     vdW  Elec       q    Type
REMARK                         _______ _______ _______ _____ _____    ______ ____
ROOT
ATOM      1  C   UNL     1       2.470  -4.598   8.914  0.00  0.00    +0.100 C 
ATOM      2  C   UNL     1       3.577  -3.654   9.433  0.00  0.00    +0.121 C 
ATOM      3  N   UNL     1       2.921  -2.858  10.498  0.00  0.00    -0.296 N 
ATOM      4  C   UNL     1       2.050  -3.830  11.201  0.00  0.00    +0.115 C 
ATOM      5  C   UNL     1       1.471  -4.714  10.078  0.00  0.00    -0.004 C 
ATOM      6  C   UNL     1       0.101  -4.195   9.652  0.00  0.00    -0.010 C 
ATOM      7  C   UNL     1      -0.888  -4.374  10.808  0.00  0.00    -0.082 C 
ATOM      8  N   UNL     1      -0.971  -5.794  11.168  0.00  0.00    +0.379 N 
ATOM      9  C   UNL     1       0.330  -6.262  11.664  0.00  0.00    -0.082 C 
ATOM     10  C   UNL     1       1.370  -6.163  10.545  0.00  0.00    -0.010 C 
ATOM     11  C   UNL     1       3.081  -1.547  10.767  0.00  0.00    +0.247 C 
ATOM     12  O   UNL     1       2.536  -1.055  11.736  0.00  0.00    -0.270 OA
ATOM     13  H   UNL     1      -1.667  -5.917  11.888  0.00  0.00    -0.086 HD
ATOM     14  H   UNL     1      -1.232  -6.332  10.356  0.00  0.00    -0.086 HD
ENDROOT
BRANCH  11  15
ATOM     15  C   UNL     1       3.918  -0.709   9.885  0.00  0.00    +0.045 A 
ATOM     16  C   UNL     1       5.211  -1.122   9.543  0.00  0.00    +0.014 A 
ATOM     17  C   UNL     1       5.995  -0.343   8.720  0.00  0.00    +0.001 A 
ATOM     18  C   UNL     1       5.512   0.858   8.222  0.00  0.00    +0.012 A 
ATOM     19  C   UNL     1       4.231   1.287   8.550  0.00  0.00    +0.031 A 
ATOM     20  C   UNL     1       3.420   0.499   9.382  0.00  0.00    +0.006 A 
ATOM     21  C   UNL     1       2.115   1.183   9.560  0.00  0.00    -0.006 A 
ATOM     22  C   UNL     1       0.979   0.839  10.281  0.00  0.00    +0.009 A 
ATOM     23  C   UNL     1      -0.126   1.676  10.276  0.00  0.00    +0.001 A 
ATOM     24  C   UNL     1      -0.107   2.855   9.557  0.00  0.00    +0.001 A 
ATOM     25  C   UNL     1       1.019   3.213   8.832  0.00  0.00    +0.012 A 
ATOM     26  C   UNL     1       2.133   2.384   8.829  0.00  0.00    +0.030 A 
ATOM     27  C   UNL     1       3.460   2.497   8.178  0.00  0.00    +0.194 C 
ATOM     28  O   UNL     1       3.839   3.403   7.464  0.00  0.00    -0.287 OA
ENDBRANCH  11  15
BRANCH   1  30
ATOM     29  N   UNL     1       1.274  -4.809   6.759  0.00  0.00    -0.315 N 
ATOM     30  C   UNL     1       1.797  -4.003   7.703  0.00  0.00    +0.218 C 
ATOM     31  O   UNL     1       1.728  -2.798   7.579  0.00  0.00    -0.275 OA
ATOM     32  H   UNL     1       1.330  -5.772   6.858  0.00  0.00    +0.149 HD
BRANCH  29  33
ATOM     33  C   UNL     1       0.620  -4.230   5.582  0.00  0.00    +0.109 C 
BRANCH  33  34
ATOM     34  C   UNL     1       0.117  -5.354   4.674  0.00  0.00    +0.054 C 
BRANCH  34  38
ATOM     35  C   UNL     1      -1.789  -3.667   1.241  0.00  0.00    +0.120 A 
ATOM     36  C   UNL     1      -0.429  -3.940   1.217  0.00  0.00    +0.046 A 
ATOM     37  C   UNL     1       0.185  -4.485   2.328  0.00  0.00    +0.007 A 
ATOM     38  C   UNL     1      -0.555  -4.759   3.463  0.00  0.00    -0.046 A 
ATOM     39  C   UNL     1      -1.911  -4.488   3.490  0.00  0.00    +0.007 A 
ATOM     40  C   UNL     1      -2.528  -3.937   2.384  0.00  0.00    +0.046 A 
BRANCH  35  42
ATOM     41  C   UNL     1      -1.573  -2.878  -0.991  0.00  0.00    +0.277 C 
ATOM     42  O   UNL     1      -2.395  -3.130   0.150  0.00  0.00    -0.495 OA
ENDBRANCH  35  42
ENDBRANCH  34  38
ENDBRANCH  33  34
ENDBRANCH  29  33
ENDBRANCH   1  30
TORSDOF 6
