REMARK  Name = ZINC61023488
REMARK  9 active torsions:
REMARK  status: ('A' for Active; 'I' for Inactive)
REMARK    1  A    between atoms: C_1  and  C_2
REMARK    2  A    between atoms: C_2  and  C_3
REMARK    3  A    between atoms: C_2  and  C_4
REMARK    4  A    between atoms: N_6  and  C_7
REMARK    5  A    between atoms: N_10  and  C_13
REMARK    6  A    between atoms: C_13  and  C_14
REMARK    7  A    between atoms: C_13  and  C_15
REMARK    8  A    between atoms: N_20  and  C_21
REMARK    9  A    between atoms: C_21  and  C_22
REMARK                            x       y       z     vdW  Elec       q    Type
REMARK                         _______ _______ _______ _____ _____    ______ ____
ROOT
ATOM      1  C   UNL     1      -7.284  -2.194  -2.594  0.00  0.00    +0.017 C 
ATOM      2  C   UNL     1      -7.405  -1.024  -3.573  0.00  0.00    -0.004 C 
ENDROOT
BRANCH   1   3
ATOM      3  C   UNL     1      -7.269  -3.491  -3.360  0.00  0.00    +0.207 C 
ATOM      4  O   UNL     1      -6.213  -3.988  -3.690  0.00  0.00    -0.277 OA
ATOM      5  N   UNL     1      -8.428  -4.099  -3.680  0.00  0.00    -0.242 N 
ATOM      6  C   UNL     1      -8.414  -5.260  -4.365  0.00  0.00    +0.306 C 
ATOM      7  O   UNL     1      -7.356  -5.758  -4.695  0.00  0.00    -0.252 OA
ATOM      8  N   UNL     1      -9.574  -5.868  -4.685  0.00  0.00    -0.297 N 
ATOM      9  H   UNL     1      -9.273  -3.702  -3.416  0.00  0.00    +0.159 HD
ATOM     10  H   UNL     1     -10.418  -5.470  -4.421  0.00  0.00    +0.150 HD
BRANCH   8  11
ATOM     11  C   UNL     1      -9.558  -7.129  -5.430  0.00  0.00    +0.137 C 
BRANCH  11  12
ATOM     12  C   UNL     1     -10.995  -7.603  -5.660  0.00  0.00    +0.135 C 
ATOM     13  C   UNL     1     -10.986  -8.987  -6.343  0.00  0.00    +0.035 C 
ATOM     14  C   UNL     1     -12.164  -8.866  -7.349  0.00  0.00    +0.031 C 
ATOM     15  C   UNL     1     -12.063  -7.370  -7.740  0.00  0.00    +0.160 C 
ATOM     16  O   UNL     1     -11.672  -6.693  -6.535  0.00  0.00    -0.375 OA
ENDBRANCH  11  12
ENDBRANCH   8  11
ENDBRANCH   1   3
BRANCH   1  20
ATOM     17  C   UNL     1      -4.529  -1.726   0.623  0.00  0.00    +0.069 C 
ATOM     18  C   UNL     1      -4.616  -3.071  -0.105  0.00  0.00    +0.004 C 
ATOM     19  C   UNL     1      -5.949  -3.156  -0.851  0.00  0.00    -0.076 C 
ATOM     20  N   UNL     1      -6.038  -2.063  -1.827  0.00  0.00    +0.387 N 
ATOM     21  C   UNL     1      -6.027  -0.771  -1.131  0.00  0.00    -0.076 C 
ATOM     22  C   UNL     1      -4.697  -0.595  -0.395  0.00  0.00    +0.004 C 
ATOM     23  H   UNL     1      -5.251  -2.111  -2.457  0.00  0.00    -0.081 HD
BRANCH  17  26
ATOM     24  C   UNL     1      -3.035  -2.128   2.505  0.00  0.00    +0.216 C 
ATOM     25  O   UNL     1      -3.946  -2.695   3.069  0.00  0.00    -0.276 OA
ATOM     26  N   UNL     1      -3.223  -1.607   1.276  0.00  0.00    -0.312 N 
ATOM     27  H   UNL     1      -2.494  -1.153   0.825  0.00  0.00    +0.149 HD
BRANCH  24  29
ATOM     28  C   UNL     1      -1.339  -0.525   3.345  0.00  0.00    +0.017 C 
ATOM     29  C   UNL     1      -1.692  -2.005   3.178  0.00  0.00    +0.069 C 
ATOM     30  C   UNL     1      -1.746  -2.675   4.552  0.00  0.00    +0.017 C 
ENDBRANCH  24  29
ENDBRANCH  17  26
ENDBRANCH   1  20
TORSDOF 6
