REMARK  Name = ZINC36038442
REMARK  11 active torsions:
REMARK  status: ('A' for Active; 'I' for Inactive)
REMARK    1  A    between atoms: C_1  and  C_2
REMARK    2  A    between atoms: C_2  and  C_3
REMARK    3  A    between atoms: C_3  and  C_5
REMARK    4  A    between atoms: C_3  and  C_6
REMARK    5  A    between atoms: C_6  and  N_7
REMARK    6  A    between atoms: C_10  and  C_30
REMARK    7  A    between atoms: N_16  and  S_19
REMARK    8  A    between atoms: S_19  and  C_22
REMARK    9  A    between atoms: C_30  and  C_31
REMARK   10  A    between atoms: C_31  and  C_32
REMARK   11  A    between atoms: C_31  and  C_33
REMARK                            x       y       z     vdW  Elec       q    Type
REMARK                         _______ _______ _______ _____ _____    ______ ____
ROOT
ATOM      1  N   UNL     1       1.427  -2.735  -2.248  0.00  0.00    -0.313 N 
ATOM      2  C   UNL     1       0.870  -2.902  -3.466  0.00  0.00    +0.200 C 
ATOM      3  O   UNL     1      -0.309  -2.794  -3.726  0.00  0.00    -0.277 OA
ATOM      4  C   UNL     1       1.965  -3.248  -4.452  0.00  0.00    +0.019 C 
ATOM      5  N   UNL     1       3.224  -2.859  -3.771  0.00  0.00    +0.401 N 
ATOM      6  C   UNL     1       2.874  -2.950  -2.339  0.00  0.00    +0.006 C 
ATOM      7  C   UNL     1       3.237  -4.337  -1.811  0.00  0.00    +0.023 C 
ATOM      8  C   UNL     1       2.838  -4.440  -0.335  0.00  0.00    +0.109 C 
ATOM      9  N   UNL     1       3.453  -3.325   0.399  0.00  0.00    -0.177 NA
ATOM     10  C   UNL     1       3.224  -1.954  -0.076  0.00  0.00    +0.109 C 
ATOM     11  C   UNL     1       3.619  -1.872  -1.554  0.00  0.00    +0.023 C 
ATOM     12  H   UNL     1       3.966  -3.502  -4.000  0.00  0.00    -0.082 HD
ATOM     13  H   UNL     1       3.482  -1.913  -4.011  0.00  0.00    -0.082 HD
ENDROOT
BRANCH   9  14
ATOM     14  S   UNL     1       4.387  -3.609   1.737  0.00  0.00    +0.061 S 
ATOM     15  O   UNL     1       4.359  -2.419   2.512  0.00  0.00    -0.153 OA
ATOM     16  O   UNL     1       3.978  -4.867   2.257  0.00  0.00    -0.153 OA
BRANCH  14  17
ATOM     17  C   UNL     1       6.047  -3.809   1.181  0.00  0.00    +0.107 A 
ATOM     18  C   UNL     1       6.513  -5.064   0.835  0.00  0.00    +0.030 A 
ATOM     19  C   UNL     1       7.815  -5.222   0.399  0.00  0.00    +0.023 A 
ATOM     20  C   UNL     1       8.652  -4.125   0.308  0.00  0.00    +0.059 A 
ATOM     21  C   UNL     1       8.185  -2.868   0.654  0.00  0.00    +0.061 A 
ATOM     22  C   UNL     1       6.880  -2.711   1.085  0.00  0.00    +0.050 A 
ATOM     23 CL   UNL     1       9.235  -1.490   0.541  0.00  0.00    -0.082 Cl
ATOM     24 CL   UNL     1      10.288  -4.323  -0.238  0.00  0.00    -0.082 Cl
ENDBRANCH  14  17
ENDBRANCH   9  14
BRANCH   1  25
ATOM     25  C   UNL     1       0.699  -2.387  -1.025  0.00  0.00    +0.109 C 
BRANCH  25  26
ATOM     26  C   UNL     1       0.606  -0.865  -0.904  0.00  0.00    +0.003 C 
ATOM     27  C   UNL     1      -0.263  -0.315  -2.037  0.00  0.00    +0.009 C 
BRANCH  26  29
ATOM     28  C   UNL     1       0.000   1.022   0.619  0.00  0.00    +0.004 C 
ATOM     29  C   UNL     1      -0.020  -0.498   0.443  0.00  0.00    +0.001 C 
ENDBRANCH  26  29
ENDBRANCH  25  26
ENDBRANCH   1  25
BRANCH   4  30
ATOM     30  C   UNL     1       1.960  -4.748  -4.750  0.00  0.00    -0.004 C 
BRANCH  30  31
ATOM     31  C   UNL     1       0.675  -5.115  -5.495  0.00  0.00    -0.018 C 
ATOM     32  C   UNL     1       0.677  -4.451  -6.873  0.00  0.00    +0.007 C 
ATOM     33  C   UNL     1       0.598  -6.634  -5.662  0.00  0.00    +0.007 C 
ENDBRANCH  30  31
ENDBRANCH   4  30
TORSDOF 7
