REMARK  Name = ZINC10059936
REMARK  7 active torsions:
REMARK  status: ('A' for Active; 'I' for Inactive)
REMARK    1  A    between atoms: C_1  and  C_2
REMARK    2  A    between atoms: C_5  and  C_35
REMARK    3  A    between atoms: C_6  and  N_8
REMARK    4  A    between atoms: C_9  and  C_11
REMARK    5  A    between atoms: C_11  and  N_12
REMARK    6  A    between atoms: N_19  and  C_20
REMARK    7  A    between atoms: N_27  and  C_28
REMARK                            x       y       z     vdW  Elec       q    Type
REMARK                         _______ _______ _______ _____ _____    ______ ____
ROOT
ATOM      1  N   UNL     1       4.597  12.352  -7.958  0.00  0.00    -0.305 N 
ATOM      2  C   UNL     1       5.096  12.298  -6.672  0.00  0.00    +0.221 A 
ATOM      3  N   UNL     1       6.124  11.505  -6.391  0.00  0.00    -0.181 NA
ATOM      4  C   UNL     1       6.608  11.457  -5.154  0.00  0.00    +0.225 A 
ATOM      5  N   UNL     1       6.057  12.194  -4.195  0.00  0.00    -0.181 NA
ATOM      6  C   UNL     1       5.024  12.984  -4.475  0.00  0.00    +0.225 A 
ATOM      7  N   UNL     1       4.544  13.036  -5.714  0.00  0.00    -0.181 NA
ATOM      8  N   UNL     1       4.451  13.749  -3.479  0.00  0.00    -0.281 N 
ATOM      9  N   UNL     1       7.681  10.636  -4.863  0.00  0.00    -0.281 N 
ATOM     10  H   UNL     1       3.843  12.928  -8.162  0.00  0.00    +0.149 HD
ATOM     11  H   UNL     1       4.855  13.781  -2.598  0.00  0.00    +0.155 HD
ATOM     12  H   UNL     1       8.028  10.033  -5.540  0.00  0.00    +0.155 HD
ENDROOT
BRANCH   8  13
ATOM     13  C   UNL     1       3.286  14.481  -3.741  0.00  0.00    +0.069 A 
ATOM     14  C   UNL     1       2.620  14.319  -4.949  0.00  0.00    +0.026 A 
ATOM     15  C   UNL     1       1.469  15.039  -5.203  0.00  0.00    +0.002 A 
ATOM     16  C   UNL     1       0.984  15.927  -4.261  0.00  0.00    +0.003 A 
ATOM     17  C   UNL     1       1.647  16.096  -3.059  0.00  0.00    +0.040 A 
ATOM     18  C   UNL     1       2.797  15.375  -2.796  0.00  0.00    +0.144 A 
ATOM     19  F   UNL     1       3.444  15.540  -1.621  0.00  0.00    -0.204 F 
ENDBRANCH   8  13
BRANCH   9  20
ATOM     20  C   UNL     1       8.267  10.675  -3.593  0.00  0.00    +0.069 A 
ATOM     21  C   UNL     1       7.842  11.609  -2.658  0.00  0.00    +0.026 A 
ATOM     22  C   UNL     1       8.420  11.642  -1.404  0.00  0.00    +0.002 A 
ATOM     23  C   UNL     1       9.428  10.752  -1.081  0.00  0.00    +0.003 A 
ATOM     24  C   UNL     1       9.858   9.823  -2.010  0.00  0.00    +0.040 A 
ATOM     25  C   UNL     1       9.281   9.781  -3.266  0.00  0.00    +0.144 A 
ATOM     26  F   UNL     1       9.702   8.873  -4.174  0.00  0.00    -0.204 F 
ENDBRANCH   9  20
BRANCH   1  27
ATOM     27  C   UNL     1       5.205  11.540  -9.014  0.00  0.00    +0.200 C 
BRANCH  27  29
ATOM     28  N   UNL     1       4.868  11.135 -11.431  0.00  0.00    -0.284 N 
ATOM     29  C   UNL     1       4.480  11.780 -10.313  0.00  0.00    +0.234 C 
ATOM     30  O   UNL     1       3.547  12.554 -10.353  0.00  0.00    -0.274 OA
ATOM     31  H   UNL     1       5.573  10.471 -11.388  0.00  0.00    +0.155 HD
BRANCH  28  37
ATOM     32  C   UNL     1       2.342  14.259 -14.266  0.00  0.00    +0.044 C 
ATOM     33  C   UNL     1       3.022  12.930 -14.056  0.00  0.00    -0.049 A 
ATOM     34  C   UNL     1       3.043  11.997 -15.076  0.00  0.00    +0.004 A 
ATOM     35  C   UNL     1       3.662  10.775 -14.886  0.00  0.00    +0.005 A 
ATOM     36  C   UNL     1       4.269  10.487 -13.679  0.00  0.00    -0.029 A 
ATOM     37  C   UNL     1       4.253  11.424 -12.655  0.00  0.00    +0.037 A 
ATOM     38  C   UNL     1       3.627  12.648 -12.847  0.00  0.00    +0.027 A 
ATOM     39  C   UNL     1       4.948   9.157 -13.475  0.00  0.00    +0.045 C 
ENDBRANCH  28  37
ENDBRANCH  27  29
ENDBRANCH   1  27
TORSDOF 5
