REMARK  Name = ZINC63270063
REMARK  6 active torsions:
REMARK  status: ('A' for Active; 'I' for Inactive)
REMARK    1  A    between atoms: C_1  and  C_2
REMARK    2  A    between atoms: C_13  and  C_15
REMARK    3  A    between atoms: C_15  and  C_16
REMARK    4  A    between atoms: C_16  and  C_17
REMARK    5  A    between atoms: C_30  and  C_33
REMARK    6  A    between atoms: C_30  and  C_34
REMARK                            x       y       z     vdW  Elec       q    Type
REMARK                         _______ _______ _______ _____ _____    ______ ____
ROOT
ATOM      1  C   UNL     1      -0.019   1.526   0.010  0.00  0.00    +0.013 C 
ATOM      2  C   UNL     1       0.002  -0.004   0.002  0.00  0.00    +0.033 C 
ATOM      3  C   UNL     1       0.705  -0.489  -1.241  0.00  0.00    -0.001 A 
ATOM      4  C   UNL     1      -0.001  -0.513  -2.433  0.00  0.00    +0.014 A 
ATOM      5  C   UNL     1       0.601  -0.943  -3.602  0.00  0.00    -0.005 A 
ATOM      6  C   UNL     1       1.924  -1.351  -3.586  0.00  0.00    +0.128 A 
ATOM      7  C   UNL     1       2.633  -1.332  -2.392  0.00  0.00    +0.092 A 
ATOM      8  C   UNL     1       2.024  -0.905  -1.219  0.00  0.00    +0.139 A 
ATOM      9  O   UNL     1       2.753  -0.920  -0.069  0.00  0.00    -0.425 OA
ATOM     10  C   UNL     1       2.223  -0.314   1.012  0.00  0.00    +0.316 C 
ATOM     11  O   UNL     1       2.899   0.353   1.759  0.00  0.00    -0.250 OA
ATOM     12  C   UNL     1       0.740  -0.510   1.246  0.00  0.00    +0.106 C 
ATOM     13  O   UNL     1       2.559  -1.767  -4.712  0.00  0.00    -0.486 OA
ATOM     14  C   UNL     1       1.756  -2.136  -5.834  0.00  0.00    +0.105 C 
ATOM     15  C   UNL     1       0.729  -1.023  -6.082  0.00  0.00    +0.052 C 
ATOM     16  C   UNL     1      -0.209  -0.957  -4.874  0.00  0.00    +0.042 C 
ATOM     17  C   UNL     1       1.030  -3.450  -5.537  0.00  0.00    +0.055 C 
ATOM     18  C   UNL     1       2.642  -2.304  -7.069  0.00  0.00    +0.055 C 
ENDROOT
BRANCH  12  19
ATOM     19  C   UNL     1       0.440  -1.995   1.459  0.00  0.00    +0.024 C 
BRANCH  19  20
ATOM     20  C   UNL     1       1.078  -2.461   2.769  0.00  0.00    +0.097 C 
BRANCH  20  21
ATOM     21  C   UNL     1       0.782  -3.924   2.979  0.00  0.00    +0.216 C 
ATOM     22  O   UNL     1       0.126  -4.533   2.162  0.00  0.00    -0.276 OA
ATOM     23  N   UNL     1       1.247  -4.554   4.076  0.00  0.00    -0.295 N 
ATOM     24  C   UNL     1       0.975  -5.983   4.296  0.00  0.00    +0.114 C 
ATOM     25  C   UNL     1       2.299  -6.758   4.270  0.00  0.00    +0.074 C 
ATOM     26  C   UNL     1       3.315  -6.013   5.099  0.00  0.00    +0.039 A 
ATOM     27  H   UNL     1       4.514  -3.543   6.584  0.00  0.00    +0.166 HD
ATOM     28  C   UNL     1       3.205  -4.716   5.457  0.00  0.00    +0.054 A 
ATOM     29  N   UNL     1       4.308  -4.404   6.189  0.00  0.00    -0.348 N 
ATOM     30  C   UNL     1       5.063  -5.525   6.262  0.00  0.00    +0.171 A 
ATOM     31  N   UNL     1       4.460  -6.482   5.607  0.00  0.00    -0.349 N 
ATOM     32  C   UNL     1       2.047  -3.832   5.082  0.00  0.00    +0.162 C 
ATOM     33  H   UNL     1       4.790  -7.388   5.506  0.00  0.00    +0.166 HD
ENDBRANCH  20  21
ENDBRANCH  19  20
ENDBRANCH  12  19
TORSDOF 3
