REMARK  Name = ZINC66976023
REMARK  9 active torsions:
REMARK  status: ('A' for Active; 'I' for Inactive)
REMARK    1  A    between atoms: C_1  and  N_2
REMARK    2  A    between atoms: N_2  and  C_3
REMARK    3  A    between atoms: N_2  and  C_4
REMARK    4  A    between atoms: C_4  and  C_6
REMARK    5  A    between atoms: C_4  and  C_23
REMARK    6  A    between atoms: C_6  and  N_7
REMARK    7  A    between atoms: N_10  and  C_11
REMARK    8  A    between atoms: C_11  and  C_12
REMARK    9  A    between atoms: C_12  and  O_22
REMARK                            x       y       z     vdW  Elec       q    Type
REMARK                         _______ _______ _______ _____ _____    ______ ____
ROOT
ATOM      1  N   UNL     1      -1.416   1.201  -1.593  0.00  0.00    -0.301 N 
ATOM      2  C   UNL     1      -1.916   1.867  -2.652  0.00  0.00    +0.300 C 
ATOM      3  O   UNL     1      -2.582   1.278  -3.482  0.00  0.00    -0.253 OA
ATOM      4  N   UNL     1      -1.680   3.187  -2.791  0.00  0.00    -0.296 N 
ATOM      5  H   UNL     1      -0.885   1.671  -0.931  0.00  0.00    +0.150 HD
ATOM      6  H   UNL     1      -1.149   3.657  -2.129  0.00  0.00    +0.150 HD
ENDROOT
BRANCH   1   7
ATOM      7  C   UNL     1      -1.673  -0.234  -1.442  0.00  0.00    +0.098 C 
BRANCH   7   8
ATOM      8  C   UNL     1      -0.907  -0.764  -0.228  0.00  0.00    +0.016 C 
BRANCH   8   9
ATOM      9  C   UNL     1       0.574  -0.624  -0.468  0.00  0.00    +0.093 A 
ATOM     10  C   UNL     1       1.402  -1.605  -0.869  0.00  0.00    +0.043 A 
ATOM     11  C   UNL     1       2.693  -1.038  -0.966  0.00  0.00    +0.041 A 
ATOM     12  C   UNL     1       2.577   0.257  -0.618  0.00  0.00    +0.195 A 
ATOM     13  O   UNL     1       1.290   0.503  -0.323  0.00  0.00    -0.469 OA
ENDBRANCH   8   9
BRANCH   8  15
ATOM     14  C   UNL     1      -2.721  -0.164   1.223  0.00  0.00    -0.096 C 
ATOM     15  N   UNL     1      -1.285   0.007   0.964  0.00  0.00    +0.384 N 
ATOM     16  C   UNL     1      -0.519  -0.474   2.122  0.00  0.00    -0.096 C 
ATOM     17  H   UNL     1      -1.085   0.984   0.811  0.00  0.00    -0.082 HD
ENDBRANCH   8  15
ENDBRANCH   7   8
ENDBRANCH   1   7
BRANCH   4  18
ATOM     18  C   UNL     1      -2.224   3.911  -3.942  0.00  0.00    +0.145 C 
BRANCH  18  19
ATOM     19  C   UNL     1      -1.706   5.351  -3.930  0.00  0.00    +0.107 C 
ATOM     20  C   UNL     1      -0.179   5.337  -3.930  0.00  0.00    +0.041 C 
ATOM     21  C   UNL     1       0.318   6.772  -4.138  0.00  0.00    +0.008 C 
ATOM     22  C   UNL     1       0.002   7.188  -5.573  0.00  0.00    +0.035 C 
ATOM     23  C   UNL     1      -1.446   6.924  -5.894  0.00  0.00    -0.041 A 
ATOM     24  C   UNL     1      -2.229   6.077  -5.142  0.00  0.00    -0.011 A 
ATOM     25  C   UNL     1      -3.556   5.871  -5.496  0.00  0.00    +0.007 A 
ATOM     26  C   UNL     1      -4.097   6.511  -6.592  0.00  0.00    +0.000 A 
ATOM     27  C   UNL     1      -3.312   7.364  -7.345  0.00  0.00    +0.000 A 
ATOM     28  C   UNL     1      -1.992   7.568  -6.996  0.00  0.00    +0.004 A 
BRANCH  19  29
ATOM     29  O   UNL     1      -2.170   6.008  -2.750  0.00  0.00    -0.382 OA
ATOM     30  H   UNL     1      -3.134   6.049  -2.675  0.00  0.00    +0.211 HD
ENDBRANCH  19  29
ENDBRANCH  18  19
ENDBRANCH   4  18
TORSDOF 7
