REMARK  Name = ZINC48845544
REMARK  10 active torsions:
REMARK  status: ('A' for Active; 'I' for Inactive)
REMARK    1  A    between atoms: C_1  and  C_2
REMARK    2  A    between atoms: C_2  and  C_3
REMARK    3  A    between atoms: C_3  and  C_4
REMARK    4  A    between atoms: C_3  and  C_11
REMARK    5  A    between atoms: C_3  and  N_14
REMARK    6  A    between atoms: N_14  and  C_15
REMARK    7  A    between atoms: C_15  and  C_16
REMARK    8  A    between atoms: C_16  and  C_17
REMARK    9  A    between atoms: C_17  and  N_18
REMARK   10  A    between atoms: N_18  and  C_19
REMARK                            x       y       z     vdW  Elec       q    Type
REMARK                         _______ _______ _______ _____ _____    ______ ____
ROOT
ATOM      1  C   UNL     1      -1.437  -0.540   0.013  0.00  0.00    +0.061 C 
ENDROOT
BRANCH   1   2
ATOM      2  C   UNL     1      -2.337  -0.137  -1.127  0.00  0.00    -0.048 A 
ATOM      3  C   UNL     1      -3.380   0.744  -0.906  0.00  0.00    +0.004 A 
ATOM      4  C   UNL     1      -4.205   1.114  -1.952  0.00  0.00    +0.015 A 
ATOM      5  C   UNL     1      -3.987   0.603  -3.219  0.00  0.00    +0.018 A 
ATOM      6  C   UNL     1      -2.944  -0.278  -3.439  0.00  0.00    +0.015 A 
ATOM      7  C   UNL     1      -2.116  -0.643  -2.394  0.00  0.00    +0.004 A 
ATOM      8 BR   UNL     1      -5.116   1.109  -4.649  0.00  0.00    -0.050 Br
ENDBRANCH   1   2
BRANCH   1   9
ATOM      9  C   UNL     1      -1.504  -2.034   0.201  0.00  0.00    +0.350 C 
ATOM     10  O   UNL     1      -2.001  -2.499   1.212  0.00  0.00    -0.248 OA
ATOM     11  O   UNL     1      -1.060  -2.777  -0.658  0.00  0.00    -0.248 OA
ENDBRANCH   1   9
BRANCH   1  12
ATOM     12  N   UNL     1      -1.878   0.129   1.244  0.00  0.00    +0.393 N 
ATOM     13  H   UNL     1      -1.922   1.125   1.089  0.00  0.00    -0.084 HD
ATOM     14  H   UNL     1      -2.792  -0.212   1.504  0.00  0.00    -0.084 HD
BRANCH  12  15
ATOM     15  C   UNL     1      -0.924  -0.156   2.324  0.00  0.00    -0.082 C 
BRANCH  15  16
ATOM     16  C   UNL     1      -1.450   0.428   3.637  0.00  0.00    -0.038 C 
BRANCH  16  17
ATOM     17  C   UNL     1      -0.457   0.131   4.762  0.00  0.00    -0.084 C 
BRANCH  17  18
ATOM     18  N   UNL     1      -0.962   0.692   6.022  0.00  0.00    +0.381 N 
ATOM     19  H   UNL     1      -1.072   1.690   5.926  0.00  0.00    -0.086 HD
ATOM     20  H   UNL     1      -1.854   0.275   6.242  0.00  0.00    -0.086 HD
BRANCH  18  21
ATOM     21  C   UNL     1      -0.008   0.407   7.102  0.00  0.00    -0.072 C 
ATOM     22  C   UNL     1      -0.484  -0.489   8.247  0.00  0.00    -0.017 C 
ATOM     23  C   UNL     1      -0.296   1.012   8.478  0.00  0.00    -0.017 C 
ENDBRANCH  18  21
ENDBRANCH  17  18
ENDBRANCH  16  17
ENDBRANCH  15  16
ENDBRANCH  12  15
ENDBRANCH   1  12
BRANCH   1  25
ATOM     24  C   UNL     1       0.094   1.397  -0.372  0.00  0.00    +0.003 C 
ATOM     25  C   UNL     1       0.002  -0.129  -0.304  0.00  0.00    -0.000 C 
ENDBRANCH   1  25
TORSDOF 9
