REMARK  Name = ZINC50524120
REMARK  6 active torsions:
REMARK  status: ('A' for Active; 'I' for Inactive)
REMARK    1  A    between atoms: C_1  and  C_2
REMARK    2  A    between atoms: C_2  and  C_3
REMARK    3  A    between atoms: C_3  and  C_5
REMARK    4  A    between atoms: C_3  and  N_22
REMARK    5  A    between atoms: C_5  and  C_7
REMARK    6  A    between atoms: C_5  and  N_13
REMARK                            x       y       z     vdW  Elec       q    Type
REMARK                         _______ _______ _______ _____ _____    ______ ____
ROOT
ATOM      1  C   UNL     1       0.630  -2.023  -1.329  0.00  0.00    +0.130 C 
ENDROOT
BRANCH   1   2
ATOM      2  N   UNL     1      -0.776  -2.430  -1.376  0.00  0.00    -0.257 N 
ATOM      3  C   UNL     1      -1.405  -3.226  -0.455  0.00  0.00    +0.070 A 
ATOM      4  C   UNL     1      -0.992  -3.860   0.714  0.00  0.00    +0.028 A 
ATOM      5  C   UNL     1      -1.882  -4.606   1.434  0.00  0.00    +0.002 A 
ATOM      6  C   UNL     1      -3.200  -4.741   1.015  0.00  0.00    +0.001 A 
ATOM      7  C   UNL     1      -3.633  -4.132  -0.127  0.00  0.00    +0.011 A 
ATOM      8  C   UNL     1      -2.741  -3.362  -0.881  0.00  0.00    +0.020 A 
ATOM      9  C   UNL     1      -2.857  -2.593  -2.116  0.00  0.00    +0.143 A 
ATOM     10  N   UNL     1      -1.694  -2.063  -2.366  0.00  0.00    -0.178 NA
ENDBRANCH   1   2
BRANCH   1  11
ATOM     11  C   UNL     1       1.336  -2.509  -2.568  0.00  0.00    +0.014 A 
ATOM     12  C   UNL     1       2.391  -3.352  -2.674  0.00  0.00    +0.015 A 
ATOM     13  C   UNL     1       2.879  -3.662  -3.931  0.00  0.00    +0.028 A 
ATOM     14  C   UNL     1       2.286  -3.112  -5.020  0.00  0.00    +0.078 A 
ATOM     15  S   UNL     1       0.992  -2.130  -4.279  0.00  0.00    -0.080 S 
ATOM     16 CL   UNL     1       2.678  -3.316  -6.698  0.00  0.00    -0.076 Cl
ENDBRANCH   1  11
BRANCH   1  17
ATOM     17  C   UNL     1       0.718  -0.497  -1.257  0.00  0.00    -0.045 C 
BRANCH  17  18
ATOM     18  N   UNL     1       2.129  -0.090  -1.209  0.00  0.00    +0.382 N 
ATOM     19  H   UNL     1       2.567  -0.491  -0.394  0.00  0.00    -0.090 HD
ATOM     20  H   UNL     1       2.601  -0.415  -2.039  0.00  0.00    -0.090 HD
ATOM     21  H   UNL     1       2.187   0.916  -1.162  0.00  0.00    -0.090 HD
ENDBRANCH  17  18
BRANCH  17  23
ATOM     22  C   UNL     1      -0.019   1.526   0.010  0.00  0.00    +0.002 C 
ATOM     23  C   UNL     1       0.002  -0.004   0.002  0.00  0.00    -0.017 C 
ENDBRANCH  17  23
ENDBRANCH   1  17
TORSDOF 5
