REMARK  Name = ZINC19672103
REMARK  7 active torsions:
REMARK  status: ('A' for Active; 'I' for Inactive)
REMARK    1  A    between atoms: C_1  and  C_2
REMARK    2  A    between atoms: N_7  and  C_8
REMARK    3  A    between atoms: C_8  and  C_10
REMARK    4  A    between atoms: C_11  and  C_18
REMARK    5  A    between atoms: C_13  and  C_15
REMARK    6  A    between atoms: C_15  and  C_16
REMARK    7  A    between atoms: C_16  and  N_17
REMARK                            x       y       z     vdW  Elec       q    Type
REMARK                         _______ _______ _______ _____ _____    ______ ____
ROOT
ATOM      1  C   UNL     1      -1.703   2.764   3.398  0.00  0.00    +0.099 A 
ATOM      2  C   UNL     1      -2.202   1.545   2.995  0.00  0.00    +0.058 A 
ATOM      3  N   UNL     1      -1.689   0.995   1.925  0.00  0.00    -0.249 NA
ATOM      4  C   UNL     1      -0.718   1.572   1.248  0.00  0.00    +0.077 A 
ATOM      5  S   UNL     1      -0.462   3.038   2.142  0.00  0.00    -0.067 S 
ATOM      6  C   UNL     1      -3.309   0.868   3.762  0.00  0.00    +0.067 C 
ENDROOT
BRANCH   1   7
ATOM      7  C   UNL     1      -2.085   3.603   4.538  0.00  0.00    +0.278 C 
ATOM      8  O   UNL     1      -2.967   3.239   5.293  0.00  0.00    -0.267 OA
BRANCH   7  15
ATOM      9  C   UNL     1      -1.223   8.700   7.680  0.00  0.00    +0.064 C 
ATOM     10  C   UNL     1      -1.790   7.367   7.265  0.00  0.00    +0.021 A 
ATOM     11  C   UNL     1      -2.786   6.785   7.977  0.00  0.00    +0.069 A 
ATOM     12  S   UNL     1      -3.031   5.283   7.040  0.00  0.00    -0.060 S 
ATOM     13  C   UNL     1      -1.819   5.572   5.831  0.00  0.00    +0.163 A 
ATOM     14  N   UNL     1      -1.325   6.737   6.204  0.00  0.00    -0.339 N 
ATOM     15  N   UNL     1      -1.458   4.777   4.750  0.00  0.00    -0.152 NA
ATOM     16  H   UNL     1      -0.512   7.182   5.613  0.00  0.00    +0.167 HD
ENDBRANCH   7  15
ENDBRANCH   1   7
BRANCH   4  17
ATOM     17  C   UNL     1      -0.013   1.086   0.008  0.00  0.00    +0.043 C 
BRANCH  17  18
ATOM     18  C   UNL     1      -0.753   1.593  -1.232  0.00  0.00    -0.080 C 
BRANCH  18  19
ATOM     19  N   UNL     1      -0.065   1.119  -2.440  0.00  0.00    +0.378 N 
ATOM     20  H   UNL     1      -0.597   1.483  -3.331  0.00  0.00    -0.090 HD
ATOM     21  H   UNL     1      -0.050   0.019  -2.446  0.00  0.00    -0.090 HD
ATOM     22  H   UNL     1       0.967   1.500  -2.448  0.00  0.00    -0.090 HD
ENDBRANCH  18  19
ENDBRANCH  17  18
ENDBRANCH   4  17
TORSDOF 5
