REMARK  Name = ZINC09862468
REMARK  11 active torsions:
REMARK  status: ('A' for Active; 'I' for Inactive)
REMARK    1  A    between atoms: C_1  and  C_2
REMARK    2  A    between atoms: C_7  and  N_8
REMARK    3  A    between atoms: C_11  and  C_16
REMARK    4  A    between atoms: C_16  and  S_17
REMARK    5  A    between atoms: S_17  and  C_18
REMARK    6  A    between atoms: C_21  and  C_30
REMARK    7  A    between atoms: N_22  and  C_23
REMARK    8  A    between atoms: C_30  and  C_32
REMARK    9  A    between atoms: C_30  and  N_60
REMARK   10  A    between atoms: C_33  and  N_60
REMARK   11  A    between atoms: C_34  and  N_60
REMARK                            x       y       z     vdW  Elec       q    Type
REMARK                         _______ _______ _______ _____ _____    ______ ____
ROOT
ATOM      1  C   UNL     1      -3.580   5.049   6.542  0.00  0.00    +0.153 C 
ENDROOT
BRANCH   1   5
ATOM      2  N   UNL     1      -5.387   8.913   8.739  0.00  0.00    -0.283 N 
ATOM      3  C   UNL     1      -4.667   7.737   8.810  0.00  0.00    +0.224 A 
ATOM      4  N   UNL     1      -4.479   7.003   7.716  0.00  0.00    -0.198 NA
ATOM      5  C   UNL     1      -3.790   5.877   7.783  0.00  0.00    +0.146 A 
ATOM      6  N   UNL     1      -3.290   5.473   8.938  0.00  0.00    -0.199 NA
ATOM      7  C   UNL     1      -3.469   6.204  10.035  0.00  0.00    +0.217 A 
ATOM      8  N   UNL     1      -4.161   7.336   9.972  0.00  0.00    -0.181 NA
ATOM      9  N   UNL     1      -2.941   5.783  11.239  0.00  0.00    -0.327 N 
ATOM     10  H   UNL     1      -5.683   9.249   7.878  0.00  0.00    +0.155 HD
ATOM     11  H   UNL     1      -3.075   6.315  12.040  0.00  0.00    +0.145 HD
ATOM     12  H   UNL     1      -2.436   4.957  11.285  0.00  0.00    +0.145 HD
BRANCH   2  19
ATOM     13  C   UNL     1      -5.877  11.708   8.529  0.00  0.00    +0.045 C 
ATOM     14  C   UNL     1      -5.935  10.986   9.850  0.00  0.00    -0.029 A 
ATOM     15  C   UNL     1      -6.233  11.681  11.006  0.00  0.00    +0.005 A 
ATOM     16  C   UNL     1      -6.287  11.019  12.218  0.00  0.00    +0.000 A 
ATOM     17  C   UNL     1      -6.042   9.659  12.278  0.00  0.00    +0.002 A 
ATOM     18  C   UNL     1      -5.749   8.957  11.126  0.00  0.00    +0.023 A 
ATOM     19  C   UNL     1      -5.689   9.620   9.907  0.00  0.00    +0.036 A 
ENDBRANCH   2  19
ENDBRANCH   1   5
BRANCH   1  20
ATOM     20  S   UNL     1      -2.059   5.577   5.715  0.00  0.00    -0.078 S 
BRANCH  20  21
ATOM     21  C   UNL     1      -2.061   4.477   4.339  0.00  0.00    +0.196 A 
ATOM     22  N   UNL     1      -2.962   3.559   4.074  0.00  0.00    -0.122 NA
ATOM     23  N   UNL     1      -2.652   2.942   2.990  0.00  0.00    -0.135 NA
ATOM     24  C   UNL     1      -1.540   3.417   2.505  0.00  0.00    +0.125 A 
ATOM     25  N   UNL     1      -1.123   4.415   3.345  0.00  0.00    -0.275 N 
BRANCH  25  26
ATOM     26  C   UNL     1       0.026   5.210   3.213  0.00  0.00    +0.050 A 
ATOM     27  C   UNL     1       1.285   4.632   3.307  0.00  0.00    +0.029 A 
ATOM     28  C   UNL     1       2.415   5.414   3.172  0.00  0.00    +0.040 A 
ATOM     29  C   UNL     1       2.293   6.776   2.954  0.00  0.00    +0.124 A 
ATOM     30  C   UNL     1       1.038   7.356   2.865  0.00  0.00    +0.040 A 
ATOM     31  C   UNL     1      -0.094   6.575   2.995  0.00  0.00    +0.029 A 
ATOM     32  F   UNL     1       3.399   7.541   2.827  0.00  0.00    -0.205 F 
ENDBRANCH  25  26
BRANCH  24  33
ATOM     33  C   UNL     1      -0.845   2.958   1.249  0.00  0.00    -0.003 C 
ATOM     34  C   UNL     1      -1.604   3.477   0.027  0.00  0.00    -0.005 C 
BRANCH  33  37
ATOM     35  C   UNL     1      -0.138   1.005   0.004  0.00  0.00    -0.096 C 
ATOM     36  C   UNL     1      -0.170   0.952   2.425  0.00  0.00    -0.096 C 
ATOM     37  N   UNL     1      -0.837   1.480   1.217  0.00  0.00    +0.382 N 
ATOM     38  H   UNL     1      -1.807   1.143   1.197  0.00  0.00    -0.082 HD
ENDBRANCH  33  37
ENDBRANCH  24  33
ENDBRANCH  20  21
ENDBRANCH   1  20
TORSDOF 7
