REMARK  Name = ZINC64716234
REMARK  8 active torsions:
REMARK  status: ('A' for Active; 'I' for Inactive)
REMARK    1  A    between atoms: C_1  and  O_2
REMARK    2  A    between atoms: O_2  and  C_3
REMARK    3  A    between atoms: C_6  and  C_9
REMARK    4  A    between atoms: C_9  and  C_11
REMARK    5  A    between atoms: C_9  and  C_29
REMARK    6  A    between atoms: C_11  and  N_12
REMARK    7  A    between atoms: C_13  and  C_15
REMARK    8  A    between atoms: C_15  and  N_16
REMARK                            x       y       z     vdW  Elec       q    Type
REMARK                         _______ _______ _______ _____ _____    ______ ____
ROOT
ATOM      1  C   UNL     1       1.589  -3.447   5.046  0.00  0.00    +0.116 C 
ENDROOT
BRANCH   1   2
ATOM      2  N   UNL     1       2.228  -4.016   6.235  0.00  0.00    -0.313 N 
ATOM      3  C   UNL     1       1.535  -4.844   7.042  0.00  0.00    +0.231 C 
ATOM      4  O   UNL     1       0.382  -5.117   6.783  0.00  0.00    -0.274 OA
ATOM      5  H   UNL     1       3.150  -3.797   6.441  0.00  0.00    +0.149 HD
BRANCH   3   6
ATOM      6  C   UNL     1       2.192  -5.429   8.265  0.00  0.00    +0.213 C 
BRANCH   6   7
ATOM      7  N   UNL     1       1.237  -6.288   8.969  0.00  0.00    -0.215 N 
ATOM      8  C   UNL     1       0.398  -5.857   9.930  0.00  0.00    +0.247 C 
ATOM      9  O   UNL     1       0.297  -4.728  10.361  0.00  0.00    -0.273 OA
ATOM     10  C   UNL     1      -0.397  -7.077  10.364  0.00  0.00    +0.113 C 
ATOM     11  C   UNL     1      -1.870  -6.851   9.956  0.00  0.00    +0.035 C 
ATOM     12  C   UNL     1      -2.548  -8.186   9.825  0.00  0.00    +0.003 C 
ATOM     13  C   UNL     1      -3.272  -8.615  11.117  0.00  0.00    +0.000 C 
ATOM     14  C   UNL     1      -2.454  -8.316  12.387  0.00  0.00    +0.000 C 
ATOM     15  C   UNL     1      -0.994  -8.641  12.216  0.00  0.00    +0.003 C 
ATOM     16  C   UNL     1      -0.257  -7.358  11.788  0.00  0.00    +0.035 C 
ATOM     17  N   UNL     1       0.148  -8.155   9.515  0.00  0.00    -0.285 N 
ATOM     18  C   UNL     1       1.086  -7.595   8.732  0.00  0.00    +0.310 C 
ATOM     19  O   UNL     1       1.730  -8.210   7.904  0.00  0.00    -0.252 OA
ATOM     20  H   UNL     1      -0.122  -9.087   9.518  0.00  0.00    +0.151 HD
ENDBRANCH   6   7
ENDBRANCH   3   6
ENDBRANCH   1   2
BRANCH   1  21
ATOM     21  C   UNL     1       2.587  -2.550   4.310  0.00  0.00    +0.064 C 
BRANCH  21  22
ATOM     22  C   UNL     1       3.726  -3.388   3.789  0.00  0.00    -0.033 C 
ATOM     23  C   UNL     1       5.036  -3.264   4.102  0.00  0.00    -0.000 A 
ATOM     24  C   UNL     1       5.764  -2.348   4.987  0.00  0.00    +0.010 A 
ATOM     25  C   UNL     1       7.107  -2.471   5.098  0.00  0.00    +0.001 A 
ATOM     26  C   UNL     1       7.818  -3.449   4.389  0.00  0.00    +0.002 A 
ATOM     27  C   UNL     1       7.218  -4.327   3.557  0.00  0.00    +0.026 A 
ATOM     28  C   UNL     1       5.810  -4.289   3.365  0.00  0.00    +0.043 A 
ATOM     29  N   UNL     1       5.009  -5.017   2.626  0.00  0.00    -0.380 N 
ATOM     30  C   UNL     1       3.635  -4.540   2.814  0.00  0.00    +0.145 C 
ATOM     31  H   UNL     1       5.280  -5.752   2.052  0.00  0.00    +0.160 HD
ENDBRANCH  21  22
BRANCH  21  35
ATOM     32  C   UNL     1       0.626  -0.618   1.042  0.00  0.00    +0.120 A 
ATOM     33  C   UNL     1       1.202   0.138   2.051  0.00  0.00    +0.046 A 
ATOM     34  C   UNL     1       1.835  -0.488   3.107  0.00  0.00    +0.008 A 
ATOM     35  C   UNL     1       1.895  -1.869   3.158  0.00  0.00    -0.038 A 
ATOM     36  C   UNL     1       1.322  -2.625   2.152  0.00  0.00    +0.008 A 
ATOM     37  C   UNL     1       0.682  -2.003   1.098  0.00  0.00    +0.046 A 
BRANCH  32  39
ATOM     38  C   UNL     1      -0.017   1.425   0.010  0.00  0.00    +0.277 C 
ATOM     39  O   UNL     1       0.002  -0.004   0.002  0.00  0.00    -0.495 OA
ENDBRANCH  32  39
ENDBRANCH  21  35
ENDBRANCH   1  21
TORSDOF 7
