REMARK  Name = ZINC24987502
REMARK  6 active torsions:
REMARK  status: ('A' for Active; 'I' for Inactive)
REMARK    1  A    between atoms: C_1  and  C_2
REMARK    2  A    between atoms: C_4  and  C_29
REMARK    3  A    between atoms: C_8  and  N_28
REMARK    4  A    between atoms: C_9  and  C_11
REMARK    5  A    between atoms: N_13  and  N_14
REMARK    6  A    between atoms: C_15  and  C_17
REMARK                            x       y       z     vdW  Elec       q    Type
REMARK                         _______ _______ _______ _____ _____    ______ ____
ROOT
ATOM      1  C   UNL     1      -8.458   2.748  -0.092  0.00  0.00    +0.269 C 
ATOM      2  O   UNL     1      -8.424   1.617   0.356  0.00  0.00    -0.268 OA
ATOM      3  N   UNL     1      -7.311   3.418  -0.322  0.00  0.00    -0.230 N 
ATOM      4  H   UNL     1      -7.342   4.440  -0.727  0.00  0.00    +0.173 HD
ENDROOT
BRANCH   1  13
ATOM      5  C   UNL     1     -13.942   2.016   0.028  0.00  0.00    +0.044 C 
ATOM      6  C   UNL     1     -13.489   3.358  -0.488  0.00  0.00    -0.037 A 
ATOM      7  C   UNL     1     -14.409   4.298  -0.889  0.00  0.00    +0.025 A 
ATOM      8  C   UNL     1     -13.990   5.532  -1.363  0.00  0.00    +0.014 A 
ATOM      9  N   UNL     1     -12.705   5.818  -1.437  0.00  0.00    -0.353 N 
ATOM     10  C   UNL     1     -11.786   4.952  -1.066  0.00  0.00    +0.088 A 
ATOM     11  C   UNL     1     -12.109   3.669  -0.569  0.00  0.00    +0.030 A 
ATOM     12  C   UNL     1     -10.969   2.841  -0.207  0.00  0.00    +0.054 A 
ATOM     13  C   UNL     1      -9.705   3.362  -0.373  0.00  0.00    +0.098 A 
ATOM     14  S   UNL     1     -10.012   4.994  -1.020  0.00  0.00    -0.064 S 
ATOM     15  C   UNL     1     -15.010   6.553  -1.798  0.00  0.00    +0.063 C 
ATOM     16  H   UNL     1     -12.380   6.799  -1.815  0.00  0.00    +0.166 HD
BRANCH  12  17
ATOM     17  N   UNL     1     -11.150   1.560   0.294  0.00  0.00    -0.356 N 
ATOM     18  H   UNL     1     -10.278   0.946   0.564  0.00  0.00    +0.142 HD
ATOM     19  H   UNL     1     -12.166   1.157   0.421  0.00  0.00    +0.142 HD
ENDBRANCH  12  17
ENDBRANCH   1  13
BRANCH   3  20
ATOM     20  N   UNL     1      -6.079   2.812  -0.044  0.00  0.00    -0.234 N 
ATOM     21  C   UNL     1      -4.931   3.481  -0.273  0.00  0.00    +0.236 C 
ATOM     22  O   UNL     1      -4.966   4.608  -0.720  0.00  0.00    -0.274 OA
ATOM     23  H   UNL     1      -6.048   1.790   0.361  0.00  0.00    +0.173 HD
BRANCH  21  24
ATOM     24  C   UNL     1      -3.606   2.829   0.026  0.00  0.00    +0.118 C 
ATOM     25  C   UNL     1      -2.468   3.792  -0.320  0.00  0.00    +0.055 C 
ATOM     26  C   UNL     1      -1.155   3.052  -0.307  0.00  0.00    -0.005 A 
ATOM     27  C   UNL     1       0.021   3.780  -0.224  0.00  0.00    +0.007 A 
ATOM     28  C   UNL     1       1.242   3.135  -0.215  0.00  0.00    +0.000 A 
ATOM     29  C   UNL     1       1.295   1.755  -0.291  0.00  0.00    +0.004 A 
ATOM     30  C   UNL     1       0.128   1.024  -0.374  0.00  0.00    +0.046 A 
ATOM     31  C   UNL     1      -1.104   1.671  -0.386  0.00  0.00    +0.124 A 
ATOM     32  O   UNL     1      -2.232   0.917  -0.453  0.00  0.00    -0.491 OA
ATOM     33  C   UNL     1      -3.446   1.567  -0.831  0.00  0.00    +0.242 C 
ENDBRANCH  21  24
ENDBRANCH   3  20
TORSDOF 4
