REMARK  Name = ZINC21595470
REMARK  11 active torsions:
REMARK  status: ('A' for Active; 'I' for Inactive)
REMARK    1  A    between atoms: C_1  and  C_2
REMARK    2  A    between atoms: C_5  and  C_9
REMARK    3  A    between atoms: C_12  and  C_14
REMARK    4  A    between atoms: N_16  and  C_17
REMARK    5  A    between atoms: C_17  and  N_19
REMARK    6  A    between atoms: N_19  and  C_20
REMARK    7  A    between atoms: C_22  and  C_33
REMARK    8  A    between atoms: C_25  and  N_26
REMARK    9  A    between atoms: N_29  and  C_32
REMARK   10  A    between atoms: C_33  and  O_35
REMARK   11  A    between atoms: O_35  and  C_36
REMARK                            x       y       z     vdW  Elec       q    Type
REMARK                         _______ _______ _______ _____ _____    ______ ____
ROOT
ATOM      1  N   UNL     1      -0.743  -1.623  -2.150  0.00  0.00    -0.295 N 
ATOM      2  H   UNL     1      -0.001  -0.870  -2.452  0.00  0.00    +0.154 HD
ENDROOT
BRANCH   1   3
ATOM      3  C   UNL     1      -1.675  -1.325  -1.146  0.00  0.00    +0.055 A 
ATOM      4  C   UNL     1      -3.013  -1.613  -1.337  0.00  0.00    +0.040 A 
ATOM      5  C   UNL     1      -3.940  -1.309  -0.335  0.00  0.00    +0.061 A 
ATOM      6  C   UNL     1      -3.509  -0.721   0.858  0.00  0.00    +0.017 A 
ATOM      7  C   UNL     1      -2.174  -0.441   1.046  0.00  0.00    +0.026 A 
ATOM      8  C   UNL     1      -1.251  -0.742   0.051  0.00  0.00    +0.051 A 
BRANCH   8   9
ATOM      9  N   UNL     1       0.098  -0.456   0.246  0.00  0.00    -0.332 N 
ATOM     10  C   UNL     1       0.306   0.982   0.467  0.00  0.00    +0.086 C 
ATOM     11  C   UNL     1       1.804   1.264   0.596  0.00  0.00    -0.060 C 
ATOM     12  N   UNL     1       2.354   0.478   1.710  0.00  0.00    +0.380 N 
ATOM     13  C   UNL     1       2.146  -0.960   1.489  0.00  0.00    -0.060 C 
ATOM     14  C   UNL     1       0.647  -1.242   1.359  0.00  0.00    +0.086 C 
ATOM     15  C   UNL     1       3.777   0.779   1.915  0.00  0.00    -0.096 C 
ATOM     16  H   UNL     1       1.814   0.762   2.625  0.00  0.00    -0.082 HD
ENDBRANCH   8   9
BRANCH   5  17
ATOM     17  C   UNL     1      -5.369  -1.609  -0.536  0.00  0.00    +0.339 C 
ATOM     18  O   UNL     1      -5.742  -2.121  -1.573  0.00  0.00    -0.245 OA
BRANCH  17  19
ATOM     19  O   UNL     1      -6.261  -1.317   0.430  0.00  0.00    -0.464 OA
ATOM     20  C   UNL     1      -7.652  -1.640   0.164  0.00  0.00    +0.280 C 
ENDBRANCH  17  19
ENDBRANCH   5  17
ENDBRANCH   1   3
BRANCH   1  21
ATOM     21  C   UNL     1      -0.758  -2.832  -2.745  0.00  0.00    +0.141 C 
ATOM     22  S   UNL     1      -1.981  -3.964  -2.355  0.00  0.00    -0.018 S 
BRANCH  21  25
ATOM     23  C   UNL     1       0.177  -4.359  -4.243  0.00  0.00    +0.285 C 
ATOM     24  O   UNL     1      -0.692  -5.163  -3.966  0.00  0.00    -0.266 OA
ATOM     25  N   UNL     1       0.191  -3.150  -3.648  0.00  0.00    -0.261 N 
ATOM     26  H   UNL     1       0.977  -2.422  -3.899  0.00  0.00    +0.157 HD
BRANCH  23  30
ATOM     27  C   UNL     1       2.969  -4.556  -6.531  0.00  0.00    +0.136 A 
ATOM     28  C   UNL     1       2.433  -5.796  -6.732  0.00  0.00    +0.050 A 
ATOM     29  C   UNL     1       1.311  -5.899  -5.904  0.00  0.00    +0.055 A 
ATOM     30  C   UNL     1       1.208  -4.704  -5.224  0.00  0.00    +0.190 A 
ATOM     31  O   UNL     1       2.220  -3.905  -5.625  0.00  0.00    -0.450 OA
BRANCH  27  36
ATOM     32  C   UNL     1       7.645  -2.457  -9.144  0.00  0.00    +0.045 C 
ATOM     33  C   UNL     1       6.420  -3.007  -8.460  0.00  0.00    -0.032 A 
ATOM     34  C   UNL     1       5.740  -2.232  -7.538  0.00  0.00    +0.005 A 
ATOM     35  C   UNL     1       4.618  -2.728  -6.908  0.00  0.00    +0.012 A 
ATOM     36  C   UNL     1       4.169  -4.018  -7.202  0.00  0.00    +0.019 A 
ATOM     37  C   UNL     1       4.863  -4.798  -8.129  0.00  0.00    +0.031 A 
ATOM     38  C   UNL     1       5.981  -4.286  -8.757  0.00  0.00    +0.045 A 
ATOM     39 CL   UNL     1       6.842  -5.251  -9.915  0.00  0.00    -0.083 Cl
ENDBRANCH  27  36
ENDBRANCH  23  30
ENDBRANCH  21  25
ENDBRANCH   1  21
TORSDOF 8
