REMARK  Name = ZINC38979597
REMARK  6 active torsions:
REMARK  status: ('A' for Active; 'I' for Inactive)
REMARK    1  A    between atoms: C_2  and  C_3
REMARK    2  A    between atoms: C_3  and  N_4
REMARK    3  A    between atoms: C_13  and  C_18
REMARK    4  A    between atoms: C_15  and  O_17
REMARK    5  A    between atoms: N_20  and  C_21
REMARK    6  A    between atoms: C_23  and  O_33
REMARK                            x       y       z     vdW  Elec       q    Type
REMARK                         _______ _______ _______ _____ _____    ______ ____
ROOT
ATOM      1  C   UNL     1       1.418  -2.622  -1.812  0.00  0.00    +0.229 C 
ATOM      2  O   UNL     1       1.520  -1.803  -0.923  0.00  0.00    -0.275 OA
ATOM      3  N   UNL     1       2.370  -2.707  -2.762  0.00  0.00    -0.297 N 
ATOM      4  H   UNL     1       2.288  -3.362  -3.473  0.00  0.00    +0.150 HD
ENDROOT
BRANCH   3   5
ATOM      5  C   UNL     1       3.528  -1.812  -2.721  0.00  0.00    +0.226 C 
ATOM      6  C   UNL     1       4.006  -1.603  -4.145  0.00  0.00    +0.132 C 
ATOM      7  C   UNL     1       5.327  -1.954  -4.429  0.00  0.00    +0.036 A 
ATOM      8  C   UNL     1       5.852  -1.792  -5.727  0.00  0.00    +0.013 A 
ATOM      9  C   UNL     1       7.144  -2.143  -5.978  0.00  0.00    +0.001 A 
ATOM     10  C   UNL     1       7.960  -2.659  -4.976  0.00  0.00    +0.002 A 
ATOM     11  C   UNL     1       7.508  -2.838  -3.703  0.00  0.00    +0.024 A 
ATOM     12  C   UNL     1       6.186  -2.498  -3.373  0.00  0.00    +0.044 A 
ATOM     13  N   UNL     1       5.745  -2.675  -2.121  0.00  0.00    -0.283 N 
ATOM     14  C   UNL     1       4.521  -2.381  -1.733  0.00  0.00    +0.245 C 
ATOM     15  O   UNL     1       4.189  -2.569  -0.577  0.00  0.00    -0.273 OA
ATOM     16  H   UNL     1       6.359  -3.038  -1.465  0.00  0.00    +0.155 HD
BRANCH   6  17
ATOM     17  O   UNL     1       3.198  -1.105  -5.087  0.00  0.00    -0.508 OA
ATOM     18  H   UNL     1       3.614  -1.018  -5.956  0.00  0.00    +0.292 HD
ENDBRANCH   6  17
ENDBRANCH   3   5
BRANCH   1  28
ATOM     19  N   UNL     1       0.696  -4.382   0.391  0.00  0.00    -0.299 N 
ATOM     20  C   UNL     1      -0.210  -3.520   0.990  0.00  0.00    +0.042 A 
ATOM     21  C   UNL     1      -0.284  -3.424   2.374  0.00  0.00    +0.024 A 
ATOM     22  C   UNL     1      -1.189  -2.559   2.957  0.00  0.00    +0.002 A 
ATOM     23  C   UNL     1      -2.029  -1.781   2.174  0.00  0.00    +0.001 A 
ATOM     24  C   UNL     1      -1.973  -1.861   0.800  0.00  0.00    +0.013 A 
ATOM     25  C   UNL     1      -1.063  -2.733   0.196  0.00  0.00    +0.039 A 
ATOM     26  C   UNL     1      -0.985  -2.844  -1.269  0.00  0.00    +0.181 C 
ATOM     27  O   UNL     1      -1.857  -2.392  -1.982  0.00  0.00    -0.291 OA
ATOM     28  C   UNL     1       0.226  -3.543  -1.854  0.00  0.00    +0.192 C 
ATOM     29  C   UNL     1       0.506  -4.788  -1.006  0.00  0.00    +0.222 C 
BRANCH  29  30
ATOM     30  O   UNL     1      -0.603  -5.684  -1.099  0.00  0.00    -0.373 OA
ATOM     31  H   UNL     1      -0.499  -6.493  -0.579  0.00  0.00    +0.212 HD
ENDBRANCH  29  30
BRANCH  19  32
ATOM     32  C   UNL     1       1.844  -4.883   1.151  0.00  0.00    +0.134 C 
BRANCH  32  34
ATOM     33  C   UNL     1       2.251  -7.262   1.518  0.00  0.00    +0.005 C 
ATOM     34  C   UNL     1       1.499  -6.217   1.761  0.00  0.00    -0.016 C 
ENDBRANCH  32  34
ENDBRANCH  19  32
ENDBRANCH   1  28
TORSDOF 6
