REMARK  Name = ZINC53039761
REMARK  6 active torsions:
REMARK  status: ('A' for Active; 'I' for Inactive)
REMARK    1  A    between atoms: C_1  and  C_2
REMARK    2  A    between atoms: C_5  and  C_7
REMARK    3  A    between atoms: C_7  and  N_8
REMARK    4  A    between atoms: N_8  and  C_9
REMARK    5  A    between atoms: C_18  and  C_19
REMARK    6  A    between atoms: C_19  and  N_21
REMARK                            x       y       z     vdW  Elec       q    Type
REMARK                         _______ _______ _______ _____ _____    ______ ____
ROOT
ATOM      1  C   UNL     1       2.557  -4.879  -1.726  0.00  0.00    +0.048 A 
ATOM      2  C   UNL     1       3.140  -5.087  -2.999  0.00  0.00    +0.020 A 
ATOM      3  C   UNL     1       2.772  -4.305  -4.103  0.00  0.00    +0.012 A 
ATOM      4  C   UNL     1       3.355  -4.532  -5.314  0.00  0.00    +0.001 A 
ATOM      5  C   UNL     1       4.311  -5.532  -5.468  0.00  0.00    +0.002 A 
ATOM      6  C   UNL     1       4.690  -6.309  -4.415  0.00  0.00    +0.026 A 
ATOM      7  C   UNL     1       4.112  -6.103  -3.152  0.00  0.00    +0.048 A 
ATOM      8  N   UNL     1       4.473  -6.856  -2.103  0.00  0.00    -0.360 N 
ATOM      9  C   UNL     1       3.951  -6.686  -0.915  0.00  0.00    +0.095 A 
ATOM     10  C   UNL     1       2.983  -5.699  -0.670  0.00  0.00    +0.040 A 
ATOM     11  H   UNL     1       5.141  -7.548  -2.228  0.00  0.00    +0.165 HD
ENDROOT
BRANCH   1  12
ATOM     12  N   UNL     1       1.607  -3.900  -1.529  0.00  0.00    -0.336 N 
ATOM     13  H   UNL     1       1.803  -3.141  -0.958  0.00  0.00    +0.147 HD
BRANCH  12  14
ATOM     14  C   UNL     1       0.300  -4.007  -2.182  0.00  0.00    +0.176 C 
BRANCH  14  19
ATOM     15  C   UNL     1      -3.198  -4.775   1.370  0.00  0.00    +0.086 C 
ATOM     16  C   UNL     1      -2.310  -4.079   0.371  0.00  0.00    +0.102 A 
ATOM     17  C   UNL     1      -2.304  -2.759   0.108  0.00  0.00    +0.045 A 
ATOM     18  C   UNL     1      -1.324  -2.544  -0.887  0.00  0.00    +0.046 A 
ATOM     19  C   UNL     1      -0.789  -3.745  -1.173  0.00  0.00    +0.122 A 
ATOM     20  O   UNL     1      -1.386  -4.670  -0.404  0.00  0.00    -0.463 OA
ENDBRANCH  14  19
ENDBRANCH  12  14
ENDBRANCH   1  12
BRANCH  10  21
ATOM     21  C   UNL     1       2.419  -5.528   0.678  0.00  0.00    +0.080 C 
ATOM     22  S   UNL     1       1.363  -4.221   1.005  0.00  0.00    -0.035 S 
BRANCH  21  23
ATOM     23  N   UNL     1       2.734  -6.401   1.655  0.00  0.00    -0.352 N 
ATOM     24  H   UNL     1       3.333  -7.142   1.470  0.00  0.00    +0.143 HD
ATOM     25  H   UNL     1       2.363  -6.289   2.544  0.00  0.00    +0.143 HD
ENDBRANCH  21  23
ENDBRANCH  10  21
TORSDOF 5
