REMARK  Name = ZINC35707658
REMARK  10 active torsions:
REMARK  status: ('A' for Active; 'I' for Inactive)
REMARK    1  A    between atoms: C_1  and  C_2
REMARK    2  A    between atoms: C_3  and  C_28
REMARK    3  A    between atoms: C_4  and  C_11
REMARK    4  A    between atoms: N_9  and  C_10
REMARK    5  A    between atoms: C_14  and  N_17
REMARK    6  A    between atoms: N_20  and  C_21
REMARK    7  A    between atoms: C_28  and  O_30
REMARK    8  A    between atoms: O_30  and  C_31
REMARK    9  A    between atoms: C_31  and  C_32
REMARK   10  A    between atoms: C_31  and  C_33
REMARK                            x       y       z     vdW  Elec       q    Type
REMARK                         _______ _______ _______ _____ _____    ______ ____
ROOT
ATOM      1  C   UNL     1      -2.009  -2.868  -1.531  0.00  0.00    -0.022 A 
ATOM      2  C   UNL     1      -1.651  -2.699  -2.856  0.00  0.00    +0.007 A 
ATOM      3  C   UNL     1      -2.578  -2.914  -3.856  0.00  0.00    +0.024 A 
ATOM      4  C   UNL     1      -3.871  -3.301  -3.530  0.00  0.00    +0.035 A 
ATOM      5  C   UNL     1      -4.228  -3.470  -2.199  0.00  0.00    +0.024 A 
ATOM      6  C   UNL     1      -3.294  -3.259  -1.203  0.00  0.00    +0.007 A 
ENDROOT
BRANCH   1  10
ATOM      7  C   UNL     1       0.436   0.934  -0.129  0.00  0.00    +0.061 C 
ATOM      8  C   UNL     1       0.302  -0.549  -0.356  0.00  0.00    +0.024 C 
ATOM      9  C   UNL     1      -0.904  -1.138  -0.203  0.00  0.00    +0.078 C 
ATOM     10  C   UNL     1      -0.995  -2.632  -0.441  0.00  0.00    +0.143 C 
ATOM     11  N   UNL     1       0.249  -3.323  -0.822  0.00  0.00    -0.288 N 
ATOM     12  C   UNL     1       1.378  -2.597  -0.935  0.00  0.00    +0.307 C 
ATOM     13  O   UNL     1       2.410  -3.158  -1.248  0.00  0.00    -0.252 OA
ATOM     14  N   UNL     1       1.400  -1.276  -0.718  0.00  0.00    -0.262 N 
ATOM     15  C   UNL     1       2.675  -0.571  -0.871  0.00  0.00    +0.139 C 
ATOM     16  H   UNL     1       0.255  -4.279  -0.987  0.00  0.00    +0.151 HD
BRANCH   9  17
ATOM     17  C   UNL     1      -2.043  -0.386   0.166  0.00  0.00    +0.339 C 
ATOM     18  O   UNL     1      -1.947   0.813   0.353  0.00  0.00    -0.245 OA
BRANCH  17  19
ATOM     19  O   UNL     1      -3.237  -0.998   0.312  0.00  0.00    -0.459 OA
BRANCH  19  20
ATOM     20  C   UNL     1      -4.345  -0.177   0.687  0.00  0.00    +0.171 C 
ATOM     21  C   UNL     1      -5.034   0.356  -0.571  0.00  0.00    +0.052 C 
ATOM     22  C   UNL     1      -5.341  -1.005   1.502  0.00  0.00    +0.052 C 
ENDBRANCH  19  20
ENDBRANCH  17  19
ENDBRANCH   9  17
ENDBRANCH   1  10
BRANCH   4  23
ATOM     23  N   UNL     1      -4.813  -3.519  -4.542  0.00  0.00    -0.269 N 
ATOM     24  C   UNL     1      -4.429  -4.060  -5.715  0.00  0.00    +0.308 C 
ATOM     25  O   UNL     1      -3.255  -4.297  -5.920  0.00  0.00    -0.252 OA
ATOM     26  N   UNL     1      -5.348  -4.339  -6.661  0.00  0.00    -0.269 N 
ATOM     27  H   UNL     1      -5.743  -3.281  -4.398  0.00  0.00    +0.156 HD
ATOM     28  H   UNL     1      -6.273  -4.079  -6.530  0.00  0.00    +0.156 HD
BRANCH  26  29
ATOM     29  C   UNL     1      -4.966  -5.002  -7.833  0.00  0.00    +0.035 A 
ATOM     30  C   UNL     1      -3.942  -5.939  -7.800  0.00  0.00    +0.024 A 
ATOM     31  C   UNL     1      -3.568  -6.593  -8.957  0.00  0.00    +0.017 A 
ATOM     32  C   UNL     1      -4.212  -6.315 -10.150  0.00  0.00    +0.018 A 
ATOM     33  C   UNL     1      -5.233  -5.382 -10.186  0.00  0.00    +0.017 A 
ATOM     34  C   UNL     1      -5.615  -4.729  -9.030  0.00  0.00    +0.024 A 
ATOM     35 BR   UNL     1      -3.697  -7.212 -11.733  0.00  0.00    -0.050 Br
ENDBRANCH  26  29
ENDBRANCH   4  23
TORSDOF 6
