REMARK  Name = ZINC13333978
REMARK  14 active torsions:
REMARK  status: ('A' for Active; 'I' for Inactive)
REMARK    1  A    between atoms: C_1  and  C_2
REMARK    2  A    between atoms: C_8  and  C_33
REMARK    3  A    between atoms: C_8  and  C_34
REMARK    4  A    between atoms: C_9  and  C_10
REMARK    5  A    between atoms: C_9  and  O_32
REMARK    6  A    between atoms: C_11  and  C_12
REMARK    7  A    between atoms: C_12  and  C_14
REMARK    8  A    between atoms: C_12  and  O_15
REMARK    9  A    between atoms: O_15  and  C_16
REMARK   10  A    between atoms: C_18  and  O_31
REMARK   11  A    between atoms: C_20  and  O_30
REMARK   12  A    between atoms: C_22  and  O_29
REMARK   13  A    between atoms: C_24  and  C_27
REMARK   14  A    between atoms: C_27  and  O_28
REMARK                            x       y       z     vdW  Elec       q    Type
REMARK                         _______ _______ _______ _____ _____    ______ ____
ROOT
ATOM      1  C   UNL     1       3.877   1.422   2.327  0.00  0.00    +0.141 C 
ATOM      2  C   UNL     1       3.775   2.948   2.382  0.00  0.00    +0.042 C 
ENDROOT
BRANCH   1   4
ATOM      3  C   UNL     1       2.126   0.084   1.277  0.00  0.00    +0.006 C 
ATOM      4  C   UNL     1       2.493   0.827   2.291  0.00  0.00    +0.002 C 
BRANCH   3  12
ATOM      5  C   UNL     1      -0.019   1.526   0.010  0.00  0.00    +0.011 C 
ATOM      6  C   UNL     1       0.002  -0.004   0.002  0.00  0.00    +0.029 C 
ATOM      7  C   UNL     1      -1.435  -0.535   0.014  0.00  0.00    +0.080 C 
ATOM      8  C   UNL     1      -1.391  -2.042   0.140  0.00  0.00    +0.134 C 
ATOM      9  O   UNL     1      -2.001  -2.746  -0.628  0.00  0.00    -0.297 OA
ATOM     10  C   UNL     1      -0.562  -2.644   1.253  0.00  0.00    +0.083 C 
ATOM     11  C   UNL     1       0.844  -2.037   1.196  0.00  0.00    +0.004 C 
ATOM     12  C   UNL     1       0.741  -0.511   1.242  0.00  0.00    +0.093 C 
ATOM     13  C   UNL     1       1.661  -2.529   2.393  0.00  0.00    +0.014 C 
ATOM     14  C   UNL     1       1.532  -2.463  -0.102  0.00  0.00    +0.014 C 
BRANCH  12  15
ATOM     15  O   UNL     1       0.026  -0.118   2.415  0.00  0.00    -0.384 OA
ATOM     16  H   UNL     1      -0.073   0.839   2.513  0.00  0.00    +0.211 HD
ENDBRANCH  12  15
ENDBRANCH   3  12
ENDBRANCH   1   4
BRANCH   1  17
ATOM     17  O   UNL     1       4.569   0.949   3.485  0.00  0.00    -0.342 OA
BRANCH  17  18
ATOM     18  C   UNL     1       5.985   0.855   3.318  0.00  0.00    +0.282 C 
ATOM     19  C   UNL     1       6.591   0.113   4.512  0.00  0.00    +0.201 C 
ATOM     20  C   UNL     1       8.115   0.069   4.355  0.00  0.00    +0.179 C 
ATOM     21  C   UNL     1       8.645   1.501   4.229  0.00  0.00    +0.177 C 
ATOM     22  C   UNL     1       7.959   2.189   3.047  0.00  0.00    +0.178 C 
ATOM     23  O   UNL     1       6.544   2.168   3.240  0.00  0.00    -0.341 OA
BRANCH  21  24
ATOM     24  O   UNL     1       8.365   2.221   5.431  0.00  0.00    -0.386 OA
ATOM     25  H   UNL     1       8.766   1.837   6.223  0.00  0.00    +0.210 HD
ENDBRANCH  21  24
BRANCH  20  26
ATOM     26  O   UNL     1       8.695  -0.559   5.500  0.00  0.00    -0.386 OA
ATOM     27  H   UNL     1       8.397  -1.468   5.643  0.00  0.00    +0.210 HD
ENDBRANCH  20  26
BRANCH  19  28
ATOM     28  O   UNL     1       6.254   0.796   5.720  0.00  0.00    -0.384 OA
ATOM     29  H   UNL     1       5.303   0.865   5.881  0.00  0.00    +0.210 HD
ENDBRANCH  19  28
BRANCH  22  30
ATOM     30  C   UNL     1       8.440   3.638   2.951  0.00  0.00    +0.190 C 
BRANCH  30  31
ATOM     31  O   UNL     1       7.890   4.246   1.780  0.00  0.00    -0.392 OA
ATOM     32  H   UNL     1       8.153   5.168   1.656  0.00  0.00    +0.210 HD
ENDBRANCH  30  31
ENDBRANCH  22  30
ENDBRANCH  17  18
ENDBRANCH   1  17
TORSDOF 10
