REMARK  Name = ZINC46347312
REMARK  8 active torsions:
REMARK  status: ('A' for Active; 'I' for Inactive)
REMARK    1  A    between atoms: C_1  and  N_2
REMARK    2  A    between atoms: N_2  and  C_3
REMARK    3  A    between atoms: N_2  and  C_4
REMARK    4  A    between atoms: C_4  and  C_6
REMARK    5  A    between atoms: C_4  and  C_22
REMARK    6  A    between atoms: C_6  and  N_7
REMARK    7  A    between atoms: N_10  and  N_11
REMARK    8  A    between atoms: C_12  and  C_14
REMARK                            x       y       z     vdW  Elec       q    Type
REMARK                         _______ _______ _______ _____ _____    ______ ____
ROOT
ATOM      1  N   UNL     1      -0.862  -2.018  -0.474  0.00  0.00    -0.299 N 
ATOM      2  C   UNL     1      -1.238  -3.292  -0.244  0.00  0.00    +0.316 C 
ATOM      3  O   UNL     1      -0.402  -4.173  -0.198  0.00  0.00    -0.251 OA
ATOM      4  N   UNL     1      -2.541  -3.588  -0.067  0.00  0.00    -0.218 N 
ATOM      5  H   UNL     1      -1.529  -1.314  -0.511  0.00  0.00    +0.150 HD
ATOM      6  H   UNL     1      -2.811  -4.505   0.099  0.00  0.00    +0.174 HD
ENDROOT
BRANCH   4   7
ATOM      7  N   UNL     1      -3.504  -2.572  -0.120  0.00  0.00    -0.233 N 
ATOM      8  C   UNL     1      -4.807  -2.869   0.057  0.00  0.00    +0.234 C 
ATOM      9  O   UNL     1      -5.145  -4.015   0.264  0.00  0.00    -0.274 OA
ATOM     10  H   UNL     1      -3.233  -1.655  -0.286  0.00  0.00    +0.173 HD
BRANCH   8  11
ATOM     11  C   UNL     1      -5.843  -1.776  -0.001  0.00  0.00    +0.099 C 
ATOM     12  C   UNL     1      -5.573  -0.745   1.108  0.00  0.00    +0.037 C 
ATOM     13  C   UNL     1      -6.794   0.194   1.264  0.00  0.00    +0.166 C 
ATOM     14  S   UNL     1      -8.193  -0.869   0.720  0.00  0.00    -0.030 S 
ATOM     15  O   UNL     1      -8.783  -0.297  -0.440  0.00  0.00    -0.174 OA
ATOM     16  O   UNL     1      -9.008  -1.171   1.843  0.00  0.00    -0.174 OA
ATOM     17  C   UNL     1      -7.257  -2.380   0.234  0.00  0.00    +0.178 C 
ENDBRANCH   8  11
ENDBRANCH   4   7
BRANCH   1  18
ATOM     18  C   UNL     1       0.554  -1.696  -0.667  0.00  0.00    +0.095 C 
BRANCH  18  19
ATOM     19  C   UNL     1       0.695  -0.217  -1.036  0.00  0.00    -0.020 C 
BRANCH  19  20
ATOM     20  C   UNL     1       0.048   0.030  -2.375  0.00  0.00    -0.052 A 
ATOM     21  C   UNL     1      -1.218   0.580  -2.451  0.00  0.00    +0.009 A 
ATOM     22  C   UNL     1      -1.771   0.790  -3.671  0.00  0.00    +0.045 A 
ATOM     23  S   UNL     1      -0.488   0.201  -4.764  0.00  0.00    -0.105 S 
ATOM     24  C   UNL     1       0.701  -0.279  -3.522  0.00  0.00    +0.047 A 
ENDBRANCH  19  20
BRANCH  19  26
ATOM     25  C   UNL     1       2.255   1.543  -1.507  0.00  0.00    -0.096 C 
ATOM     26  N   UNL     1       2.119   0.136  -1.108  0.00  0.00    +0.382 N 
ATOM     27  C   UNL     1       2.740  -0.062   0.209  0.00  0.00    -0.096 C 
ATOM     28  H   UNL     1       2.578  -0.452  -1.788  0.00  0.00    -0.082 HD
ENDBRANCH  19  26
ENDBRANCH  18  19
ENDBRANCH   1  18
TORSDOF 6
