REMARK  Name = ZINC08636325
REMARK  9 active torsions:
REMARK  status: ('A' for Active; 'I' for Inactive)
REMARK    1  A    between atoms: C_1  and  N_58
REMARK    2  A    between atoms: C_2  and  N_58
REMARK    3  A    between atoms: C_3  and  C_4
REMARK    4  A    between atoms: C_3  and  N_58
REMARK    5  A    between atoms: C_4  and  N_5
REMARK    6  A    between atoms: C_6  and  C_8
REMARK    7  A    between atoms: C_11  and  O_34
REMARK    8  A    between atoms: C_13  and  O_33
REMARK    9  A    between atoms: N_19  and  C_23
REMARK                            x       y       z     vdW  Elec       q    Type
REMARK                         _______ _______ _______ _____ _____    ______ ____
ROOT
ATOM      1  C   UNL     1       4.012   1.013  -0.126  0.00  0.00    +0.100 C 
ATOM      2  C   UNL     1       5.008   0.476  -1.127  0.00  0.00    +0.048 C 
ATOM      3  C   UNL     1       5.011  -1.038  -1.164  0.00  0.00    +0.146 C 
ATOM      4  C   UNL     1       3.643  -1.610  -1.438  0.00  0.00    +0.165 C 
ATOM      5  C   UNL     1       2.535  -1.071  -0.565  0.00  0.00    +0.124 C 
ATOM      6  C   UNL     1       2.667   0.377  -0.150  0.00  0.00    +0.115 C 
ATOM      7  N   UNL     1       1.660   1.099  -0.927  0.00  0.00    -0.276 N 
ATOM      8  C   UNL     1       0.889   0.192  -1.552  0.00  0.00    +0.138 C 
ATOM      9  S   UNL     1      -0.464   0.616  -2.511  0.00  0.00    -0.018 S 
ATOM     10  N   UNL     1       1.283  -1.076  -1.360  0.00  0.00    -0.319 N 
ATOM     11  H   UNL     1       0.825  -1.865  -1.687  0.00  0.00    +0.148 HD
ENDROOT
BRANCH   7  12
ATOM     12  C   UNL     1       1.523   2.486  -1.005  0.00  0.00    +0.043 A 
ATOM     13  C   UNL     1       1.146   3.211   0.105  0.00  0.00    +0.024 A 
ATOM     14  C   UNL     1       1.011   4.595   0.038  0.00  0.00    +0.002 A 
ATOM     15  C   UNL     1       1.237   5.268  -1.123  0.00  0.00    +0.008 A 
ATOM     16  C   UNL     1       1.617   4.565  -2.279  0.00  0.00    -0.016 A 
ATOM     17  C   UNL     1       1.763   3.157  -2.223  0.00  0.00    +0.004 A 
ATOM     18  C   UNL     1       2.143   2.457  -3.378  0.00  0.00    +0.010 A 
ATOM     19  C   UNL     1       2.367   3.137  -4.536  0.00  0.00    +0.001 A 
ATOM     20  C   UNL     1       2.224   4.522  -4.593  0.00  0.00    +0.001 A 
ATOM     21  C   UNL     1       1.857   5.234  -3.492  0.00  0.00    +0.008 A 
ENDBRANCH   7  12
BRANCH   1  23
ATOM     22  N   UNL     1       3.755   3.344   0.661  0.00  0.00    -0.317 N 
ATOM     23  C   UNL     1       3.840   2.489  -0.377  0.00  0.00    +0.218 C 
ATOM     24  O   UNL     1       3.777   2.907  -1.514  0.00  0.00    -0.275 OA
ATOM     25  H   UNL     1       3.733   3.004   1.569  0.00  0.00    +0.149 HD
BRANCH  22  26
ATOM     26  C   UNL     1       3.696   4.788   0.418  0.00  0.00    +0.085 C 
BRANCH  26  27
ATOM     27  C   UNL     1       3.641   5.528   1.756  0.00  0.00    -0.061 C 
BRANCH  27  30
ATOM     28  C   UNL     1       2.385   7.480   1.067  0.00  0.00    -0.097 C 
ATOM     29  C   UNL     1       4.146   7.693   2.714  0.00  0.00    -0.097 C 
ATOM     30  N   UNL     1       3.709   6.981   1.495  0.00  0.00    +0.377 N 
ATOM     31  H   UNL     1       4.388   7.155   0.746  0.00  0.00    -0.083 HD
ENDBRANCH  27  30
ENDBRANCH  26  27
ENDBRANCH  22  26
ENDBRANCH   1  23
BRANCH   4  32
ATOM     32  O   UNL     1       3.312  -1.342  -2.802  0.00  0.00    -0.387 OA
ATOM     33  H   UNL     1       3.972  -1.656  -3.435  0.00  0.00    +0.210 HD
ENDBRANCH   4  32
BRANCH   3  34
ATOM     34  O   UNL     1       5.473  -1.529   0.096  0.00  0.00    -0.389 OA
ATOM     35  H   UNL     1       6.350  -1.206   0.346  0.00  0.00    +0.210 HD
ENDBRANCH   3  34
TORSDOF 7
