REMARK  Name = ZINC35776085
REMARK  6 active torsions:
REMARK  status: ('A' for Active; 'I' for Inactive)
REMARK    1  A    between atoms: C_1  and  C_2
REMARK    2  A    between atoms: N_8  and  C_9
REMARK    3  A    between atoms: C_9  and  C_10
REMARK    4  A    between atoms: C_10  and  C_12
REMARK    5  A    between atoms: C_10  and  C_13
REMARK    6  A    between atoms: C_13  and  N_15
REMARK                            x       y       z     vdW  Elec       q    Type
REMARK                         _______ _______ _______ _____ _____    ______ ____
ROOT
ATOM      1  C   UNL     1       0.088   0.008   2.423  0.00  0.00    +0.094 C 
ENDROOT
BRANCH   1   8
ATOM      2  C   UNL     1      -0.019   1.526   0.010  0.00  0.00    +0.026 C 
ATOM      3  C   UNL     1       0.002  -0.004   0.002  0.00  0.00    +0.079 C 
ATOM      4  C   UNL     1       0.720  -0.499  -1.256  0.00  0.00    +0.178 C 
ATOM      5  O   UNL     1       0.803  -1.926  -1.222  0.00  0.00    -0.377 OA
ATOM      6  C   UNL     1       1.492  -2.436  -0.077  0.00  0.00    +0.175 C 
ATOM      7  C   UNL     1       0.782  -1.960   1.193  0.00  0.00    +0.113 C 
ATOM      8  N   UNL     1       0.715  -0.492   1.192  0.00  0.00    -0.295 NA
ENDBRANCH   1   8
BRANCH   1   9
ATOM      9  C   UNL     1       0.990  -0.307   3.618  0.00  0.00    +0.051 C 
ATOM     10  C   UNL     1       2.301   0.470   3.487  0.00  0.00    +0.015 C 
BRANCH   9  11
ATOM     11  C   UNL     1       0.293   0.095   4.892  0.00  0.00    +0.050 C 
ATOM     12  S   UNL     1      -1.168   0.742   4.835  0.00  0.00    -0.040 S 
BRANCH  11  13
ATOM     13  N   UNL     1       0.901  -0.090   6.081  0.00  0.00    -0.355 N 
ATOM     14  H   UNL     1       1.788  -0.483   6.115  0.00  0.00    +0.143 HD
ATOM     15  H   UNL     1       0.453   0.169   6.901  0.00  0.00    +0.143 HD
ENDBRANCH  11  13
ENDBRANCH   9  11
ENDBRANCH   1   9
TORSDOF 4
