REMARK  Name = ZINC35337661
REMARK  9 active torsions:
REMARK  status: ('A' for Active; 'I' for Inactive)
REMARK    1  A    between atoms: C_1  and  C_2
REMARK    2  A    between atoms: C_3  and  C_26
REMARK    3  A    between atoms: C_4  and  C_13
REMARK    4  A    between atoms: C_16  and  N_19
REMARK    5  A    between atoms: C_20  and  C_22
REMARK    6  A    between atoms: C_22  and  C_23
REMARK    7  A    between atoms: C_23  and  C_24
REMARK    8  A    between atoms: C_23  and  C_25
REMARK    9  A    between atoms: N_28  and  C_29
REMARK                            x       y       z     vdW  Elec       q    Type
REMARK                         _______ _______ _______ _____ _____    ______ ____
ROOT
ATOM      1  C   UNL     1      -0.156   1.575   0.943  0.00  0.00    +0.064 C 
ATOM      2  C   UNL     1      -0.104   0.086   0.717  0.00  0.00    +0.025 C 
ATOM      3  C   UNL     1      -1.255  -0.593   0.456  0.00  0.00    +0.058 C 
ATOM      4  C   UNL     1      -1.190  -2.071   0.159  0.00  0.00    +0.142 C 
ATOM      5  N   UNL     1       0.019  -2.630   0.791  0.00  0.00    -0.300 N 
ATOM      6  C   UNL     1      -0.069  -3.963   1.376  0.00  0.00    +0.109 C 
ATOM      7  C   UNL     1       1.167  -4.810   1.117  0.00  0.00    +0.030 C 
ATOM      8  C   UNL     1       2.370  -4.185   1.838  0.00  0.00    +0.078 C 
ATOM      9  S   UNL     1       2.741  -2.608   1.010  0.00  0.00    -0.092 S 
ATOM     10  C   UNL     1       1.148  -1.868   0.834  0.00  0.00    +0.135 C 
ATOM     11  N   UNL     1       1.065  -0.545   0.771  0.00  0.00    -0.341 N 
ATOM     12  H   UNL     1       1.882  -0.021   0.769  0.00  0.00    +0.167 HD
ENDROOT
BRANCH   4  13
ATOM     13  C   UNL     1      -1.129  -2.285  -1.331  0.00  0.00    -0.022 A 
ATOM     14  C   UNL     1       0.072  -2.139  -2.001  0.00  0.00    +0.007 A 
ATOM     15  C   UNL     1       0.132  -2.334  -3.366  0.00  0.00    +0.023 A 
ATOM     16  C   UNL     1      -1.017  -2.678  -4.068  0.00  0.00    +0.033 A 
ATOM     17  C   UNL     1      -2.221  -2.825  -3.392  0.00  0.00    +0.023 A 
ATOM     18  C   UNL     1      -2.273  -2.633  -2.026  0.00  0.00    +0.007 A 
BRANCH  16  19
ATOM     19  N   UNL     1      -0.960  -2.876  -5.452  0.00  0.00    -0.285 N 
ATOM     20  C   UNL     1      -0.138  -2.122  -6.207  0.00  0.00    +0.217 C 
ATOM     21  O   UNL     1       0.614  -1.330  -5.680  0.00  0.00    -0.275 OA
ATOM     22  H   UNL     1      -1.513  -3.556  -5.867  0.00  0.00    +0.155 HD
BRANCH  20  23
ATOM     23  C   UNL     1      -0.152  -2.264  -7.708  0.00  0.00    +0.099 C 
BRANCH  23  24
ATOM     24  C   UNL     1       0.868  -1.301  -8.320  0.00  0.00    -0.008 C 
ATOM     25  C   UNL     1       0.943  -1.532  -9.831  0.00  0.00    +0.008 C 
ATOM     26  C   UNL     1       0.437   0.141  -8.045  0.00  0.00    +0.008 C 
ENDBRANCH  23  24
ENDBRANCH  20  23
ENDBRANCH  16  19
ENDBRANCH   4  13
BRANCH   3  27
ATOM     27  C   UNL     1      -2.492   0.076   0.462  0.00  0.00    +0.248 C 
ATOM     28  O   UNL     1      -2.538   1.270   0.703  0.00  0.00    -0.270 OA
ATOM     29  N   UNL     1      -3.627  -0.603   0.202  0.00  0.00    -0.282 N 
ATOM     30  H   UNL     1      -3.600  -1.565   0.084  0.00  0.00    +0.155 HD
BRANCH  29  31
ATOM     31  C   UNL     1      -4.843   0.080   0.103  0.00  0.00    +0.034 A 
ATOM     32  C   UNL     1      -4.878   1.367  -0.417  0.00  0.00    +0.023 A 
ATOM     33  C   UNL     1      -6.081   2.039  -0.514  0.00  0.00    +0.002 A 
ATOM     34  C   UNL     1      -7.250   1.432  -0.093  0.00  0.00    +0.000 A 
ATOM     35  C   UNL     1      -7.218   0.150   0.426  0.00  0.00    +0.002 A 
ATOM     36  C   UNL     1      -6.020  -0.529   0.519  0.00  0.00    +0.023 A 
ENDBRANCH  29  31
ENDBRANCH   3  27
TORSDOF 6
