REMARK  Name = ZINC12468315
REMARK  7 active torsions:
REMARK  status: ('A' for Active; 'I' for Inactive)
REMARK    1  A    between atoms: C_1  and  C_2
REMARK    2  A    between atoms: C_2  and  C_4
REMARK    3  A    between atoms: C_2  and  O_36
REMARK    4  A    between atoms: C_9  and  N_10
REMARK    5  A    between atoms: C_11  and  C_13
REMARK    6  A    between atoms: C_19  and  C_28
REMARK    7  A    between atoms: C_22  and  C_24
REMARK                            x       y       z     vdW  Elec       q    Type
REMARK                         _______ _______ _______ _____ _____    ______ ____
ROOT
ATOM      1  C   UNL     1      -3.443  -0.349   3.684  0.00  0.00    +0.091 C 
ATOM      2  C   UNL     1      -4.252  -0.448   4.785  0.00  0.00    +0.104 C 
ATOM      3  N   UNL     1      -5.532  -0.166   4.431  0.00  0.00    -0.269 N 
ATOM      4  N   UNL     1      -5.595   0.109   3.071  0.00  0.00    -0.226 N 
ATOM      5  C   UNL     1      -4.307   0.033   2.560  0.00  0.00    +0.126 C 
ATOM      6  N   UNL     1      -4.011   0.262   1.313  0.00  0.00    -0.361 N 
ATOM      7  C   UNL     1      -5.077   0.669   0.391  0.00  0.00    +0.149 C 
ATOM      8  C   UNL     1      -6.408   0.035   0.796  0.00  0.00    +0.065 C 
ATOM      9  C   UNL     1      -6.758   0.427   2.236  0.00  0.00    +0.202 C 
ATOM     10  H   UNL     1      -6.289  -0.159   5.038  0.00  0.00    +0.170 HD
ATOM     11  H   UNL     1      -3.098   0.164   0.998  0.00  0.00    +0.162 HD
ENDROOT
BRANCH   7  12
ATOM     12  C   UNL     1      -5.213   2.170   0.420  0.00  0.00    +0.127 A 
ATOM     13  C   UNL     1      -5.438   2.961  -0.644  0.00  0.00    +0.047 A 
ATOM     14  C   UNL     1      -5.494   4.289  -0.164  0.00  0.00    +0.041 A 
ATOM     15  C   UNL     1      -5.301   4.231   1.166  0.00  0.00    +0.195 A 
ATOM     16  O   UNL     1      -5.137   2.944   1.515  0.00  0.00    -0.466 OA
ENDBRANCH   7  12
BRANCH   1  18
ATOM     17  N   UNL     1      -1.309  -0.320   2.506  0.00  0.00    -0.281 N 
ATOM     18  C   UNL     1      -1.995  -0.576   3.638  0.00  0.00    +0.253 C 
ATOM     19  O   UNL     1      -1.413  -0.994   4.621  0.00  0.00    -0.270 OA
ATOM     20  H   UNL     1      -1.759   0.080   1.746  0.00  0.00    +0.155 HD
BRANCH  17  26
ATOM     21  C   UNL     1       0.623  -0.962   1.206  0.00  0.00    +0.005 A 
ATOM     22  C   UNL     1       1.969  -1.264   1.127  0.00  0.00    +0.057 A 
ATOM     23  C   UNL     1       2.754  -1.243   2.268  0.00  0.00    +0.167 A 
ATOM     24  C   UNL     1       2.186  -0.917   3.498  0.00  0.00    +0.168 A 
ATOM     25  C   UNL     1       0.837  -0.614   3.576  0.00  0.00    +0.073 A 
ATOM     26  C   UNL     1       0.055  -0.631   2.429  0.00  0.00    +0.043 A 
ATOM     27  O   UNL     1       3.158  -0.968   4.455  0.00  0.00    -0.453 OA
ATOM     28  C   UNL     1       4.234  -1.724   3.870  0.00  0.00    +0.466 C 
ATOM     29  O   UNL     1       4.083  -1.498   2.457  0.00  0.00    -0.453 OA
BRANCH  21  31
ATOM     30  C   UNL     1      -0.313   0.425  -0.624  0.00  0.00    +0.043 C 
ATOM     31  C   UNL     1      -0.228  -0.985  -0.037  0.00  0.00    +0.143 C 
BRANCH  31  32
ATOM     32  O   UNL     1       0.357  -1.866  -0.998  0.00  0.00    -0.387 OA
ATOM     33  H   UNL     1       1.251  -1.615  -1.269  0.00  0.00    +0.210 HD
ENDBRANCH  31  32
ENDBRANCH  21  31
ENDBRANCH  17  26
ENDBRANCH   1  18
BRANCH   9  34
ATOM     34  C   UNL     1      -7.978  -0.359   2.721  0.00  0.00    +0.410 C 
ATOM     35  F   UNL     1      -8.256  -0.018   4.049  0.00  0.00    -0.169 F 
ATOM     36  F   UNL     1      -9.082  -0.049   1.919  0.00  0.00    -0.169 F 
ATOM     37  F   UNL     1      -7.712  -1.730   2.638  0.00  0.00    -0.169 F 
ENDBRANCH   9  34
TORSDOF 6
