REMARK  Name = ZINC45437280
REMARK  8 active torsions:
REMARK  status: ('A' for Active; 'I' for Inactive)
REMARK    1  A    between atoms: C_1  and  C_2
REMARK    2  A    between atoms: C_2  and  C_3
REMARK    3  A    between atoms: C_2  and  N_4
REMARK    4  A    between atoms: N_4  and  C_5
REMARK    5  A    between atoms: C_5  and  C_6
REMARK    6  A    between atoms: C_5  and  C_13
REMARK    7  A    between atoms: C_5  and  C_19
REMARK    8  A    between atoms: C_6  and  N_7
REMARK                            x       y       z     vdW  Elec       q    Type
REMARK                         _______ _______ _______ _____ _____    ______ ____
ROOT
ATOM      1  C   UNL     1      -1.460  -2.201  -0.352  0.00  0.00    +0.056 C 
ENDROOT
BRANCH   1   2
ATOM      2  C   UNL     1      -0.598  -2.809  -1.428  0.00  0.00    -0.048 A 
ATOM      3  C   UNL     1       0.203  -2.000  -2.212  0.00  0.00    +0.003 A 
ATOM      4  C   UNL     1       0.994  -2.558  -3.200  0.00  0.00    +0.000 A 
ATOM      5  C   UNL     1       0.984  -3.926  -3.402  0.00  0.00    +0.000 A 
ATOM      6  C   UNL     1       0.184  -4.735  -2.618  0.00  0.00    +0.000 A 
ATOM      7  C   UNL     1      -0.604  -4.177  -1.628  0.00  0.00    +0.003 A 
ENDBRANCH   1   2
BRANCH   1   8
ATOM      8  C   UNL     1      -2.910  -2.318  -0.745  0.00  0.00    +0.206 C 
ATOM      9  O   UNL     1      -3.263  -3.192  -1.507  0.00  0.00    -0.277 OA
ATOM     10  N   UNL     1      -3.814  -1.450  -0.248  0.00  0.00    -0.330 N 
ATOM     11  H   UNL     1      -3.532  -0.751   0.362  0.00  0.00    +0.145 HD
ATOM     12  H   UNL     1      -4.748  -1.526  -0.500  0.00  0.00    +0.145 HD
ENDBRANCH   1   8
BRANCH   1  13
ATOM     13  N   UNL     1      -1.110  -0.783  -0.188  0.00  0.00    +0.394 N 
ATOM     14  H   UNL     1      -1.640  -0.393   0.577  0.00  0.00    -0.083 HD
ATOM     15  H   UNL     1      -1.325  -0.283  -1.037  0.00  0.00    -0.083 HD
BRANCH  13  17
ATOM     16  C   UNL     1       0.862   0.634  -0.507  0.00  0.00    -0.014 C 
ATOM     17  C   UNL     1       0.326  -0.664   0.101  0.00  0.00    -0.076 C 
ATOM     18  C   UNL     1       0.542  -0.645   1.615  0.00  0.00    -0.014 C 
ENDBRANCH  13  17
ENDBRANCH   1  13
BRANCH   1  19
ATOM     19  C   UNL     1      -1.227  -2.940   0.967  0.00  0.00    +0.145 C 
BRANCH  19  20
ATOM     20  N   UNL     1      -2.129  -2.408   1.991  0.00  0.00    -0.271 N 
ATOM     21  C   UNL     1      -2.994  -3.126   2.738  0.00  0.00    +0.123 A 
ATOM     22  C   UNL     1      -3.639  -2.267   3.562  0.00  0.00    +0.055 A 
ATOM     23  C   UNL     1      -3.150  -0.981   3.310  0.00  0.00    +0.149 A 
ATOM     24  N   UNL     1      -2.242  -1.065   2.372  0.00  0.00    -0.179 NA
ATOM     25 BR   UNL     1      -4.965  -2.725   4.830  0.00  0.00    -0.047 Br
ENDBRANCH  19  20
ENDBRANCH   1  19
TORSDOF 6
