REMARK  Name = ZINC63375917
REMARK  3 active torsions:
REMARK  status: ('A' for Active; 'I' for Inactive)
REMARK    1  A    between atoms: C_4  and  N_7
REMARK    2  A    between atoms: C_12  and  C_30
REMARK    3  A    between atoms: C_30  and  C_31
REMARK                            x       y       z     vdW  Elec       q    Type
REMARK                         _______ _______ _______ _____ _____    ______ ____
ROOT
ATOM      1  N   UNL     1       3.624  -0.652  -0.037  0.00  0.00    -0.210 N 
ATOM      2  C   UNL     1       4.801  -0.024  -0.139  0.00  0.00    +0.232 C 
ATOM      3  O   UNL     1       4.949   1.175  -0.230  0.00  0.00    -0.274 OA
ATOM      4  C   UNL     1       5.917  -1.044  -0.121  0.00  0.00    +0.107 C 
ATOM      5  C   UNL     1       6.605  -1.072  -1.502  0.00  0.00    +0.072 C 
ATOM      6  N   UNL     1       5.805  -2.032  -2.308  0.00  0.00    -0.295 NA
ATOM      7  C   UNL     1       5.457  -3.102  -1.354  0.00  0.00    +0.136 C 
ATOM      8  C   UNL     1       5.163  -2.399  -0.005  0.00  0.00    +0.123 C 
ATOM      9  C   UNL     1       3.710  -1.984   0.053  0.00  0.00    +0.233 C 
ATOM     10  O   UNL     1       2.769  -2.741   0.161  0.00  0.00    -0.274 OA
ATOM     11  C   UNL     1       6.568  -4.103  -1.217  0.00  0.00    +0.005 A 
ATOM     12  C   UNL     1       7.886  -4.010  -0.829  0.00  0.00    +0.008 A 
ATOM     13  C   UNL     1       8.683  -5.141  -0.804  0.00  0.00    +0.002 A 
ATOM     14  C   UNL     1       8.152  -6.365  -1.168  0.00  0.00    +0.022 A 
ATOM     15  C   UNL     1       6.831  -6.464  -1.557  0.00  0.00    +0.062 A 
ATOM     16  C   UNL     1       6.022  -5.329  -1.586  0.00  0.00    +0.057 A 
ATOM     17  N   UNL     1       4.679  -5.174  -1.937  0.00  0.00    -0.282 N 
ATOM     18  C   UNL     1       4.270  -3.896  -1.829  0.00  0.00    +0.243 C 
ATOM     19  O   UNL     1       3.161  -3.467  -2.067  0.00  0.00    -0.273 OA
ATOM     20 CL   UNL     1       6.176  -8.006  -2.013  0.00  0.00    -0.082 Cl
ATOM     21  H   UNL     1       4.976  -1.592  -2.676  0.00  0.00    +0.124 HD
ATOM     22  H   UNL     1       4.108  -5.903  -2.226  0.00  0.00    +0.155 HD
ENDROOT
BRANCH   1  26
ATOM     23  C   UNL     1      -0.016   1.380   0.011  0.00  0.00    +0.000 A 
ATOM     24  C   UNL     1       0.420   0.718   1.145  0.00  0.00    +0.002 A 
ATOM     25  C   UNL     1       1.626   0.044   1.131  0.00  0.00    +0.024 A 
ATOM     26  C   UNL     1       2.399   0.031  -0.021  0.00  0.00    +0.044 A 
ATOM     27  C   UNL     1       1.958   0.695  -1.157  0.00  0.00    +0.024 A 
ATOM     28  C   UNL     1       0.752   1.368  -1.138  0.00  0.00    +0.002 A 
ENDBRANCH   1  26
BRANCH   5  29
ATOM     29  C   UNL     1       6.574   0.318  -2.140  0.00  0.00    +0.052 C 
BRANCH  29  30
ATOM     30  C   UNL     1       7.356   0.297  -3.428  0.00  0.00    -0.040 C 
ATOM     31  C   UNL     1       6.865   0.114  -4.675  0.00  0.00    -0.001 A 
ATOM     32  C   UNL     1       5.508  -0.112  -5.186  0.00  0.00    +0.010 A 
ATOM     33  C   UNL     1       5.324  -0.263  -6.518  0.00  0.00    +0.001 A 
ATOM     34  C   UNL     1       6.396  -0.209  -7.420  0.00  0.00    +0.002 A 
ATOM     35  C   UNL     1       7.671  -0.006  -7.026  0.00  0.00    +0.026 A 
ATOM     36  C   UNL     1       7.979   0.166  -5.649  0.00  0.00    +0.043 A 
ATOM     37  N   UNL     1       9.115   0.373  -5.027  0.00  0.00    -0.380 N 
ATOM     38  C   UNL     1       8.848   0.481  -3.589  0.00  0.00    +0.144 C 
ATOM     39  H   UNL     1       9.986   0.446  -5.449  0.00  0.00    +0.160 HD
ENDBRANCH  29  30
ENDBRANCH   5  29
TORSDOF 3
