REMARK  Name = ZINC64019815
REMARK  6 active torsions:
REMARK  status: ('A' for Active; 'I' for Inactive)
REMARK    1  A    between atoms: C_1  and  O_2
REMARK    2  A    between atoms: O_2  and  C_3
REMARK    3  A    between atoms: C_10  and  C_18
REMARK    4  A    between atoms: C_20  and  O_35
REMARK    5  A    between atoms: C_22  and  O_34
REMARK    6  A    between atoms: N_24  and  C_27
REMARK                            x       y       z     vdW  Elec       q    Type
REMARK                         _______ _______ _______ _____ _____    ______ ____
ROOT
ATOM      1  C   UNL     1       0.279  -4.098  -5.275  0.00  0.00    +0.179 C 
ATOM      2  C   UNL     1      -0.384  -4.899  -6.357  0.00  0.00    +0.200 C 
ATOM      3  N   UNL     1      -0.320  -4.582  -7.592  0.00  0.00    -0.204 NA
ATOM      4  C   UNL     1       0.396  -3.425  -8.103  0.00  0.00    +0.339 C 
ATOM      5  N   UNL     1       0.627  -2.424  -7.072  0.00  0.00    -0.222 N 
ATOM      6  C   UNL     1       0.588  -2.713  -5.769  0.00  0.00    +0.237 C 
ATOM      7  O   UNL     1       0.807  -1.832  -4.964  0.00  0.00    -0.274 OA
ENDROOT
BRANCH   1  14
ATOM      8  C   UNL     1      -0.212  -1.725  -0.353  0.00  0.00    +0.121 A 
ATOM      9  C   UNL     1       0.392  -0.669  -1.058  0.00  0.00    +0.047 A 
ATOM     10  C   UNL     1       1.181  -0.874  -2.134  0.00  0.00    +0.029 A 
ATOM     11  C   UNL     1       1.432  -2.237  -2.607  0.00  0.00    +0.043 A 
ATOM     12  N   UNL     1       2.127  -2.699  -3.622  0.00  0.00    -0.376 N 
ATOM     13  C   UNL     1       2.109  -4.157  -3.568  0.00  0.00    +0.124 C 
ATOM     14  C   UNL     1       1.580  -4.788  -4.859  0.00  0.00    +0.101 C 
ATOM     15  N   UNL     1       1.326  -6.215  -4.607  0.00  0.00    -0.310 NA
ATOM     16  C   UNL     1       0.229  -6.449  -3.663  0.00  0.00    +0.085 C 
ATOM     17  C   UNL     1       0.609  -5.915  -2.269  0.00  0.00    +0.048 C 
ATOM     18  C   UNL     1       1.125  -4.506  -2.462  0.00  0.00    -0.036 C 
ATOM     19  C   UNL     1       0.787  -3.354  -1.871  0.00  0.00    +0.003 A 
ATOM     20  C   UNL     1      -0.043  -3.021  -0.708  0.00  0.00    +0.055 A 
ATOM     21  H   UNL     1       1.172  -6.713  -5.471  0.00  0.00    +0.122 HD
ATOM     22  H   UNL     1       2.576  -2.162  -4.293  0.00  0.00    +0.160 HD
BRANCH   8  24
ATOM     23  C   UNL     1      -1.139  -0.056   1.062  0.00  0.00    +0.277 C 
ATOM     24  O   UNL     1      -0.989  -1.436   0.724  0.00  0.00    -0.495 OA
ENDBRANCH   8  24
ENDBRANCH   1  14
BRANCH   5  25
ATOM     25  C   UNL     1       0.901  -1.107  -7.463  0.00  0.00    +0.076 A 
ATOM     26  C   UNL     1      -0.137  -0.201  -7.632  0.00  0.00    +0.026 A 
ATOM     27  C   UNL     1       0.137   1.097  -8.017  0.00  0.00    +0.002 A 
ATOM     28  C   UNL     1       1.443   1.496  -8.235  0.00  0.00    +0.003 A 
ATOM     29  C   UNL     1       2.480   0.597  -8.068  0.00  0.00    +0.040 A 
ATOM     30  C   UNL     1       2.214  -0.703  -7.676  0.00  0.00    +0.145 A 
ATOM     31  F   UNL     1       3.228  -1.580  -7.508  0.00  0.00    -0.204 F 
ENDBRANCH   5  25
BRANCH   4  32
ATOM     32  O   UNL     1       1.657  -3.852  -8.623  0.00  0.00    -0.356 OA
ATOM     33  H   UNL     1       1.588  -4.492  -9.345  0.00  0.00    +0.214 HD
ENDBRANCH   4  32
BRANCH   2  34
ATOM     34  O   UNL     1      -1.078  -6.002  -6.009  0.00  0.00    -0.495 OA
ATOM     35  H   UNL     1      -1.478  -6.467  -6.757  0.00  0.00    +0.293 HD
ENDBRANCH   2  34
TORSDOF 5
