REMARK  Name = ZINC40740996
REMARK  5 active torsions:
REMARK  status: ('A' for Active; 'I' for Inactive)
REMARK    1  A    between atoms: C_1  and  O_2
REMARK    2  A    between atoms: O_2  and  C_3
REMARK    3  A    between atoms: C_6  and  S_10
REMARK    4  A    between atoms: S_10  and  N_13
REMARK    5  A    between atoms: N_13  and  C_14
REMARK                            x       y       z     vdW  Elec       q    Type
REMARK                         _______ _______ _______ _____ _____    ______ ____
ROOT
ATOM      1  S   UNL     1       2.786  -1.985  -4.123  0.00  0.00    +0.059 S 
ATOM      2  O   UNL     1       1.774  -2.924  -3.787  0.00  0.00    -0.153 OA
ATOM      3  O   UNL     1       2.731  -1.196  -5.304  0.00  0.00    -0.153 OA
ENDROOT
BRANCH   1   7
ATOM      4  C   UNL     1       3.076   0.906  -0.649  0.00  0.00    +0.138 A 
ATOM      5  C   UNL     1       3.493   1.295  -1.914  0.00  0.00    +0.049 A 
ATOM      6  C   UNL     1       3.404   0.411  -2.972  0.00  0.00    +0.032 A 
ATOM      7  C   UNL     1       2.899  -0.860  -2.771  0.00  0.00    +0.107 A 
ATOM      8  C   UNL     1       2.483  -1.251  -1.512  0.00  0.00    +0.052 A 
ATOM      9  C   UNL     1       2.576  -0.372  -0.449  0.00  0.00    +0.084 A 
ATOM     10 CL   UNL     1       2.059  -0.866   1.133  0.00  0.00    -0.080 Cl
BRANCH   4  12
ATOM     11  C   UNL     1       3.689   3.074   0.113  0.00  0.00    +0.277 C 
ATOM     12  O   UNL     1       3.164   1.774   0.393  0.00  0.00    -0.494 OA
ENDBRANCH   4  12
ENDBRANCH   1   7
BRANCH   1  13
ATOM     13  N   UNL     1       4.212  -2.825  -4.181  0.00  0.00    -0.187 NA
ATOM     14  H   UNL     1       4.804  -2.724  -4.944  0.00  0.00    +0.148 HD
BRANCH  13  15
ATOM     15  C   UNL     1       4.580  -3.721  -3.082  0.00  0.00    +0.073 C 
ATOM     16  C   UNL     1       4.789  -5.137  -3.627  0.00  0.00    +0.004 C 
ATOM     17  C   UNL     1       6.013  -5.136  -4.556  0.00  0.00    -0.070 C 
ATOM     18  C   UNL     1       5.865  -3.946  -5.532  0.00  0.00    -0.017 C 
ATOM     19  C   UNL     1       6.524  -2.755  -4.805  0.00  0.00    -0.017 C 
ATOM     20  C   UNL     1       7.010  -3.334  -3.456  0.00  0.00    -0.070 C 
ATOM     21  C   UNL     1       5.872  -3.222  -2.429  0.00  0.00    +0.004 C 
ATOM     22  N   UNL     1       7.199  -4.800  -3.724  0.00  0.00    +0.383 N 
ATOM     23  H   UNL     1       7.194  -5.333  -2.868  0.00  0.00    -0.085 HD
ATOM     24  H   UNL     1       8.051  -4.960  -4.240  0.00  0.00    -0.085 HD
ENDBRANCH  13  15
ENDBRANCH   1  13
TORSDOF 4
