REMARK  Name = ZINC08390128
REMARK  10 active torsions:
REMARK  status: ('A' for Active; 'I' for Inactive)
REMARK    1  A    between atoms: C_1  and  C_2
REMARK    2  A    between atoms: C_2  and  C_3
REMARK    3  A    between atoms: C_2  and  N_4
REMARK    4  A    between atoms: C_5  and  C_7
REMARK    5  A    between atoms: N_9  and  N_10
REMARK    6  A    between atoms: C_11  and  C_13
REMARK    7  A    between atoms: C_13  and  N_14
REMARK    8  A    between atoms: C_15  and  C_17
REMARK    9  A    between atoms: C_20  and  O_23
REMARK   10  A    between atoms: O_23  and  C_24
REMARK                            x       y       z     vdW  Elec       q    Type
REMARK                         _______ _______ _______ _____ _____    ______ ____
ROOT
ATOM      1  N   UNL     1      -6.268  -7.016  -2.156  0.00  0.00    -0.303 N 
ATOM      2  C   UNL     1      -7.433  -7.693  -2.185  0.00  0.00    +0.244 C 
ATOM      3  O   UNL     1      -8.441  -7.186  -1.733  0.00  0.00    -0.270 OA
ATOM      4  H   UNL     1      -5.463  -7.420  -2.517  0.00  0.00    +0.150 HD
ENDROOT
BRANCH   2   5
ATOM      5  C   UNL     1      -7.485  -9.048  -2.767  0.00  0.00    +0.037 A 
ATOM      6  C   UNL     1      -6.325  -9.634  -3.283  0.00  0.00    +0.016 A 
ATOM      7  C   UNL     1      -6.377 -10.899  -3.824  0.00  0.00    +0.047 A 
ATOM      8  C   UNL     1      -7.581 -11.593  -3.859  0.00  0.00    +0.128 A 
ATOM      9  C   UNL     1      -8.737 -11.013  -3.348  0.00  0.00    +0.047 A 
ATOM     10  C   UNL     1      -8.692  -9.751  -2.799  0.00  0.00    +0.016 A 
BRANCH   8  11
ATOM     11  O   UNL     1      -7.629 -12.839  -4.395  0.00  0.00    -0.456 OA
BRANCH  11  12
ATOM     12  C   UNL     1      -6.978 -13.838  -3.744  0.00  0.00    +0.128 A 
ATOM     13  C   UNL     1      -6.403 -13.601  -2.503  0.00  0.00    +0.046 A 
ATOM     14  C   UNL     1      -5.742 -14.618  -1.844  0.00  0.00    +0.004 A 
ATOM     15  C   UNL     1      -5.651 -15.872  -2.419  0.00  0.00    +0.000 A 
ATOM     16  C   UNL     1      -6.222 -16.111  -3.655  0.00  0.00    +0.004 A 
ATOM     17  C   UNL     1      -6.891 -15.099  -4.316  0.00  0.00    +0.046 A 
ENDBRANCH  11  12
ENDBRANCH   8  11
ENDBRANCH   2   5
BRANCH   1  18
ATOM     18  C   UNL     1      -6.216  -5.671  -1.578  0.00  0.00    +0.202 C 
BRANCH  18  20
ATOM     19  N   UNL     1      -4.522  -3.910  -1.195  0.00  0.00    -0.233 N 
ATOM     20  C   UNL     1      -4.809  -5.139  -1.667  0.00  0.00    +0.246 C 
ATOM     21  O   UNL     1      -3.935  -5.817  -2.165  0.00  0.00    -0.273 OA
ATOM     22  H   UNL     1      -5.221  -3.368  -0.797  0.00  0.00    +0.173 HD
BRANCH  19  25
ATOM     23  C   UNL     1      -2.926  -2.186  -0.805  0.00  0.00    +0.315 C 
ATOM     24  O   UNL     1      -3.801  -1.508  -0.308  0.00  0.00    -0.264 OA
ATOM     25  N   UNL     1      -3.214  -3.416  -1.278  0.00  0.00    -0.227 N 
ATOM     26  H   UNL     1      -2.515  -3.958  -1.675  0.00  0.00    +0.173 HD
BRANCH  23  28
ATOM     27  N   UNL     1      -1.244  -0.430  -0.421  0.00  0.00    -0.305 N 
ATOM     28  C   UNL     1      -1.531  -1.659  -0.894  0.00  0.00    +0.301 C 
ATOM     29  O   UNL     1      -0.656  -2.338  -1.391  0.00  0.00    -0.265 OA
ATOM     30  H   UNL     1      -1.943   0.112  -0.024  0.00  0.00    +0.149 HD
BRANCH  27  32
ATOM     31  C   UNL     1       0.092   1.617  -0.511  0.00  0.00    +0.027 C 
ATOM     32  C   UNL     1       0.124   0.087  -0.508  0.00  0.00    +0.067 C 
ATOM     33  C   UNL     1       0.932  -0.404   0.695  0.00  0.00    +0.027 C 
ENDBRANCH  27  32
ENDBRANCH  23  28
ENDBRANCH  19  25
ENDBRANCH  18  20
ENDBRANCH   1  18
TORSDOF 8
