REMARK  Name = ZINC01252493
REMARK  6 active torsions:
REMARK  status: ('A' for Active; 'I' for Inactive)
REMARK    1  A    between atoms: C_4  and  O_27
REMARK    2  A    between atoms: C_5  and  C_7
REMARK    3  A    between atoms: N_9  and  N_10
REMARK    4  A    between atoms: N_10  and  C_11
REMARK    5  A    between atoms: N_17  and  C_20
REMARK    6  A    between atoms: C_20  and  C_21
REMARK                            x       y       z     vdW  Elec       q    Type
REMARK                         _______ _______ _______ _____ _____    ______ ____
ROOT
ATOM      1  C   UNL     1      -1.033  -4.951  -0.016  0.00  0.00    +0.106 C 
ATOM      2  C   UNL     1      -1.011  -6.329  -0.128  0.00  0.00    +0.116 C 
ATOM      3  C   UNL     1      -2.257  -7.115  -0.240  0.00  0.00    +0.278 C 
ATOM      4  N   UNL     1      -2.160  -8.451  -0.346  0.00  0.00    -0.123 NA
ATOM      5  C   UNL     1      -1.004  -9.065  -0.354  0.00  0.00    +0.336 C 
ATOM      6  O   UNL     1      -0.997 -10.407  -0.464  0.00  0.00    -0.250 OA
ATOM      7  N   UNL     1       0.190  -8.424  -0.257  0.00  0.00    -0.213 N 
ATOM      8  C   UNL     1       0.255  -7.080  -0.148  0.00  0.00    +0.261 C 
ATOM      9  O   UNL     1       1.326  -6.507  -0.066  0.00  0.00    -0.269 OA
ATOM     10  O   UNL     1      -3.345  -6.565  -0.235  0.00  0.00    -0.268 OA
ENDROOT
BRANCH   1  11
ATOM     11  N   UNL     1       0.116  -4.250  -0.084  0.00  0.00    -0.271 N 
ATOM     12  H   UNL     1       0.948  -4.703  -0.292  0.00  0.00    +0.169 HD
BRANCH  11  15
ATOM     13  C   UNL     1       1.259  -2.168   0.077  0.00  0.00    +0.264 C 
ATOM     14  O   UNL     1       2.302  -2.736  -0.183  0.00  0.00    -0.269 OA
ATOM     15  N   UNL     1       0.109  -2.868   0.146  0.00  0.00    -0.233 N 
ATOM     16  H   UNL     1      -0.723  -2.416   0.354  0.00  0.00    +0.173 HD
BRANCH  13  21
ATOM     17  C   UNL     1       0.055   1.303   0.843  0.00  0.00    +0.001 A 
ATOM     18  C   UNL     1       1.236   2.023   0.773  0.00  0.00    +0.004 A 
ATOM     19  C   UNL     1       2.425   1.387   0.478  0.00  0.00    +0.046 A 
ATOM     20  C   UNL     1       2.444   0.019   0.249  0.00  0.00    +0.129 A 
ATOM     21  C   UNL     1       1.251  -0.713   0.319  0.00  0.00    +0.079 A 
ATOM     22  C   UNL     1       0.055  -0.056   0.619  0.00  0.00    +0.017 A 
BRANCH  20  23
ATOM     23  O   UNL     1       3.612  -0.607  -0.041  0.00  0.00    -0.506 OA
ATOM     24  H   UNL     1       4.088  -0.930   0.736  0.00  0.00    +0.292 HD
ENDBRANCH  20  23
ENDBRANCH  13  21
ENDBRANCH  11  15
ENDBRANCH   1  11
BRANCH   7  25
ATOM     25  C   UNL     1       1.429  -9.205  -0.275  0.00  0.00    +0.192 C 
BRANCH  25  26
ATOM     26  C   UNL     1       1.907  -9.357  -1.696  0.00  0.00    +0.123 A 
ATOM     27  C   UNL     1       2.741  -8.520  -2.339  0.00  0.00    +0.046 A 
ATOM     28  C   UNL     1       2.918  -9.040  -3.642  0.00  0.00    +0.041 A 
ATOM     29  C   UNL     1       2.182 -10.163  -3.717  0.00  0.00    +0.195 A 
ATOM     30  O   UNL     1       1.576 -10.353  -2.534  0.00  0.00    -0.466 OA
ENDBRANCH  25  26
ENDBRANCH   7  25
TORSDOF 6
