REMARK  Name = ZINC01031398
REMARK  13 active torsions:
REMARK  status: ('A' for Active; 'I' for Inactive)
REMARK    1  A    between atoms: C_1  and  C_2
REMARK    2  A    between atoms: C_2  and  C_3
REMARK    3  A    between atoms: C_2  and  C_4
REMARK    4  A    between atoms: C_8  and  C_30
REMARK    5  A    between atoms: C_9  and  N_10
REMARK    6  A    between atoms: C_14  and  C_16
REMARK    7  A    between atoms: C_17  and  O_28
REMARK    8  A    between atoms: C_18  and  N_25
REMARK    9  A    between atoms: C_21  and  O_22
REMARK   10  A    between atoms: O_22  and  C_23
REMARK   11  A    between atoms: O_28  and  C_29
REMARK   12  A    between atoms: C_30  and  C_31
REMARK   13  A    between atoms: C_30  and  C_32
REMARK                            x       y       z     vdW  Elec       q    Type
REMARK                         _______ _______ _______ _____ _____    ______ ____
ROOT
ATOM      1  N   UNL     1      -0.066   1.230   0.189  0.00  0.00    -0.269 N 
ATOM      2  C   UNL     1      -0.916   2.024  -0.492  0.00  0.00    +0.310 C 
ATOM      3  O   UNL     1      -1.823   1.533  -1.136  0.00  0.00    -0.252 OA
ATOM      4  N   UNL     1      -0.761   3.362  -0.459  0.00  0.00    -0.236 N 
ATOM      5  C   UNL     1      -1.611   4.156  -1.140  0.00  0.00    +0.259 C 
ATOM      6  O   UNL     1      -2.518   3.665  -1.784  0.00  0.00    -0.269 OA
ATOM      7  H   UNL     1       0.609   1.623   0.763  0.00  0.00    +0.156 HD
ATOM      8  H   UNL     1      -0.038   3.755   0.054  0.00  0.00    +0.159 HD
ENDROOT
BRANCH   5   9
ATOM      9  C   UNL     1      -1.442   5.617  -1.104  0.00  0.00    +0.123 A 
ATOM     10  C   UNL     1      -0.634   6.259  -2.055  0.00  0.00    +0.166 A 
ATOM     11  C   UNL     1      -0.486   7.635  -2.015  0.00  0.00    +0.170 A 
ATOM     12  C   UNL     1      -1.122   8.377  -1.036  0.00  0.00    +0.055 A 
ATOM     13  C   UNL     1      -1.917   7.755  -0.091  0.00  0.00    +0.063 A 
ATOM     14  C   UNL     1      -2.083   6.378  -0.116  0.00  0.00    +0.150 A 
ATOM     15 BR   UNL     1      -2.780   8.784   1.240  0.00  0.00    -0.046 Br
BRANCH  11  16
ATOM     16  N   UNL     1       0.362   8.315  -3.020  0.00  0.00    +0.060 N 
ATOM     17  O   UNL     1       0.499   9.525  -2.984  0.00  0.00    -0.126 OA
ATOM     18  O   UNL     1       0.924   7.665  -3.883  0.00  0.00    -0.126 OA
ENDBRANCH  11  16
BRANCH  14  19
ATOM     19  O   UNL     1      -2.863   5.770   0.813  0.00  0.00    -0.493 OA
ATOM     20  C   UNL     1      -2.224   5.343   2.018  0.00  0.00    +0.277 C 
ENDBRANCH  14  19
BRANCH  10  21
ATOM     21  O   UNL     1      -0.004   5.534  -3.013  0.00  0.00    -0.492 OA
ATOM     22  C   UNL     1      -0.711   5.323  -4.237  0.00  0.00    +0.277 C 
ENDBRANCH  10  21
ENDBRANCH   5   9
BRANCH   1  28
ATOM     23  C   UNL     1      -1.325  -0.819   0.414  0.00  0.00    -0.023 A 
ATOM     24  C   UNL     1      -1.410  -2.191   0.283  0.00  0.00    +0.006 A 
ATOM     25  C   UNL     1      -0.327  -2.911  -0.189  0.00  0.00    +0.001 A 
ATOM     26  C   UNL     1       0.842  -2.259  -0.535  0.00  0.00    +0.006 A 
ATOM     27  C   UNL     1       0.932  -0.886  -0.411  0.00  0.00    -0.023 A 
ATOM     28  C   UNL     1      -0.154  -0.161   0.062  0.00  0.00    +0.042 A 
BRANCH  23  30
ATOM     29  C   UNL     1      -3.748  -0.386   0.116  0.00  0.00    +0.012 C 
ATOM     30  C   UNL     1      -2.503  -0.036   0.934  0.00  0.00    +0.015 C 
ATOM     31  C   UNL     1      -2.742  -0.389   2.403  0.00  0.00    +0.012 C 
ENDBRANCH  23  30
BRANCH  27  32
ATOM     32  C   UNL     1       2.207  -0.176  -0.788  0.00  0.00    +0.015 C 
ATOM     33  C   UNL     1       3.357  -0.702   0.073  0.00  0.00    +0.012 C 
ATOM     34  C   UNL     1       2.516  -0.434  -2.264  0.00  0.00    +0.012 C 
ENDBRANCH  27  32
ENDBRANCH   1  28
TORSDOF 7
