REMARK  Name = ZINC59170363
REMARK  10 active torsions:
REMARK  status: ('A' for Active; 'I' for Inactive)
REMARK    1  A    between atoms: C_1  and  C_2
REMARK    2  A    between atoms: C_5  and  S_8
REMARK    3  A    between atoms: S_8  and  N_11
REMARK    4  A    between atoms: N_11  and  N_12
REMARK    5  A    between atoms: C_14  and  C_28
REMARK    6  A    between atoms: C_18  and  C_24
REMARK    7  A    between atoms: C_20  and  O_23
REMARK    8  A    between atoms: C_24  and  C_25
REMARK    9  A    between atoms: C_24  and  C_26
REMARK   10  A    between atoms: C_24  and  C_27
REMARK                            x       y       z     vdW  Elec       q    Type
REMARK                         _______ _______ _______ _____ _____    ______ ____
ROOT
ATOM      1  N   UNL     1       2.495  -4.628   1.025  0.00  0.00    -0.260 N 
ATOM      2  C   UNL     1       3.745  -4.996   1.012  0.00  0.00    +0.225 A 
ATOM      3  C   UNL     1       4.692  -4.521   2.047  0.00  0.00    +0.098 A 
ATOM      4  C   UNL     1       5.773  -5.323   2.325  0.00  0.00    +0.030 A 
ATOM      5  C   UNL     1       5.900  -6.579   1.575  0.00  0.00    +0.022 A 
ATOM      6  C   UNL     1       6.808  -7.563   1.980  0.00  0.00    +0.016 A 
ATOM      7  C   UNL     1       6.909  -8.736   1.264  0.00  0.00    -0.038 A 
ATOM      8  C   UNL     1       6.117  -8.946   0.146  0.00  0.00    +0.053 A 
ATOM      9  C   UNL     1       5.214  -7.980  -0.269  0.00  0.00    +0.160 A 
ATOM     10  C   UNL     1       5.099  -6.790   0.441  0.00  0.00    +0.179 A 
ATOM     11  O   UNL     1       4.222  -5.835   0.047  0.00  0.00    -0.434 OA
ATOM     12  H   UNL     1       2.153  -4.098   1.762  0.00  0.00    +0.189 HD
ENDROOT
BRANCH   3  13
ATOM     13  C   UNL     1       4.484  -3.244   2.750  0.00  0.00    +0.247 C 
ATOM     14  O   UNL     1       3.475  -2.596   2.547  0.00  0.00    -0.270 OA
ATOM     15  N   UNL     1       5.411  -2.793   3.618  0.00  0.00    -0.325 N 
ATOM     16  H   UNL     1       6.248  -3.271   3.725  0.00  0.00    +0.145 HD
ATOM     17  H   UNL     1       5.241  -1.991   4.136  0.00  0.00    +0.145 HD
ENDBRANCH   3  13
BRANCH   7  18
ATOM     18  C   UNL     1       7.887  -9.797   1.699  0.00  0.00    -0.013 C 
ATOM     19  C   UNL     1       7.544 -10.255   3.118  0.00  0.00    +0.015 C 
ATOM     20  C   UNL     1       7.804 -10.989   0.743  0.00  0.00    +0.015 C 
ATOM     21  C   UNL     1       9.305  -9.223   1.676  0.00  0.00    +0.015 C 
ENDBRANCH   7  18
BRANCH   1  22
ATOM     22  N   UNL     1       1.646  -4.997  -0.026  0.00  0.00    -0.157 N 
ATOM     23  H   UNL     1       1.988  -5.526  -0.764  0.00  0.00    +0.194 HD
BRANCH  22  24
ATOM     24  S   UNL     1       0.057  -4.530  -0.010  0.00  0.00    +0.085 S 
ATOM     25  O   UNL     1      -0.481  -4.961   1.233  0.00  0.00    -0.149 OA
ATOM     26  O   UNL     1      -0.496  -4.926  -1.258  0.00  0.00    -0.149 OA
BRANCH  24  31
ATOM     27  C   UNL     1      -0.030   1.503   0.077  0.00  0.00    +0.044 C 
ATOM     28  C   UNL     1      -0.008  -0.004   0.055  0.00  0.00    -0.050 A 
ATOM     29  C   UNL     1      -0.004  -0.678  -1.152  0.00  0.00    +0.005 A 
ATOM     30  C   UNL     1       0.016  -2.060  -1.172  0.00  0.00    +0.029 A 
ATOM     31  C   UNL     1       0.033  -2.768   0.015  0.00  0.00    +0.110 A 
ATOM     32  C   UNL     1       0.030  -2.094   1.222  0.00  0.00    +0.029 A 
ATOM     33  C   UNL     1       0.014  -0.712   1.242  0.00  0.00    +0.005 A 
ENDBRANCH  24  31
ENDBRANCH  22  24
ENDBRANCH   1  22
BRANCH   9  34
ATOM     34  O   UNL     1       4.442  -8.195  -1.367  0.00  0.00    -0.503 OA
ATOM     35  H   UNL     1       3.595  -8.622  -1.175  0.00  0.00    +0.292 HD
ENDBRANCH   9  34
TORSDOF 6
