REMARK  Name = ZINC40901121
REMARK  16 active torsions:
REMARK  status: ('A' for Active; 'I' for Inactive)
REMARK    1  A    between atoms: C_1  and  C_2
REMARK    2  A    between atoms: C_9  and  N_15
REMARK    3  A    between atoms: C_10  and  C_11
REMARK    4  A    between atoms: C_11  and  O_13
REMARK    5  A    between atoms: O_13  and  C_14
REMARK    6  A    between atoms: N_15  and  C_16
REMARK    7  A    between atoms: C_16  and  N_18
REMARK    8  A    between atoms: C_19  and  C_21
REMARK    9  A    between atoms: C_21  and  C_22
REMARK   10  A    between atoms: C_22  and  C_23
REMARK   11  A    between atoms: C_23  and  O_24
REMARK   12  A    between atoms: O_24  and  C_25
REMARK   13  A    between atoms: C_28  and  C_31
REMARK   14  A    between atoms: C_31  and  C_32
REMARK   15  A    between atoms: C_31  and  C_33
REMARK   16  A    between atoms: C_31  and  C_34
REMARK                            x       y       z     vdW  Elec       q    Type
REMARK                         _______ _______ _______ _____ _____    ______ ____
ROOT
ATOM      1  C   UNL     1       2.251  -6.083   2.988  0.00  0.00    +0.141 C 
ATOM      2  S   UNL     1       2.222  -4.822   4.146  0.00  0.00    -0.018 S 
ENDROOT
BRANCH   1   3
ATOM      3  N   UNL     1       2.584  -7.335   3.362  0.00  0.00    -0.268 N 
ATOM      4  C   UNL     1       2.893  -7.593   4.648  0.00  0.00    +0.219 C 
ATOM      5  O   UNL     1       2.873  -6.700   5.468  0.00  0.00    -0.275 OA
ATOM      6  H   UNL     1       2.600  -8.049   2.706  0.00  0.00    +0.156 HD
BRANCH   4   7
ATOM      7  C   UNL     1       3.266  -8.992   5.067  0.00  0.00    +0.099 C 
BRANCH   7   8
ATOM      8  C   UNL     1       3.569  -9.012   6.566  0.00  0.00    +0.050 C 
BRANCH   8   9
ATOM      9  C   UNL     1       3.946 -10.432   6.992  0.00  0.00    +0.229 C 
BRANCH   9  10
ATOM     10  O   UNL     1       4.230 -10.451   8.392  0.00  0.00    -0.492 OA
BRANCH  10  11
ATOM     11  C   UNL     1       4.584 -11.646   8.934  0.00  0.00    +0.121 A 
ATOM     12  C   UNL     1       4.664 -12.776   8.133  0.00  0.00    +0.046 A 
ATOM     13  C   UNL     1       5.025 -13.989   8.687  0.00  0.00    +0.008 A 
ATOM     14  C   UNL     1       5.306 -14.078  10.037  0.00  0.00    -0.042 A 
ATOM     15  C   UNL     1       5.227 -12.953  10.838  0.00  0.00    +0.008 A 
ATOM     16  C   UNL     1       4.873 -11.736  10.288  0.00  0.00    +0.046 A 
BRANCH  14  17
ATOM     17  C   UNL     1       5.699 -15.403  10.638  0.00  0.00    -0.013 C 
ATOM     18  C   UNL     1       6.973 -15.913   9.960  0.00  0.00    +0.015 C 
ATOM     19  C   UNL     1       5.955 -15.227  12.136  0.00  0.00    +0.015 C 
ATOM     20  C   UNL     1       4.570 -16.413  10.428  0.00  0.00    +0.015 C 
ENDBRANCH  14  17
ENDBRANCH  10  11
ENDBRANCH   9  10
ENDBRANCH   8   9
ENDBRANCH   7   8
ENDBRANCH   4   7
ENDBRANCH   1   3
BRANCH   1  21
ATOM     21  N   UNL     1       1.941  -5.825   1.702  0.00  0.00    -0.290 N 
ATOM     22  H   UNL     1       1.958  -6.539   1.046  0.00  0.00    +0.154 HD
BRANCH  21  30
ATOM     23  C   UNL     1      -0.019   1.526   0.010  0.00  0.00    +0.008 C 
ATOM     24  C   UNL     1       0.002  -0.004   0.002  0.00  0.00    -0.009 C 
ATOM     25  C   UNL     1       0.724  -0.500  -1.254  0.00  0.00    +0.008 C 
ATOM     26  C   UNL     1       0.537  -2.012  -1.399  0.00  0.00    +0.037 C 
ATOM     27  C   UNL     1       0.935  -2.680  -0.091  0.00  0.00    -0.021 A 
ATOM     28  C   UNL     1       1.020  -1.977   1.059  0.00  0.00    -0.004 A 
ATOM     29  S   UNL     1       1.508  -3.164   2.276  0.00  0.00    -0.077 S 
ATOM     30  C   UNL     1       1.599  -4.539   1.317  0.00  0.00    +0.086 A 
ATOM     31  C   UNL     1       1.254  -4.091   0.050  0.00  0.00    +0.091 A 
ATOM     32  C   UNL     1       0.750  -0.515   1.242  0.00  0.00    +0.046 C 
BRANCH  31  33
ATOM     33  C   UNL     1       1.212  -5.001  -1.096  0.00  0.00    +0.342 C 
ATOM     34  O   UNL     1       2.208  -5.170  -1.775  0.00  0.00    -0.245 OA
BRANCH  33  35
ATOM     35  O   UNL     1       0.070  -5.651  -1.400  0.00  0.00    -0.464 OA
ATOM     36  C   UNL     1       0.102  -6.523  -2.531  0.00  0.00    +0.280 C 
ENDBRANCH  33  35
ENDBRANCH  31  33
ENDBRANCH  21  30
ENDBRANCH   1  21
TORSDOF 11
