REMARK  Name = ZINC14505065
REMARK  8 active torsions:
REMARK  status: ('A' for Active; 'I' for Inactive)
REMARK    1  A    between atoms: C_3  and  O_23
REMARK    2  A    between atoms: C_6  and  C_7
REMARK    3  A    between atoms: C_8  and  C_9
REMARK    4  A    between atoms: N_11  and  C_12
REMARK    5  A    between atoms: C_12  and  C_13
REMARK    6  A    between atoms: C_13  and  C_15
REMARK    7  A    between atoms: C_13  and  O_22
REMARK    8  A    between atoms: C_18  and  O_21
REMARK                            x       y       z     vdW  Elec       q    Type
REMARK                         _______ _______ _______ _____ _____    ______ ____
ROOT
ATOM      1  C   UNL     1      -2.494  -2.859   0.011  0.00  0.00    +0.237 C 
ATOM      2  O   UNL     1      -3.557  -2.267   0.025  0.00  0.00    -0.271 OA
ATOM      3  N   UNL     1      -2.473  -4.207   0.004  0.00  0.00    -0.309 N 
ATOM      4  H   UNL     1      -1.625  -4.679  -0.007  0.00  0.00    +0.149 HD
ENDROOT
BRANCH   1   6
ATOM      5  C   UNL     1      -1.259  -0.759   0.011  0.00  0.00    +0.013 C 
ATOM      6  C   UNL     1      -1.238  -2.108   0.003  0.00  0.00    +0.068 C 
BRANCH   5  12
ATOM      7  C   UNL     1      -0.017   1.395   0.010  0.00  0.00    +0.011 A 
ATOM      8  C   UNL     1       1.167   2.098   0.002  0.00  0.00    +0.046 A 
ATOM      9  C   UNL     1       2.380   1.419  -0.013  0.00  0.00    +0.117 A 
ATOM     10  C   UNL     1       2.405   0.029  -0.021  0.00  0.00    +0.046 A 
ATOM     11  C   UNL     1       1.226  -0.682  -0.014  0.00  0.00    +0.011 A 
ATOM     12  C   UNL     1       0.002  -0.004   0.002  0.00  0.00    -0.025 A 
BRANCH   9  13
ATOM     13  O   UNL     1       3.545   2.116  -0.020  0.00  0.00    -0.507 OA
ATOM     14  H   UNL     1       3.891   2.313   0.861  0.00  0.00    +0.292 HD
ENDBRANCH   9  13
ENDBRANCH   5  12
ENDBRANCH   1   6
BRANCH   3  15
ATOM     15  C   UNL     1      -3.730  -4.959   0.013  0.00  0.00    +0.140 C 
BRANCH  15  16
ATOM     16  C   UNL     1      -3.427  -6.459   0.001  0.00  0.00    +0.162 C 
BRANCH  16  17
ATOM     17  C   UNL     1      -4.720  -7.232   0.010  0.00  0.00    -0.017 A 
ATOM     18  C   UNL     1      -5.375  -7.496  -1.179  0.00  0.00    +0.010 A 
ATOM     19  C   UNL     1      -6.561  -8.204  -1.174  0.00  0.00    +0.046 A 
ATOM     20  C   UNL     1      -7.094  -8.652   0.026  0.00  0.00    +0.117 A 
ATOM     21  C   UNL     1      -6.435  -8.387   1.218  0.00  0.00    +0.046 A 
ATOM     22  C   UNL     1      -5.247  -7.683   1.207  0.00  0.00    +0.010 A 
BRANCH  20  23
ATOM     23  O   UNL     1      -8.261  -9.349   0.034  0.00  0.00    -0.507 OA
ATOM     24  H   UNL     1      -8.148 -10.306  -0.045  0.00  0.00    +0.292 HD
ENDBRANCH  20  23
ENDBRANCH  16  17
BRANCH  16  25
ATOM     25  O   UNL     1      -2.684  -6.786  -1.175  0.00  0.00    -0.386 OA
ATOM     26  H   UNL     1      -3.144  -6.582  -2.000  0.00  0.00    +0.210 HD
ENDBRANCH  16  25
ENDBRANCH  15  16
ENDBRANCH   3  15
TORSDOF 8
