REMARK  Name = ZINC39083621
REMARK  4 active torsions:
REMARK  status: ('A' for Active; 'I' for Inactive)
REMARK    1  A    between atoms: C_1  and  O_2
REMARK    2  A    between atoms: O_2  and  C_3
REMARK    3  A    between atoms: C_3  and  C_5
REMARK    4  A    between atoms: C_13  and  N_15
REMARK                            x       y       z     vdW  Elec       q    Type
REMARK                         _______ _______ _______ _____ _____    ______ ____
ROOT
ATOM      1  C   UNL     1       0.679  -2.115   1.088  0.00  0.00    +0.128 C 
ATOM      2  C   UNL     1       1.404  -2.572   2.372  0.00  0.00    +0.024 C 
ATOM      3  C   UNL     1       0.648  -3.867   2.737  0.00  0.00    +0.036 C 
ATOM      4  C   UNL     1      -0.734  -3.701   2.142  0.00  0.00    -0.042 A 
ATOM      5  C   UNL     1      -0.717  -2.693   1.192  0.00  0.00    -0.030 A 
ATOM      6  C   UNL     1      -1.876  -2.364   0.509  0.00  0.00    +0.006 A 
ATOM      7  C   UNL     1      -3.053  -3.035   0.771  0.00  0.00    +0.023 A 
ATOM      8  C   UNL     1      -3.076  -4.047   1.722  0.00  0.00    +0.025 A 
ATOM      9  C   UNL     1      -1.911  -4.376   2.411  0.00  0.00    +0.026 A 
ENDROOT
BRANCH   8  10
ATOM     10  N   UNL     1      -4.264  -4.729   1.991  0.00  0.00    -0.358 N 
ATOM     11  H   UNL     1      -5.076  -4.497   1.513  0.00  0.00    +0.142 HD
ATOM     12  H   UNL     1      -4.278  -5.436   2.656  0.00  0.00    +0.142 HD
ENDBRANCH   8  10
BRANCH   1  13
ATOM     13  C   UNL     1       0.618  -0.611   1.029  0.00  0.00    +0.314 C 
ATOM     14  O   UNL     1       1.124   0.049   1.905  0.00  0.00    -0.250 OA
BRANCH  13  16
ATOM     15  C   UNL     1      -0.017   1.425   0.010  0.00  0.00    +0.280 C 
ATOM     16  O   UNL     1       0.002  -0.004   0.002  0.00  0.00    -0.468 OA
ENDBRANCH  13  16
ENDBRANCH   1  13
TORSDOF 3
