REMARK  Name = ZINC35688689
REMARK  11 active torsions:
REMARK  status: ('A' for Active; 'I' for Inactive)
REMARK    1  A    between atoms: C_1  and  C_2
REMARK    2  A    between atoms: C_2  and  C_4
REMARK    3  A    between atoms: C_2  and  N_22
REMARK    4  A    between atoms: N_14  and  C_15
REMARK    5  A    between atoms: C_15  and  C_16
REMARK    6  A    between atoms: N_22  and  C_23
REMARK    7  A    between atoms: C_23  and  C_24
REMARK    8  A    between atoms: C_24  and  N_25
REMARK    9  A    between atoms: N_25  and  C_26
REMARK   10  A    between atoms: N_25  and  C_27
REMARK   11  A    between atoms: N_30  and  C_31
REMARK                            x       y       z     vdW  Elec       q    Type
REMARK                         _______ _______ _______ _____ _____    ______ ____
ROOT
ATOM      1  N   UNL     1       3.047  -1.592  -2.447  0.00  0.00    -0.278 N 
ATOM      2  C   UNL     1       2.800  -2.460  -3.448  0.00  0.00    +0.303 C 
ATOM      3  O   UNL     1       1.654  -2.736  -3.744  0.00  0.00    -0.253 OA
ATOM      4  N   UNL     1       3.824  -3.021  -4.122  0.00  0.00    -0.294 N 
ATOM      5  H   UNL     1       4.739  -2.801  -3.886  0.00  0.00    +0.151 HD
ENDROOT
BRANCH   4   6
ATOM      6  C   UNL     1       3.555  -3.965  -5.210  0.00  0.00    +0.037 C 
ATOM      7  C   UNL     1       2.771  -5.160  -4.666  0.00  0.00    +0.029 C 
ATOM      8  C   UNL     1       2.490  -6.146  -5.802  0.00  0.00    -0.008 C 
ATOM      9  C   UNL     1       3.814  -6.632  -6.394  0.00  0.00    +0.007 C 
ATOM     10  C   UNL     1       4.599  -5.436  -6.938  0.00  0.00    -0.008 C 
ATOM     11  C   UNL     1       4.880  -4.451  -5.802  0.00  0.00    +0.029 C 
ATOM     12  C   UNL     1       3.779  -4.740  -8.026  0.00  0.00    +0.007 C 
ATOM     13  C   UNL     1       2.454  -4.254  -7.434  0.00  0.00    -0.008 C 
ATOM     14  C   UNL     1       1.670  -5.450  -6.890  0.00  0.00    +0.007 C 
ATOM     15  C   UNL     1       2.735  -3.269  -6.298  0.00  0.00    +0.029 C 
ENDBRANCH   4   6
BRANCH   1  17
ATOM     16  C   UNL     1       2.025   0.474  -1.630  0.00  0.00    +0.036 C 
ATOM     17  C   UNL     1       1.940  -1.054  -1.654  0.00  0.00    +0.141 C 
BRANCH  17  18
ATOM     18  C   UNL     1       2.025  -1.584  -0.247  0.00  0.00    +0.134 A 
ATOM     19  N   UNL     1       3.201  -1.795   0.262  0.00  0.00    -0.232 NA
ATOM     20  C   UNL     1       3.356  -2.272   1.522  0.00  0.00    +0.078 A 
ATOM     21  C   UNL     1       4.621  -2.498   2.070  0.00  0.00    +0.028 A 
ATOM     22  C   UNL     1       4.731  -2.982   3.354  0.00  0.00    +0.002 A 
ATOM     23  C   UNL     1       3.599  -3.249   4.113  0.00  0.00    +0.001 A 
ATOM     24  C   UNL     1       2.341  -3.034   3.595  0.00  0.00    +0.015 A 
ATOM     25  C   UNL     1       2.208  -2.544   2.298  0.00  0.00    +0.065 A 
ATOM     26  C   UNL     1       0.891  -2.294   1.692  0.00  0.00    +0.262 A 
ATOM     27  O   UNL     1      -0.138  -2.508   2.306  0.00  0.00    -0.267 OA
ATOM     28  N   UNL     1       0.868  -1.812   0.428  0.00  0.00    -0.290 N 
BRANCH  28  29
ATOM     29  C   UNL     1      -0.416  -1.540  -0.222  0.00  0.00    +0.161 C 
BRANCH  29  30
ATOM     30  C   UNL     1      -0.952  -2.811  -0.829  0.00  0.00    -0.028 A 
ATOM     31  C   UNL     1      -0.739  -3.082  -2.167  0.00  0.00    +0.005 A 
ATOM     32  C   UNL     1      -1.230  -4.248  -2.724  0.00  0.00    +0.000 A 
ATOM     33  C   UNL     1      -1.935  -5.144  -1.942  0.00  0.00    +0.000 A 
ATOM     34  C   UNL     1      -2.147  -4.874  -0.603  0.00  0.00    +0.000 A 
ATOM     35  C   UNL     1      -1.652  -3.710  -0.045  0.00  0.00    +0.005 A 
ENDBRANCH  29  30
ENDBRANCH  28  29
ENDBRANCH  17  18
ENDBRANCH   1  17
BRANCH   1  36
ATOM     36  C   UNL     1       4.424  -1.187  -2.153  0.00  0.00    +0.091 C 
BRANCH  36  37
ATOM     37  C   UNL     1       5.163  -2.344  -1.479  0.00  0.00    -0.060 C 
BRANCH  37  38
ATOM     38  N   UNL     1       6.579  -1.989  -1.309  0.00  0.00    +0.377 N 
ATOM     39  C   UNL     1       6.696  -0.904  -0.325  0.00  0.00    -0.097 C 
ATOM     40  C   UNL     1       7.325  -3.163  -0.836  0.00  0.00    -0.097 C 
ATOM     41  H   UNL     1       6.957  -1.684  -2.193  0.00  0.00    -0.083 HD
ENDBRANCH  37  38
ENDBRANCH  36  37
ENDBRANCH   1  36
TORSDOF 8
