REMARK  Name = ZINC11370426
REMARK  9 active torsions:
REMARK  status: ('A' for Active; 'I' for Inactive)
REMARK    1  A    between atoms: C_4  and  C_7
REMARK    2  A    between atoms: C_7  and  N_8
REMARK    3  A    between atoms: C_9  and  C_11
REMARK    4  A    between atoms: C_16  and  N_17
REMARK    5  A    between atoms: C_18  and  C_20
REMARK    6  A    between atoms: C_20  and  N_61
REMARK    7  A    between atoms: C_21  and  C_22
REMARK    8  A    between atoms: C_21  and  N_61
REMARK    9  A    between atoms: C_27  and  N_61
REMARK                            x       y       z     vdW  Elec       q    Type
REMARK                         _______ _______ _______ _____ _____    ______ ____
ROOT
ATOM      1  N   UNL     1      -1.186  -0.949   0.392  0.00  0.00    -0.286 N 
ATOM      2  C   UNL     1      -2.321  -0.222   0.416  0.00  0.00    +0.201 C 
ATOM      3  O   UNL     1      -2.264   0.989   0.475  0.00  0.00    -0.278 OA
ATOM      4  H   UNL     1      -1.229  -1.910   0.273  0.00  0.00    +0.155 HD
ENDROOT
BRANCH   1  10
ATOM      5  C   UNL     1       1.079  -0.949   1.251  0.00  0.00    +0.058 A 
ATOM      6  C   UNL     1       2.312  -0.307   1.390  0.00  0.00    +0.015 A 
ATOM      7  C   UNL     1       2.507   0.937   0.829  0.00  0.00    +0.001 A 
ATOM      8  C   UNL     1       1.486   1.555   0.127  0.00  0.00    +0.002 A 
ATOM      9  C   UNL     1       0.262   0.934  -0.019  0.00  0.00    +0.024 A 
ATOM     10  C   UNL     1       0.048  -0.319   0.539  0.00  0.00    +0.045 A 
BRANCH   5  12
ATOM     11  N   UNL     1       1.823  -2.838   2.613  0.00  0.00    -0.307 N 
ATOM     12  C   UNL     1       0.864  -2.280   1.848  0.00  0.00    +0.246 C 
ATOM     13  O   UNL     1      -0.178  -2.874   1.651  0.00  0.00    -0.270 OA
ATOM     14  H   UNL     1       2.655  -2.365   2.771  0.00  0.00    +0.149 HD
BRANCH  11  15
ATOM     15  C   UNL     1       1.609  -4.161   3.206  0.00  0.00    +0.139 C 
BRANCH  15  19
ATOM     16  C   UNL     1       5.050  -5.275   5.480  0.00  0.00    +0.000 A 
ATOM     17  C   UNL     1       4.017  -4.582   6.084  0.00  0.00    +0.000 A 
ATOM     18  C   UNL     1       2.904  -4.221   5.348  0.00  0.00    +0.005 A 
ATOM     19  C   UNL     1       2.823  -4.554   4.008  0.00  0.00    -0.030 A 
ATOM     20  C   UNL     1       3.853  -5.252   3.406  0.00  0.00    +0.005 A 
ATOM     21  C   UNL     1       4.969  -5.607   4.141  0.00  0.00    +0.000 A 
ENDBRANCH  15  19
ENDBRANCH  11  15
ENDBRANCH   5  12
ENDBRANCH   1  10
BRANCH   2  22
ATOM     22  C   UNL     1      -3.659  -0.912   0.370  0.00  0.00    +0.020 C 
BRANCH  22  23
ATOM     23  N   UNL     1      -4.719   0.115   0.282  0.00  0.00    +0.391 N 
ATOM     24  H   UNL     1      -4.498   0.878   0.932  0.00  0.00    -0.080 HD
BRANCH  23  25
ATOM     25  C   UNL     1      -4.786   0.656  -1.091  0.00  0.00    -0.045 C 
ATOM     26  C   UNL     1      -5.666  -0.241  -1.978  0.00  0.00    +0.009 C 
ATOM     27  C   UNL     1      -5.968   0.527  -3.296  0.00  0.00    +0.164 C 
ATOM     28  S   UNL     1      -6.264   2.222  -2.637  0.00  0.00    -0.033 S 
ATOM     29  O   UNL     1      -7.654   2.385  -2.389  0.00  0.00    -0.174 OA
ATOM     30  O   UNL     1      -5.585   3.163  -3.457  0.00  0.00    -0.174 OA
ATOM     31  C   UNL     1      -5.382   2.083  -1.029  0.00  0.00    +0.151 C 
ENDBRANCH  23  25
BRANCH  23  32
ATOM     32  C   UNL     1      -6.023  -0.472   0.658  0.00  0.00    -0.035 C 
BRANCH  32  33
ATOM     33  C   UNL     1      -7.012   0.644   0.875  0.00  0.00    -0.027 A 
ATOM     34  C   UNL     1      -7.954   1.127   0.029  0.00  0.00    +0.009 A 
ATOM     35  C   UNL     1      -8.761   2.168   0.447  0.00  0.00    +0.008 A 
ATOM     36  C   UNL     1      -8.586   2.676   1.691  0.00  0.00    +0.045 A 
ATOM     37  S   UNL     1      -7.252   1.668   2.318  0.00  0.00    -0.103 S 
ENDBRANCH  32  33
ENDBRANCH  23  32
ENDBRANCH  22  23
ENDBRANCH   2  22
TORSDOF 9
