REMARK  Name = ZINC63228860
REMARK  10 active torsions:
REMARK  status: ('A' for Active; 'I' for Inactive)
REMARK    1  A    between atoms: C_1  and  O_2
REMARK    2  A    between atoms: O_2  and  C_3
REMARK    3  A    between atoms: C_7  and  C_11
REMARK    4  A    between atoms: C_8  and  O_9
REMARK    5  A    between atoms: O_9  and  C_10
REMARK    6  A    between atoms: C_11  and  C_13
REMARK    7  A    between atoms: C_11  and  C_27
REMARK    8  A    between atoms: C_13  and  N_14
REMARK    9  A    between atoms: N_14  and  S_15
REMARK   10  A    between atoms: S_15  and  C_18
REMARK                            x       y       z     vdW  Elec       q    Type
REMARK                         _______ _______ _______ _____ _____    ______ ____
ROOT
ATOM      1  C   UNL     1      -2.549  -4.175   0.017  0.00  0.00    +0.066 C 
ENDROOT
BRANCH   1   2
ATOM      2  C   UNL     1      -3.272  -4.648   1.252  0.00  0.00    -0.033 C 
ATOM      3  C   UNL     1      -2.779  -5.446   2.227  0.00  0.00    -0.000 A 
ATOM      4  C   UNL     1      -1.474  -6.089   2.420  0.00  0.00    +0.010 A 
ATOM      5  C   UNL     1      -1.274  -6.849   3.521  0.00  0.00    +0.001 A 
ATOM      6  C   UNL     1      -2.280  -7.037   4.479  0.00  0.00    +0.002 A 
ATOM      7  C   UNL     1      -3.504  -6.479   4.371  0.00  0.00    +0.026 A 
ATOM      8  C   UNL     1      -3.824  -5.660   3.253  0.00  0.00    +0.043 A 
ATOM      9  N   UNL     1      -4.920  -5.019   2.926  0.00  0.00    -0.380 N 
ATOM     10  C   UNL     1      -4.692  -4.320   1.656  0.00  0.00    +0.145 C 
ATOM     11  H   UNL     1      -5.743  -5.005   3.439  0.00  0.00    +0.160 HD
ENDBRANCH   1   2
BRANCH   1  16
ATOM     12  C   UNL     1      -1.201  -0.638   0.010  0.00  0.00    +0.162 A 
ATOM     13  C   UNL     1      -2.374   0.099   0.019  0.00  0.00    +0.049 A 
ATOM     14  C   UNL     1      -3.596  -0.546   0.027  0.00  0.00    +0.004 A 
ATOM     15  C   UNL     1      -3.652  -1.928   0.026  0.00  0.00    +0.008 A 
ATOM     16  C   UNL     1      -2.485  -2.669   0.017  0.00  0.00    +0.006 A 
ATOM     17  C   UNL     1      -1.257  -2.028   0.003  0.00  0.00    +0.165 A 
BRANCH  12  19
ATOM     18  C   UNL     1      -0.017   1.425   0.010  0.00  0.00    +0.277 C 
ATOM     19  O   UNL     1       0.002  -0.004   0.002  0.00  0.00    -0.491 OA
ENDBRANCH  12  19
BRANCH  17  20
ATOM     20  O   UNL     1      -0.108  -2.756  -0.012  0.00  0.00    -0.491 OA
ATOM     21  C   UNL     1       0.452  -3.110   1.254  0.00  0.00    +0.277 C 
ENDBRANCH  17  20
ENDBRANCH   1  16
BRANCH   1  22
ATOM     22  C   UNL     1      -3.301  -4.653  -1.228  0.00  0.00    +0.118 C 
BRANCH  22  23
ATOM     23  N   UNL     1      -3.260  -6.116  -1.291  0.00  0.00    -0.189 NA
ATOM     24  H   UNL     1      -2.632  -6.608  -0.739  0.00  0.00    +0.148 HD
BRANCH  23  25
ATOM     25  S   UNL     1      -4.286  -6.930  -2.304  0.00  0.00    +0.061 S 
ATOM     26  O   UNL     1      -3.989  -8.312  -2.159  0.00  0.00    -0.153 OA
ATOM     27  O   UNL     1      -5.586  -6.402  -2.075  0.00  0.00    -0.153 OA
BRANCH  25  28
ATOM     28  C   UNL     1      -3.848  -6.491  -3.953  0.00  0.00    +0.143 A 
ATOM     29  C   UNL     1      -3.353  -7.451  -4.815  0.00  0.00    +0.034 A 
ATOM     30  C   UNL     1      -3.008  -7.109  -6.109  0.00  0.00    +0.043 A 
ATOM     31  C   UNL     1      -3.158  -5.803  -6.544  0.00  0.00    +0.161 A 
ATOM     32  C   UNL     1      -3.654  -4.839  -5.681  0.00  0.00    +0.195 A 
ATOM     33  C   UNL     1      -4.005  -5.185  -4.386  0.00  0.00    +0.187 A 
ATOM     34  F   UNL     1      -4.494  -4.248  -3.545  0.00  0.00    -0.200 F 
ATOM     35  F   UNL     1      -3.801  -3.564  -6.104  0.00  0.00    -0.199 F 
ATOM     36  F   UNL     1      -2.820  -5.469  -7.809  0.00  0.00    -0.202 F 
ENDBRANCH  25  28
ENDBRANCH  23  25
ENDBRANCH  22  23
ENDBRANCH   1  22
TORSDOF 8
