REMARK  Name = ZINC37424905
REMARK  14 active torsions:
REMARK  status: ('A' for Active; 'I' for Inactive)
REMARK    1  A    between atoms: C_1  and  C_2
REMARK    2  A    between atoms: C_5  and  N_8
REMARK    3  A    between atoms: C_11  and  C_13
REMARK    4  A    between atoms: C_13  and  C_14
REMARK    5  A    between atoms: C_13  and  C_15
REMARK    6  A    between atoms: C_13  and  C_16
REMARK    7  A    between atoms: C_17  and  C_33
REMARK    8  A    between atoms: N_23  and  C_24
REMARK    9  A    between atoms: C_24  and  C_25
REMARK   10  A    between atoms: N_27  and  C_28
REMARK   11  A    between atoms: C_28  and  C_29
REMARK   12  A    between atoms: C_29  and  N_30
REMARK   13  A    between atoms: N_30  and  C_31
REMARK   14  A    between atoms: N_30  and  C_32
REMARK                            x       y       z     vdW  Elec       q    Type
REMARK                         _______ _______ _______ _____ _____    ______ ____
ROOT
ATOM      1  N   UNL     1      -0.213  -4.127  -1.175  0.00  0.00    -0.218 N 
ATOM      2  C   UNL     1       1.120  -4.254  -1.376  0.00  0.00    +0.136 A 
ATOM      3  C   UNL     1       1.435  -5.568  -1.298  0.00  0.00    +0.034 A 
ATOM      4  C   UNL     1       0.260  -6.275  -1.038  0.00  0.00    +0.075 A 
ATOM      5  N   UNL     1      -0.727  -5.415  -0.958  0.00  0.00    -0.169 NA
ATOM      6  C   UNL     1       2.821  -6.133  -1.474  0.00  0.00    +0.118 C 
ATOM      7  S   UNL     1       3.805  -5.736   0.015  0.00  0.00    -0.138 S 
ATOM      8  C   UNL     1       3.284  -4.023   0.364  0.00  0.00    +0.166 C 
ATOM      9  C   UNL     1       3.187  -3.229  -0.903  0.00  0.00    +0.231 C 
ATOM     10  O   UNL     1       4.136  -2.575  -1.281  0.00  0.00    -0.274 OA
ATOM     11  N   UNL     1       2.058  -3.240  -1.620  0.00  0.00    -0.246 N 
ENDROOT
BRANCH   1  16
ATOM     12  C   UNL     1      -3.170   0.716  -1.185  0.00  0.00    +0.044 C 
ATOM     13  C   UNL     1      -2.385  -0.570  -1.182  0.00  0.00    -0.050 A 
ATOM     14  C   UNL     1      -2.924  -1.708  -1.753  0.00  0.00    +0.005 A 
ATOM     15  C   UNL     1      -2.207  -2.889  -1.752  0.00  0.00    +0.028 A 
ATOM     16  C   UNL     1      -0.943  -2.931  -1.178  0.00  0.00    +0.067 A 
ATOM     17  C   UNL     1      -0.405  -1.786  -0.607  0.00  0.00    +0.028 A 
ATOM     18  C   UNL     1      -1.125  -0.608  -0.615  0.00  0.00    +0.005 A 
ENDBRANCH   1  16
BRANCH   6  19
ATOM     19  C   UNL     1       2.740  -7.628  -1.647  0.00  0.00    +0.007 A 
ATOM     20  C   UNL     1       2.638  -8.593  -0.701  0.00  0.00    +0.012 A 
ATOM     21  C   UNL     1       2.576  -9.916  -1.096  0.00  0.00    +0.008 A 
ATOM     22  C   UNL     1       2.620 -10.209  -2.419  0.00  0.00    +0.045 A 
ATOM     23  S   UNL     1       2.745  -8.587  -3.153  0.00  0.00    -0.100 S 
ENDBRANCH   6  19
BRANCH   4  24
ATOM     24  C   UNL     1       0.147  -7.768  -0.871  0.00  0.00    +0.007 C 
ATOM     25  C   UNL     1       0.909  -8.200   0.384  0.00  0.00    +0.017 C 
ATOM     26  C   UNL     1      -1.327  -8.155  -0.731  0.00  0.00    +0.017 C 
ATOM     27  C   UNL     1       0.743  -8.465  -2.095  0.00  0.00    +0.017 C 
ENDBRANCH   4  24
BRANCH  11  28
ATOM     28  C   UNL     1       1.807  -2.216  -2.637  0.00  0.00    +0.210 C 
BRANCH  28  29
ATOM     29  C   UNL     1       2.259  -2.723  -3.983  0.00  0.00    +0.231 C 
ATOM     30  O   UNL     1       2.658  -3.862  -4.098  0.00  0.00    -0.274 OA
ATOM     31  N   UNL     1       2.219  -1.910  -5.057  0.00  0.00    -0.316 N 
ATOM     32  H   UNL     1       1.969  -0.978  -4.952  0.00  0.00    +0.149 HD
BRANCH  31  33
ATOM     33  C   UNL     1       2.553  -2.433  -6.384  0.00  0.00    +0.085 C 
BRANCH  33  34
ATOM     34  C   UNL     1       2.551  -1.288  -7.399  0.00  0.00    -0.061 C 
BRANCH  34  35
ATOM     35  N   UNL     1       2.764  -1.829  -8.748  0.00  0.00    +0.377 N 
ATOM     36  C   UNL     1       2.686  -0.740  -9.730  0.00  0.00    -0.097 C 
ATOM     37  C   UNL     1       4.090  -2.458  -8.819  0.00  0.00    -0.097 C 
ATOM     38  H   UNL     1       2.054  -2.517  -8.950  0.00  0.00    -0.083 HD
ENDBRANCH  34  35
ENDBRANCH  33  34
ENDBRANCH  31  33
ENDBRANCH  28  29
ENDBRANCH  11  28
TORSDOF 8
