REMARK  Name = ZINC63386038
REMARK  6 active torsions:
REMARK  status: ('A' for Active; 'I' for Inactive)
REMARK    1  A    between atoms: C_1  and  C_2
REMARK    2  A    between atoms: C_2  and  C_3
REMARK    3  A    between atoms: C_16  and  C_19
REMARK    4  A    between atoms: N_25  and  C_28
REMARK    5  A    between atoms: C_31  and  O_34
REMARK    6  A    between atoms: O_34  and  C_35
REMARK                            x       y       z     vdW  Elec       q    Type
REMARK                         _______ _______ _______ _____ _____    ______ ____
ROOT
ATOM      1  C   UNL     1      -1.741   1.447   0.102  0.00  0.00    -0.067 C 
ATOM      2  C   UNL     1      -1.904   0.175  -0.751  0.00  0.00    +0.018 C 
ATOM      3  C   UNL     1      -1.308  -0.950   0.059  0.00  0.00    -0.041 C 
ATOM      4  C   UNL     1      -0.440  -1.905  -0.239  0.00  0.00    -0.001 A 
ATOM      5  C   UNL     1       0.167  -2.319  -1.514  0.00  0.00    +0.010 A 
ATOM      6  C   UNL     1       1.058  -3.344  -1.450  0.00  0.00    +0.001 A 
ATOM      7  C   UNL     1       1.402  -3.991  -0.259  0.00  0.00    +0.002 A 
ATOM      8  C   UNL     1       0.885  -3.684   0.957  0.00  0.00    +0.026 A 
ATOM      9  C   UNL     1      -0.071  -2.629   1.017  0.00  0.00    +0.043 A 
ATOM     10  N   UNL     1      -0.739  -2.155   2.029  0.00  0.00    -0.379 N 
ATOM     11  C   UNL     1      -1.660  -1.136   1.532  0.00  0.00    +0.097 C 
ATOM     12  C   UNL     1      -1.457   0.229   2.191  0.00  0.00    -0.003 C 
ATOM     13  N   UNL     1      -2.254   1.217   1.455  0.00  0.00    +0.387 N 
ATOM     14  H   UNL     1      -2.240   2.089   1.963  0.00  0.00    -0.085 HD
ATOM     15  H   UNL     1      -0.641  -2.431   2.953  0.00  0.00    +0.160 HD
ATOM     16  H   UNL     1      -3.207   0.891   1.393  0.00  0.00    -0.085 HD
ENDROOT
BRANCH  12  17
ATOM     17  C   UNL     1      -1.913   0.173   3.627  0.00  0.00    +0.070 A 
ATOM     18  C   UNL     1      -1.019   0.339   4.643  0.00  0.00    +0.257 A 
ATOM     19  N   UNL     1      -1.456   0.285   5.942  0.00  0.00    -0.302 N 
ATOM     20  H   UNL     1      -0.824   0.403   6.668  0.00  0.00    +0.171 HD
ATOM     21  C   UNL     1      -2.756   0.069   6.215  0.00  0.00    +0.168 A 
ATOM     22  S   UNL     1      -3.275   0.005   7.845  0.00  0.00    -0.012 S 
ATOM     23  N   UNL     1      -3.653  -0.098   5.227  0.00  0.00    -0.256 N 
ATOM     24  C   UNL     1      -3.267  -0.046   3.936  0.00  0.00    +0.264 A 
ATOM     25  O   UNL     1      -4.084  -0.193   3.045  0.00  0.00    -0.267 OA
ATOM     26  O   UNL     1       0.286   0.556   4.373  0.00  0.00    -0.267 OA
BRANCH  23  27
ATOM     27  C   UNL     1      -5.001  -0.321   5.541  0.00  0.00    +0.052 A 
ATOM     28  C   UNL     1      -5.468  -1.617   5.715  0.00  0.00    +0.030 A 
ATOM     29  C   UNL     1      -6.796  -1.837   6.024  0.00  0.00    +0.047 A 
ATOM     30  C   UNL     1      -7.663  -0.763   6.161  0.00  0.00    +0.120 A 
ATOM     31  C   UNL     1      -7.197   0.532   5.987  0.00  0.00    +0.047 A 
ATOM     32  C   UNL     1      -5.869   0.753   5.684  0.00  0.00    +0.030 A 
BRANCH  30  33
ATOM     33  O   UNL     1      -8.970  -0.980   6.466  0.00  0.00    -0.495 OA
ATOM     34  C   UNL     1      -9.807   0.172   6.592  0.00  0.00    +0.277 C 
ENDBRANCH  30  33
ENDBRANCH  23  27
ENDBRANCH  12  17
BRANCH   1  36
ATOM     35  C   UNL     1      -0.102   3.132   0.949  0.00  0.00    +0.002 C 
ATOM     36  C   UNL     1      -0.259   1.819   0.180  0.00  0.00    -0.019 C 
ENDBRANCH   1  36
TORSDOF 4
