REMARK  Name = ZINC08728310
REMARK  5 active torsions:
REMARK  status: ('A' for Active; 'I' for Inactive)
REMARK    1  A    between atoms: C_1  and  C_2
REMARK    2  A    between atoms: C_5  and  C_7
REMARK    3  A    between atoms: C_15  and  C_18
REMARK    4  A    between atoms: C_18  and  N_50
REMARK    5  A    between atoms: C_27  and  C_29
REMARK                            x       y       z     vdW  Elec       q    Type
REMARK                         _______ _______ _______ _____ _____    ______ ____
ROOT
ATOM      1  C   UNL     1      -5.410   3.046   5.466  0.00  0.00    +0.010 A 
ATOM      2  C   UNL     1      -6.285   4.026   5.125  0.00  0.00    +0.057 A 
ATOM      3  S   UNL     1      -5.967   4.273   3.388  0.00  0.00    -0.078 S 
ATOM      4  C   UNL     1      -4.684   3.071   3.166  0.00  0.00    +0.092 A 
ATOM      5  C   UNL     1      -4.529   2.506   4.436  0.00  0.00    +0.080 A 
ATOM      6  C   UNL     1      -3.498   1.451   4.533  0.00  0.00    +0.282 A 
ATOM      7  O   UNL     1      -3.282   0.893   5.597  0.00  0.00    -0.265 OA
ATOM      8  N   UNL     1      -2.803   1.116   3.435  0.00  0.00    -0.197 NA
ATOM      9  C   UNL     1      -3.003   1.688   2.280  0.00  0.00    +0.095 A 
ATOM     10  N   UNL     1      -3.922   2.661   2.118  0.00  0.00    -0.339 N 
ATOM     11  H   UNL     1      -4.043   3.069   1.247  0.00  0.00    +0.167 HD
ENDROOT
BRANCH   1  16
ATOM     12  C   UNL     1      -5.243   0.210  10.334  0.00  0.00    +0.051 C 
ATOM     13  C   UNL     1      -5.269   1.184   9.184  0.00  0.00    -0.013 A 
ATOM     14  C   UNL     1      -5.211   2.539   9.213  0.00  0.00    +0.011 A 
ATOM     15  C   UNL     1      -5.251   3.239   8.025  0.00  0.00    +0.016 A 
ATOM     16  C   UNL     1      -5.349   2.538   6.852  0.00  0.00    +0.021 A 
ATOM     17  S   UNL     1      -5.393   0.851   7.435  0.00  0.00    -0.093 S 
ENDBRANCH   1  16
BRANCH   9  18
ATOM     18  C   UNL     1      -2.179   1.254   1.096  0.00  0.00    -0.002 C 
BRANCH  18  28
ATOM     19  C   UNL     1      -1.109   3.388   0.703  0.00  0.00    -0.041 C 
ATOM     20  C   UNL     1       0.213   4.104   0.604  0.00  0.00    -0.061 A 
ATOM     21  C   UNL     1       0.214   5.491   0.614  0.00  0.00    +0.002 A 
ATOM     22  C   UNL     1       1.402   6.189   0.521  0.00  0.00    +0.000 A 
ATOM     23  C   UNL     1       2.597   5.502   0.418  0.00  0.00    +0.000 A 
ATOM     24  C   UNL     1       2.598   4.121   0.410  0.00  0.00    +0.004 A 
ATOM     25  C   UNL     1       1.405   3.420   0.504  0.00  0.00    -0.047 A 
ATOM     26  C   UNL     1       1.454   1.914   0.495  0.00  0.00    +0.029 C 
ATOM     27  C   UNL     1       0.067   1.348   0.191  0.00  0.00    +0.024 C 
ATOM     28  N   UNL     1      -0.894   1.990   1.110  0.00  0.00    +0.395 N 
ATOM     29  H   UNL     1      -0.510   1.972   2.062  0.00  0.00    -0.080 HD
BRANCH  27  30
ATOM     30  C   UNL     1       0.066  -0.141   0.422  0.00  0.00    +0.197 C 
ATOM     31  O   UNL     1      -0.115  -0.582   1.537  0.00  0.00    -0.278 OA
ATOM     32  N   UNL     1       0.266  -0.984  -0.611  0.00  0.00    -0.331 N 
ATOM     33  H   UNL     1       0.410  -0.632  -1.504  0.00  0.00    +0.145 HD
ATOM     34  H   UNL     1       0.265  -1.942  -0.463  0.00  0.00    +0.145 HD
ENDBRANCH  27  30
ENDBRANCH  18  28
ENDBRANCH   9  18
TORSDOF 4
