REMARK  Name = ZINC35871551
REMARK  6 active torsions:
REMARK  status: ('A' for Active; 'I' for Inactive)
REMARK    1  A    between atoms: C_1  and  O_2
REMARK    2  A    between atoms: O_2  and  C_3
REMARK    3  A    between atoms: C_6  and  N_9
REMARK    4  A    between atoms: C_10  and  C_12
REMARK    5  A    between atoms: C_17  and  C_34
REMARK    6  A    between atoms: N_25  and  C_28
REMARK                            x       y       z     vdW  Elec       q    Type
REMARK                         _______ _______ _______ _____ _____    ______ ____
ROOT
ATOM      1  C   UNL     1       3.363  -4.458  -5.442  0.00  0.00    +0.098 C 
ATOM      2  C   UNL     1       4.764  -3.884  -5.465  0.00  0.00    +0.051 C 
ATOM      3  C   UNL     1       5.625  -4.454  -4.376  0.00  0.00    -0.025 A 
ATOM      4  C   UNL     1       6.651  -3.694  -3.843  0.00  0.00    +0.017 A 
ATOM      5  C   UNL     1       7.451  -4.211  -2.842  0.00  0.00    +0.055 A 
ATOM      6  C   UNL     1       7.230  -5.492  -2.369  0.00  0.00    +0.014 A 
ATOM      7  C   UNL     1       6.207  -6.255  -2.895  0.00  0.00    +0.024 A 
ATOM      8  C   UNL     1       5.399  -5.737  -3.901  0.00  0.00    +0.033 A 
ATOM      9  N   UNL     1       4.364  -6.503  -4.421  0.00  0.00    -0.329 N 
ATOM     10  C   UNL     1       3.303  -5.948  -5.245  0.00  0.00    +0.069 C 
ATOM     11  C   UNL     1       3.262  -6.706  -6.573  0.00  0.00    -0.055 C 
ATOM     12  N   UNL     1       3.118  -8.143  -6.297  0.00  0.00    +0.384 N 
ATOM     13  C   UNL     1       4.277  -8.643  -5.549  0.00  0.00    -0.059 C 
ATOM     14  C   UNL     1       4.338  -7.960  -4.181  0.00  0.00    +0.087 C 
ATOM     15  H   UNL     1       2.281  -8.296  -5.754  0.00  0.00    -0.081 HD
ENDROOT
BRANCH  12  16
ATOM     16  C   UNL     1       3.010  -8.872  -7.568  0.00  0.00    -0.068 C 
ATOM     17  C   UNL     1       2.859 -10.368  -7.286  0.00  0.00    -0.015 C 
ATOM     18  C   UNL     1       2.747 -11.128  -8.610  0.00  0.00    -0.002 C 
ATOM     19  C   UNL     1       1.524 -10.628  -9.382  0.00  0.00    -0.000 C 
ATOM     20  C   UNL     1       1.675  -9.132  -9.664  0.00  0.00    -0.002 C 
ATOM     21  C   UNL     1       1.787  -8.373  -8.340  0.00  0.00    -0.015 C 
ENDBRANCH  12  16
BRANCH   1  23
ATOM     22  N   UNL     1       2.458  -2.458  -4.302  0.00  0.00    -0.285 N 
ATOM     23  C   UNL     1       2.596  -3.798  -4.325  0.00  0.00    +0.222 C 
ATOM     24  O   UNL     1       2.102  -4.474  -3.447  0.00  0.00    -0.275 OA
ATOM     25  H   UNL     1       2.786  -1.924  -5.042  0.00  0.00    +0.155 HD
BRANCH  22  29
ATOM     26  C   UNL     1       0.624  -0.605  -1.048  0.00  0.00    +0.120 A 
ATOM     27  C   UNL     1       1.377  -1.755  -0.857  0.00  0.00    +0.047 A 
ATOM     28  C   UNL     1       1.984  -2.369  -1.934  0.00  0.00    +0.027 A 
ATOM     29  C   UNL     1       1.841  -1.835  -3.208  0.00  0.00    +0.034 A 
ATOM     30  C   UNL     1       1.087  -0.685  -3.398  0.00  0.00    +0.027 A 
ATOM     31  C   UNL     1       0.475  -0.075  -2.321  0.00  0.00    +0.047 A 
BRANCH  26  33
ATOM     32  C   UNL     1       0.220  -0.601   1.296  0.00  0.00    +0.277 C 
ATOM     33  O   UNL     1       0.025  -0.001   0.014  0.00  0.00    -0.495 OA
ENDBRANCH  26  33
ENDBRANCH  22  29
ENDBRANCH   1  23
BRANCH   5  34
ATOM     34  C   UNL     1       8.567  -3.378  -2.265  0.00  0.00    +0.417 C 
ATOM     35  F   UNL     1       8.085  -2.641  -1.178  0.00  0.00    -0.166 F 
ATOM     36  F   UNL     1       9.602  -4.217  -1.838  0.00  0.00    -0.166 F 
ATOM     37  F   UNL     1       9.050  -2.503  -3.244  0.00  0.00    -0.166 F 
ENDBRANCH   5  34
TORSDOF 5
