REMARK  Name = ZINC18199539
REMARK  2 active torsions:
REMARK  status: ('A' for Active; 'I' for Inactive)
REMARK    1  A    between atoms: C_3  and  C_6
REMARK    2  A    between atoms: C_11  and  C_24
REMARK                            x       y       z     vdW  Elec       q    Type
REMARK                         _______ _______ _______ _____ _____    ______ ____
ROOT
ATOM      1  C   UNL     1      -2.197   8.012  -0.444  0.00  0.00    +0.068 C 
ATOM      2  C   UNL     1      -0.936   7.215  -0.786  0.00  0.00    +0.063 C 
ATOM      3  C   UNL     1      -1.115   5.778  -0.363  0.00  0.00    +0.017 C 
ATOM      4  C   UNL     1      -2.335   5.200  -0.364  0.00  0.00    +0.024 C 
ATOM      5  C   UNL     1      -2.511   3.763   0.056  0.00  0.00    +0.092 C 
ATOM      6  C   UNL     1      -1.205   3.025   0.032  0.00  0.00    +0.067 A 
ATOM      7  C   UNL     1      -0.021   3.698   0.021  0.00  0.00    +0.113 A 
ATOM      8  N   UNL     1       1.159   2.994   0.005  0.00  0.00    -0.295 N 
ATOM      9  H   UNL     1       2.031   3.485  -0.003  0.00  0.00    +0.172 HD
ATOM     10  C   UNL     1       1.148   1.649  -0.000  0.00  0.00    +0.328 A 
ATOM     11  O   UNL     1       2.201   1.041  -0.012  0.00  0.00    -0.247 OA
ATOM     12  N   UNL     1      -0.011   0.966   0.007  0.00  0.00    -0.275 N 
ATOM     13  H   UNL     1       0.003  -0.034   0.006  0.00  0.00    +0.173 HD
ATOM     14  C   UNL     1      -1.190   1.618   0.017  0.00  0.00    +0.260 A 
ATOM     15  O   UNL     1      -2.237   0.993   0.017  0.00  0.00    -0.267 OA
ATOM     16  N   UNL     1      -0.008   5.070   0.021  0.00  0.00    -0.303 N 
ATOM     17  C   UNL     1      -3.478   5.921  -0.753  0.00  0.00    +0.162 C 
ATOM     18  O   UNL     1      -4.559   5.365  -0.760  0.00  0.00    -0.292 OA
ATOM     19  C   UNL     1      -3.388   7.366  -1.160  0.00  0.00    +0.091 C 
ATOM     20  H   UNL     1       0.793   5.543   0.296  0.00  0.00    +0.153 HD
ENDROOT
BRANCH   5  21
ATOM     21  C   UNL     1      -3.075   3.723   1.453  0.00  0.00    -0.035 A 
ATOM     22  C   UNL     1      -2.372   4.293   2.498  0.00  0.00    +0.007 A 
ATOM     23  C   UNL     1      -2.891   4.262   3.779  0.00  0.00    +0.038 A 
ATOM     24  C   UNL     1      -4.109   3.649   4.017  0.00  0.00    +0.123 A 
ATOM     25  C   UNL     1      -4.809   3.073   2.971  0.00  0.00    +0.038 A 
ATOM     26  C   UNL     1      -4.292   3.111   1.690  0.00  0.00    +0.007 A 
ATOM     27  F   UNL     1      -4.614   3.612   5.270  0.00  0.00    -0.205 F 
ENDBRANCH   5  21
BRANCH   1  30
ATOM     28  C   UNL     1      -1.897  11.647  -0.975  0.00  0.00    +0.041 A 
ATOM     29  C   UNL     1      -2.099  10.531  -0.131  0.00  0.00    +0.045 A 
ATOM     30  C   UNL     1      -2.038   9.436  -0.910  0.00  0.00    +0.109 A 
ATOM     31  O   UNL     1      -1.806   9.828  -2.174  0.00  0.00    -0.468 OA
ATOM     32  C   UNL     1      -1.726  11.168  -2.220  0.00  0.00    +0.195 A 
ENDBRANCH   1  30
TORSDOF 2
