REMARK  Name = ZINC37515963
REMARK  8 active torsions:
REMARK  status: ('A' for Active; 'I' for Inactive)
REMARK    1  A    between atoms: C_1  and  C_2
REMARK    2  A    between atoms: C_2  and  N_3
REMARK    3  A    between atoms: N_3  and  C_4
REMARK    4  A    between atoms: N_3  and  C_13
REMARK    5  A    between atoms: C_4  and  C_5
REMARK    6  A    between atoms: C_8  and  N_12
REMARK    7  A    between atoms: C_13  and  C_14
REMARK    8  A    between atoms: N_16  and  C_17
REMARK                            x       y       z     vdW  Elec       q    Type
REMARK                         _______ _______ _______ _____ _____    ______ ____
ROOT
ATOM      1  C   UNL     1       2.019  -0.176  -1.285  0.00  0.00    -0.041 C 
ENDROOT
BRANCH   1   2
ATOM      2  C   UNL     1       2.565  -0.436  -2.666  0.00  0.00    -0.050 A 
ATOM      3  C   UNL     1       3.327  -1.564  -2.905  0.00  0.00    +0.004 A 
ATOM      4  C   UNL     1       3.829  -1.805  -4.169  0.00  0.00    +0.023 A 
ATOM      5  C   UNL     1       3.567  -0.912  -5.201  0.00  0.00    +0.026 A 
ATOM      6  C   UNL     1       2.800   0.220  -4.958  0.00  0.00    +0.038 A 
ATOM      7  C   UNL     1       2.297   0.453  -3.692  0.00  0.00    +0.021 A 
ATOM      8 BR   UNL     1       1.246   1.990  -3.361  0.00  0.00    -0.050 Br
BRANCH   5   9
ATOM      9  N   UNL     1       4.074  -1.153  -6.480  0.00  0.00    -0.358 N 
ATOM     10  H   UNL     1       4.609  -1.944  -6.649  0.00  0.00    +0.142 HD
ATOM     11  H   UNL     1       3.890  -0.529  -7.200  0.00  0.00    +0.142 HD
ENDBRANCH   5   9
ENDBRANCH   1   2
BRANCH   1  12
ATOM     12  N   UNL     1       0.594  -0.528  -1.248  0.00  0.00    +0.388 N 
ATOM     13  H   UNL     1       0.105  -0.033  -1.979  0.00  0.00    -0.081 HD
BRANCH  12  15
ATOM     14  C   UNL     1       0.051   1.369   0.203  0.00  0.00    -0.017 C 
ATOM     15  C   UNL     1       0.031  -0.154   0.057  0.00  0.00    -0.081 C 
ENDBRANCH  12  15
BRANCH  12  16
ATOM     16  C   UNL     1       0.441  -1.975  -1.450  0.00  0.00    +0.019 C 
BRANCH  16  17
ATOM     17  C   UNL     1      -1.024  -2.319  -1.534  0.00  0.00    +0.196 C 
ATOM     18  O   UNL     1      -1.858  -1.445  -1.435  0.00  0.00    -0.278 OA
ATOM     19  N   UNL     1      -1.406  -3.598  -1.719  0.00  0.00    -0.320 N 
ATOM     20  C   UNL     1      -2.830  -3.933  -1.801  0.00  0.00    +0.128 C 
ATOM     21  H   UNL     1      -0.738  -4.298  -1.797  0.00  0.00    +0.148 HD
ENDBRANCH  16  17
ENDBRANCH  12  16
ENDBRANCH   1  12
TORSDOF 6
