REMARK  Name = ZINC37620450
REMARK  10 active torsions:
REMARK  status: ('A' for Active; 'I' for Inactive)
REMARK    1  A    between atoms: C_1  and  C_2
REMARK    2  A    between atoms: C_2  and  C_3
REMARK    3  A    between atoms: C_3  and  C_4
REMARK    4  A    between atoms: C_4  and  C_5
REMARK    5  A    between atoms: C_5  and  C_7
REMARK    6  A    between atoms: C_5  and  N_20
REMARK    7  A    between atoms: N_9  and  C_10
REMARK    8  A    between atoms: C_15  and  N_16
REMARK    9  A    between atoms: N_16  and  C_17
REMARK   10  A    between atoms: N_16  and  C_18
REMARK                            x       y       z     vdW  Elec       q    Type
REMARK                         _______ _______ _______ _____ _____    ______ ____
ROOT
ATOM      1  C   UNL     1      -2.827  -4.094  -0.116  0.00  0.00    +0.203 C 
ATOM      2  O   UNL     1      -2.967  -4.790   0.867  0.00  0.00    -0.277 OA
ATOM      3  N   UNL     1      -2.666  -4.662  -1.328  0.00  0.00    -0.285 N 
ATOM      4  H   UNL     1      -2.634  -4.108  -2.123  0.00  0.00    +0.155 HD
ENDROOT
BRANCH   3   5
ATOM      5  C   UNL     1      -2.545  -6.054  -1.438  0.00  0.00    +0.056 A 
ATOM      6  C   UNL     1      -2.081  -6.799  -0.365  0.00  0.00    +0.040 A 
ATOM      7  C   UNL     1      -1.962  -8.172  -0.476  0.00  0.00    +0.020 A 
ATOM      8  C   UNL     1      -2.305  -8.807  -1.656  0.00  0.00    +0.017 A 
ATOM      9  C   UNL     1      -2.769  -8.072  -2.731  0.00  0.00    +0.026 A 
ATOM     10  C   UNL     1      -2.896  -6.694  -2.626  0.00  0.00    +0.051 A 
ATOM     11 BR   UNL     1      -1.329  -9.186   0.990  0.00  0.00    -0.050 Br
BRANCH  10  12
ATOM     12  N   UNL     1      -3.370  -5.949  -3.711  0.00  0.00    -0.335 N 
ATOM     13  C   UNL     1      -4.806  -5.696  -3.854  0.00  0.00    +0.129 C 
ATOM     14  C   UNL     1      -2.431  -5.422  -4.704  0.00  0.00    +0.129 C 
ENDBRANCH  10  12
ENDBRANCH   3   5
BRANCH   1  15
ATOM     15  C   UNL     1      -2.832  -2.593   0.017  0.00  0.00    +0.013 C 
BRANCH  15  16
ATOM     16  N   UNL     1      -3.480  -2.216   1.280  0.00  0.00    +0.386 N 
ATOM     17  H   UNL     1      -3.483  -1.211   1.370  0.00  0.00    -0.089 HD
ATOM     18  H   UNL     1      -4.429  -2.557   1.287  0.00  0.00    -0.089 HD
ATOM     19  H   UNL     1      -2.971  -2.620   2.053  0.00  0.00    -0.089 HD
ENDBRANCH  15  16
BRANCH  15  20
ATOM     20  C   UNL     1      -1.392  -2.075   0.007  0.00  0.00    -0.007 C 
BRANCH  20  21
ATOM     21  C   UNL     1      -1.401  -0.545   0.017  0.00  0.00    -0.001 C 
BRANCH  21  23
ATOM     22  C   UNL     1       0.030   1.503   0.017  0.00  0.00    +0.004 C 
ATOM     23  C   UNL     1       0.039  -0.027   0.007  0.00  0.00    -0.003 C 
ENDBRANCH  21  23
ENDBRANCH  20  21
ENDBRANCH  15  20
ENDBRANCH   1  15
TORSDOF 7
