REMARK  Name = ZINC39668971
REMARK  5 active torsions:
REMARK  status: ('A' for Active; 'I' for Inactive)
REMARK    1  A    between atoms: C_10  and  C_12
REMARK    2  A    between atoms: C_12  and  N_13
REMARK    3  A    between atoms: C_14  and  C_16
REMARK    4  A    between atoms: C_27  and  C_29
REMARK    5  A    between atoms: C_32  and  C_36
REMARK                            x       y       z     vdW  Elec       q    Type
REMARK                         _______ _______ _______ _____ _____    ______ ____
ROOT
ATOM      1  C   UNL     1       8.761  -1.401  -1.665  0.00  0.00    +0.100 C 
ATOM      2  C   UNL     1       8.265  -2.776  -2.165  0.00  0.00    +0.121 C 
ATOM      3  N   UNL     1       8.479  -2.741  -3.631  0.00  0.00    -0.296 N 
ATOM      4  C   UNL     1       9.778  -2.046  -3.797  0.00  0.00    +0.115 C 
ATOM      5  C   UNL     1       9.757  -0.926  -2.737  0.00  0.00    -0.004 C 
ATOM      6  C   UNL     1      11.144  -0.749  -2.128  0.00  0.00    -0.010 C 
ATOM      7  C   UNL     1      12.103  -0.221  -3.199  0.00  0.00    -0.082 C 
ATOM      8  N   UNL     1      11.606   1.060  -3.715  0.00  0.00    +0.379 N 
ATOM      9  C   UNL     1      10.313   0.863  -4.382  0.00  0.00    -0.082 C 
ATOM     10  C   UNL     1       9.278   0.381  -3.361  0.00  0.00    -0.010 C 
ATOM     11  C   UNL     1       7.676  -3.232  -4.595  0.00  0.00    +0.247 C 
ATOM     12  O   UNL     1       6.577  -3.666  -4.308  0.00  0.00    -0.270 OA
ATOM     13  H   UNL     1      11.493   1.708  -2.950  0.00  0.00    -0.086 HD
ATOM     14  H   UNL     1      12.270   1.435  -4.376  0.00  0.00    -0.086 HD
ENDROOT
BRANCH  11  15
ATOM     15  C   UNL     1       8.130  -3.241  -6.002  0.00  0.00    +0.040 A 
ATOM     16  C   UNL     1       9.492  -3.166  -6.299  0.00  0.00    +0.014 A 
ATOM     17  C   UNL     1       9.910  -3.176  -7.614  0.00  0.00    +0.016 A 
ATOM     18  C   UNL     1       8.984  -3.259  -8.638  0.00  0.00    +0.090 A 
ATOM     19  C   UNL     1       7.631  -3.333  -8.351  0.00  0.00    +0.136 A 
ATOM     20  C   UNL     1       7.199  -3.330  -7.038  0.00  0.00    +0.052 A 
ATOM     21  F   UNL     1       6.731  -3.413  -9.356  0.00  0.00    -0.205 F 
BRANCH  18  22
ATOM     22  C   UNL     1       9.449  -3.269 -10.071  0.00  0.00    +0.420 C 
ATOM     23  F   UNL     1      10.845  -3.186 -10.109  0.00  0.00    -0.166 F 
ATOM     24  F   UNL     1       9.036  -4.455 -10.687  0.00  0.00    -0.166 F 
ATOM     25  F   UNL     1       8.898  -2.176 -10.748  0.00  0.00    -0.166 F 
ENDBRANCH  18  22
ENDBRANCH  11  15
BRANCH   1  27
ATOM     26  N   UNL     1       7.692   0.622  -0.724  0.00  0.00    -0.312 N 
ATOM     27  C   UNL     1       7.609  -0.435  -1.556  0.00  0.00    +0.218 C 
ATOM     28  O   UNL     1       6.606  -0.610  -2.216  0.00  0.00    -0.275 OA
ATOM     29  H   UNL     1       8.493   0.762  -0.196  0.00  0.00    +0.149 HD
BRANCH  26  30
ATOM     30  C   UNL     1       6.572   1.560  -0.618  0.00  0.00    +0.140 C 
BRANCH  30  40
ATOM     31  C   UNL     1       3.648   5.401   0.615  0.00  0.00    +0.000 A 
ATOM     32  C   UNL     1       4.079   4.923  -0.609  0.00  0.00    +0.000 A 
ATOM     33  C   UNL     1       5.136   4.038  -0.669  0.00  0.00    +0.006 A 
ATOM     34  C   UNL     1       5.768   3.623   0.494  0.00  0.00    -0.014 A 
ATOM     35  C   UNL     1       5.336   4.097   1.714  0.00  0.00    -0.040 A 
ATOM     36  C   UNL     1       4.277   4.989   1.773  0.00  0.00    +0.004 A 
ATOM     37  C   UNL     1       5.989   3.660   3.001  0.00  0.00    +0.063 C 
ATOM     38  C   UNL     1       7.353   3.037   2.703  0.00  0.00    +0.165 C 
ATOM     39  O   UNL     1       7.193   2.071   1.658  0.00  0.00    -0.370 OA
ATOM     40  C   UNL     1       6.922   2.660   0.387  0.00  0.00    +0.165 C 
ENDBRANCH  30  40
ENDBRANCH  26  30
ENDBRANCH   1  27
TORSDOF 5
