REMARK  Name = ZINC13130106
REMARK  5 active torsions:
REMARK  status: ('A' for Active; 'I' for Inactive)
REMARK    1  A    between atoms: C_1  and  C_2
REMARK    2  A    between atoms: C_2  and  C_3
REMARK    3  A    between atoms: C_2  and  C_4
REMARK    4  A    between atoms: C_2  and  O_18
REMARK    5  A    between atoms: N_6  and  N_7
REMARK                            x       y       z     vdW  Elec       q    Type
REMARK                         _______ _______ _______ _____ _____    ______ ____
ROOT
ATOM      1  N   UNL     1      -3.405  -1.142  -1.134  0.00  0.00    -0.174 NA
ATOM      2  C   UNL     1      -4.064  -1.270  -2.260  0.00  0.00    +0.152 C 
ATOM      3  C   UNL     1      -5.452  -1.756  -2.442  0.00  0.00    +0.028 A 
ATOM      4  C   UNL     1      -6.430  -2.199  -1.558  0.00  0.00    +0.012 A 
ATOM      5  C   UNL     1      -7.660  -2.598  -2.040  0.00  0.00    +0.001 A 
ATOM      6  C   UNL     1      -7.918  -2.556  -3.400  0.00  0.00    +0.002 A 
ATOM      7  C   UNL     1      -6.954  -2.119  -4.286  0.00  0.00    +0.024 A 
ATOM      8  C   UNL     1      -5.709  -1.713  -3.818  0.00  0.00    +0.043 A 
ATOM      9  N   UNL     1      -4.583  -1.238  -4.481  0.00  0.00    -0.280 N 
ATOM     10  C   UNL     1      -3.589  -0.955  -3.622  0.00  0.00    +0.269 C 
ATOM     11  O   UNL     1      -2.491  -0.520  -3.915  0.00  0.00    -0.268 OA
ATOM     12  H   UNL     1      -4.524  -1.121  -5.443  0.00  0.00    +0.155 HD
ENDROOT
BRANCH   1  15
ATOM     13  C   UNL     1      -1.412  -0.526   0.013  0.00  0.00    +0.263 C 
ATOM     14  O   UNL     1      -1.939  -0.827   1.062  0.00  0.00    -0.271 OA
ATOM     15  N   UNL     1      -2.090  -0.657  -1.144  0.00  0.00    -0.204 N 
ATOM     16  H   UNL     1      -1.669  -0.416  -1.984  0.00  0.00    +0.177 HD
BRANCH  13  18
ATOM     17  C   UNL     1      -0.019   1.526   0.010  0.00  0.00    +0.051 C 
ATOM     18  C   UNL     1       0.002  -0.004   0.002  0.00  0.00    +0.137 C 
ATOM     19  C   UNL     1       0.742  -0.511   1.242  0.00  0.00    +0.051 C 
BRANCH  18  20
ATOM     20  O   UNL     1       0.671  -0.465  -1.174  0.00  0.00    -0.380 OA
ATOM     21  H   UNL     1       0.722  -1.428  -1.246  0.00  0.00    +0.211 HD
ENDBRANCH  18  20
ENDBRANCH  13  18
ENDBRANCH   1  15
TORSDOF 3
