REMARK  Name = ZINC19961976
REMARK  10 active torsions:
REMARK  status: ('A' for Active; 'I' for Inactive)
REMARK    1  A    between atoms: C_1  and  C_2
REMARK    2  A    between atoms: C_5  and  N_9
REMARK    3  A    between atoms: C_6  and  C_8
REMARK    4  A    between atoms: C_10  and  C_12
REMARK    5  A    between atoms: C_12  and  C_13
REMARK    6  A    between atoms: C_21  and  C_23
REMARK    7  A    between atoms: C_23  and  N_24
REMARK    8  A    between atoms: N_27  and  C_30
REMARK    9  A    between atoms: C_33  and  O_36
REMARK   10  A    between atoms: O_36  and  C_37
REMARK                            x       y       z     vdW  Elec       q    Type
REMARK                         _______ _______ _______ _____ _____    ______ ____
ROOT
ATOM      1  C   UNL     1       1.068   3.623  -0.172  0.00  0.00    +0.170 C 
ATOM      2  C   UNL     1       2.308   4.464  -0.310  0.00  0.00    +0.234 C 
ATOM      3  O   UNL     1       3.156   4.119  -1.106  0.00  0.00    -0.274 OA
ATOM      4  N   UNL     1       2.517   5.572   0.402  0.00  0.00    -0.312 N 
ATOM      5  C   UNL     1       1.634   6.058   1.454  0.00  0.00    +0.123 C 
ATOM      6  C   UNL     1       0.225   5.489   1.285  0.00  0.00    +0.127 C 
ATOM      7  N   UNL     1       0.340   4.042   1.035  0.00  0.00    -0.289 N 
ATOM      8  C   UNL     1      -0.199   3.139   1.877  0.00  0.00    +0.200 C 
ATOM      9  O   UNL     1      -0.012   1.954   1.698  0.00  0.00    -0.278 OA
ATOM     10  H   UNL     1       3.430   6.131   0.148  0.00  0.00    +0.149 HD
ENDROOT
BRANCH   1  11
ATOM     11  C   UNL     1       1.461   2.149  -0.048  0.00  0.00    +0.128 C 
BRANCH  11  13
ATOM     12  N   UNL     1       2.894   0.761   1.414  0.00  0.00    -0.285 N 
ATOM     13  C   UNL     1       2.342   1.964   1.161  0.00  0.00    +0.219 C 
ATOM     14  O   UNL     1       2.550   2.896   1.908  0.00  0.00    -0.275 OA
ATOM     15  H   UNL     1       2.635  -0.106   0.788  0.00  0.00    +0.155 HD
BRANCH  12  20
ATOM     16  C   UNL     1       6.556   0.169   5.707  0.00  0.00    +0.044 C 
ATOM     17  C   UNL     1       5.583   0.326   4.566  0.00  0.00    -0.050 A 
ATOM     18  C   UNL     1       5.404   1.565   3.978  0.00  0.00    +0.005 A 
ATOM     19  C   UNL     1       4.513   1.713   2.933  0.00  0.00    +0.024 A 
ATOM     20  C   UNL     1       3.797   0.615   2.473  0.00  0.00    +0.036 A 
ATOM     21  C   UNL     1       3.976  -0.626   3.069  0.00  0.00    -0.029 A 
ATOM     22  C   UNL     1       4.872  -0.768   4.110  0.00  0.00    +0.008 A 
ATOM     23  C   UNL     1       3.196  -1.818   2.577  0.00  0.00    +0.045 C 
ENDBRANCH  12  20
ENDBRANCH  11  13
ENDBRANCH   1  11
BRANCH   8  24
ATOM     24  C   UNL     1      -1.035   3.602   3.043  0.00  0.00    +0.019 C 
BRANCH  24  25
ATOM     25  N   UNL     1      -1.504   2.435   3.803  0.00  0.00    +0.387 N 
ATOM     26  C   UNL     1      -2.438   1.627   3.006  0.00  0.00    -0.059 C 
ATOM     27  C   UNL     1      -2.839   0.383   3.801  0.00  0.00    +0.086 C 
ATOM     28  N   UNL     1      -3.455   0.794   5.071  0.00  0.00    -0.333 N 
ATOM     29  C   UNL     1      -2.521   1.602   5.868  0.00  0.00    +0.086 C 
ATOM     30  C   UNL     1      -2.119   2.846   5.073  0.00  0.00    -0.059 C 
ATOM     31  H   UNL     1      -0.628   1.811   4.036  0.00  0.00    -0.081 HD
BRANCH  28  32
ATOM     32  C   UNL     1      -3.901  -0.317   5.795  0.00  0.00    +0.030 A 
ATOM     33  C   UNL     1      -3.447  -0.530   7.090  0.00  0.00    +0.027 A 
ATOM     34  C   UNL     1      -3.892  -1.625   7.806  0.00  0.00    +0.047 A 
ATOM     35  C   UNL     1      -4.784  -2.516   7.228  0.00  0.00    +0.120 A 
ATOM     36  C   UNL     1      -5.234  -2.306   5.932  0.00  0.00    +0.047 A 
ATOM     37  C   UNL     1      -4.793  -1.210   5.217  0.00  0.00    +0.027 A 
BRANCH  35  38
ATOM     38  O   UNL     1      -5.218  -3.596   7.931  0.00  0.00    -0.495 OA
ATOM     39  C   UNL     1      -4.714  -3.749   9.260  0.00  0.00    +0.277 C 
ENDBRANCH  35  38
ENDBRANCH  28  32
ENDBRANCH  24  25
ENDBRANCH   8  24
TORSDOF 7
