REMARK  Name = ZINC02735278
REMARK  10 active torsions:
REMARK  status: ('A' for Active; 'I' for Inactive)
REMARK    1  A    between atoms: C_1  and  C_2
REMARK    2  A    between atoms: C_3  and  C_30
REMARK    3  A    between atoms: C_4  and  C_21
REMARK    4  A    between atoms: C_10  and  C_15
REMARK    5  A    between atoms: C_25  and  N_27
REMARK    6  A    between atoms: C_30  and  O_32
REMARK    7  A    between atoms: O_32  and  C_33
REMARK    8  A    between atoms: C_33  and  C_34
REMARK    9  A    between atoms: C_34  and  O_35
REMARK   10  A    between atoms: O_35  and  C_36
REMARK                            x       y       z     vdW  Elec       q    Type
REMARK                         _______ _______ _______ _____ _____    ______ ____
ROOT
ATOM      1  C   UNL     1      -4.215   1.891   4.727  0.00  0.00    +0.061 C 
ATOM      2  C   UNL     1      -4.809   1.036   3.637  0.00  0.00    +0.016 C 
ATOM      3  C   UNL     1      -4.199   0.961   2.442  0.00  0.00    +0.065 C 
ATOM      4  C   UNL     1      -4.754   0.109   1.337  0.00  0.00    +0.092 C 
ATOM      5  C   UNL     1      -6.200  -0.233   1.593  0.00  0.00    +0.024 C 
ATOM      6  C   UNL     1      -6.730  -0.107   2.828  0.00  0.00    +0.016 C 
ATOM      7  N   UNL     1      -5.966   0.348   3.869  0.00  0.00    -0.321 N 
ATOM      8  C   UNL     1      -8.173  -0.460   3.094  0.00  0.00    +0.059 C 
ATOM      9  C   UNL     1      -9.006  -0.195   1.838  0.00  0.00    +0.032 C 
ATOM     10  C   UNL     1      -8.431  -1.030   0.689  0.00  0.00    +0.088 C 
ATOM     11  C   UNL     1      -6.978  -0.684   0.512  0.00  0.00    +0.162 C 
ATOM     12  O   UNL     1      -6.466  -0.796  -0.585  0.00  0.00    -0.292 OA
ATOM     13  H   UNL     1      -6.293   0.154   4.901  0.00  0.00    +0.152 HD
ENDROOT
BRANCH   9  14
ATOM     14  C   UNL     1     -10.438  -0.595   2.087  0.00  0.00    -0.044 A 
ATOM     15  C   UNL     1     -10.741  -1.898   2.433  0.00  0.00    +0.004 A 
ATOM     16  C   UNL     1     -12.054  -2.263   2.665  0.00  0.00    +0.000 A 
ATOM     17  C   UNL     1     -13.064  -1.327   2.542  0.00  0.00    +0.000 A 
ATOM     18  C   UNL     1     -12.761  -0.025   2.191  0.00  0.00    +0.000 A 
ATOM     19  C   UNL     1     -11.447   0.341   1.963  0.00  0.00    +0.004 A 
ENDBRANCH   9  14
BRANCH   4  20
ATOM     20  C   UNL     1      -3.953  -1.165   1.245  0.00  0.00    -0.033 A 
ATOM     21  C   UNL     1      -3.882  -2.016   2.333  0.00  0.00    +0.005 A 
ATOM     22  C   UNL     1      -3.151  -3.186   2.247  0.00  0.00    +0.003 A 
ATOM     23  C   UNL     1      -2.485  -3.501   1.077  0.00  0.00    +0.033 A 
ATOM     24  C   UNL     1      -2.553  -2.647  -0.008  0.00  0.00    +0.126 A 
ATOM     25  C   UNL     1      -3.287  -1.479   0.076  0.00  0.00    +0.037 A 
BRANCH  24  26
ATOM     26  N   UNL     1      -1.839  -2.984  -1.261  0.00  0.00    +0.056 N 
ATOM     27  O   UNL     1      -1.899  -2.232  -2.217  0.00  0.00    -0.126 OA
ATOM     28  O   UNL     1      -1.193  -4.014  -1.335  0.00  0.00    -0.126 OA
ENDBRANCH  24  26
ENDBRANCH   4  20
BRANCH   3  29
ATOM     29  C   UNL     1      -3.009   1.693   2.222  0.00  0.00    +0.338 C 
ATOM     30  O   UNL     1      -2.613   2.477   3.064  0.00  0.00    -0.245 OA
BRANCH  29  31
ATOM     31  O   UNL     1      -2.313   1.523   1.078  0.00  0.00    -0.458 OA
BRANCH  31  32
ATOM     32  C   UNL     1      -1.121   2.295   0.923  0.00  0.00    +0.273 C 
BRANCH  32  33
ATOM     33  C   UNL     1      -0.474   1.970  -0.425  0.00  0.00    +0.270 C 
BRANCH  33  34
ATOM     34  O   UNL     1      -1.338   2.391  -1.482  0.00  0.00    -0.489 OA
BRANCH  34  35
ATOM     35  C   UNL     1      -0.909   2.173  -2.753  0.00  0.00    +0.121 A 
ATOM     36  C   UNL     1       0.320   1.571  -2.978  0.00  0.00    +0.045 A 
ATOM     37  C   UNL     1       0.751   1.346  -4.271  0.00  0.00    +0.004 A 
ATOM     38  C   UNL     1      -0.037   1.730  -5.341  0.00  0.00    +0.000 A 
ATOM     39  C   UNL     1      -1.260   2.335  -5.119  0.00  0.00    +0.004 A 
ATOM     40  C   UNL     1      -1.698   2.558  -3.828  0.00  0.00    +0.045 A 
ENDBRANCH  34  35
ENDBRANCH  33  34
ENDBRANCH  32  33
ENDBRANCH  31  32
ENDBRANCH  29  31
ENDBRANCH   3  29
TORSDOF 9
