REMARK  Name = ZINC14038912
REMARK  13 active torsions:
REMARK  status: ('A' for Active; 'I' for Inactive)
REMARK    1  A    between atoms: C_1  and  C_2
REMARK    2  A    between atoms: C_4  and  C_34
REMARK    3  A    between atoms: C_6  and  N_8
REMARK    4  A    between atoms: N_8  and  S_9
REMARK    5  A    between atoms: S_9  and  C_12
REMARK    6  A    between atoms: C_15  and  N_18
REMARK    7  A    between atoms: N_18  and  C_19
REMARK    8  A    between atoms: C_19  and  N_21
REMARK    9  A    between atoms: C_22  and  C_24
REMARK   10  A    between atoms: C_27  and  O_30
REMARK   11  A    between atoms: O_30  and  C_31
REMARK   12  A    between atoms: C_31  and  C_32
REMARK   13  A    between atoms: C_31  and  C_33
REMARK                            x       y       z     vdW  Elec       q    Type
REMARK                         _______ _______ _______ _____ _____    ______ ____
ROOT
ATOM      1  C   UNL     1       0.407   4.580   1.846  0.00  0.00    +0.109 A 
ATOM      2  C   UNL     1       1.764   4.476   1.600  0.00  0.00    +0.030 A 
ATOM      3  C   UNL     1       2.452   5.541   1.051  0.00  0.00    +0.025 A 
ATOM      4  C   UNL     1       1.781   6.721   0.757  0.00  0.00    +0.033 A 
ATOM      5  C   UNL     1       0.420   6.825   1.012  0.00  0.00    +0.025 A 
ATOM      6  C   UNL     1      -0.263   5.754   1.556  0.00  0.00    +0.030 A 
ENDROOT
BRANCH   1   7
ATOM      7  S   UNL     1      -0.467   3.217   2.540  0.00  0.00    +0.072 S 
ATOM      8  O   UNL     1      -1.660   3.744   3.105  0.00  0.00    -0.150 OA
ATOM      9  O   UNL     1       0.475   2.476   3.303  0.00  0.00    -0.150 OA
BRANCH   7  10
ATOM     10  N   UNL     1      -0.930   2.242   1.283  0.00  0.00    -0.216 N 
ATOM     11  H   UNL     1      -1.872   2.094   1.106  0.00  0.00    +0.174 HD
BRANCH  10  17
ATOM     12  C   UNL     1       1.482   2.013  -2.993  0.00  0.00    +0.044 C 
ATOM     13  C   UNL     1       1.225   1.499  -1.599  0.00  0.00    -0.048 A 
ATOM     14  C   UNL     1       1.944   0.420  -1.117  0.00  0.00    +0.006 A 
ATOM     15  C   UNL     1       1.711  -0.054   0.161  0.00  0.00    -0.048 A 
ATOM     16  C   UNL     1       0.760   0.549   0.960  0.00  0.00    +0.028 A 
ATOM     17  C   UNL     1       0.037   1.633   0.479  0.00  0.00    +0.049 A 
ATOM     18  C   UNL     1       0.273   2.107  -0.805  0.00  0.00    +0.028 A 
ATOM     19  C   UNL     1       2.497  -1.229   0.682  0.00  0.00    +0.044 C 
ENDBRANCH  10  17
ENDBRANCH   7  10
ENDBRANCH   1   7
BRANCH   4  20
ATOM     20  N   UNL     1       2.475   7.803   0.206  0.00  0.00    -0.297 N 
ATOM     21  H   UNL     1       3.140   7.652  -0.483  0.00  0.00    +0.154 HD
BRANCH  20  22
ATOM     22  C   UNL     1       2.220   9.056   0.633  0.00  0.00    +0.141 C 
ATOM     23  S   UNL     1       1.147   9.312   1.942  0.00  0.00    -0.018 S 
BRANCH  22  24
ATOM     24  N   UNL     1       2.809  10.107   0.030  0.00  0.00    -0.264 N 
ATOM     25  C   UNL     1       2.554  11.360   0.457  0.00  0.00    +0.250 C 
ATOM     26  O   UNL     1       1.792  11.541   1.386  0.00  0.00    -0.270 OA
ATOM     27  H   UNL     1       3.417   9.962  -0.712  0.00  0.00    +0.157 HD
BRANCH  25  28
ATOM     28  C   UNL     1       3.199  12.510  -0.204  0.00  0.00    +0.037 A 
ATOM     29  C   UNL     1       4.080  12.303  -1.269  0.00  0.00    +0.016 A 
ATOM     30  C   UNL     1       4.675  13.380  -1.887  0.00  0.00    +0.046 A 
ATOM     31  C   UNL     1       4.411  14.671  -1.444  0.00  0.00    +0.121 A 
ATOM     32  C   UNL     1       3.540  14.881  -0.382  0.00  0.00    +0.046 A 
ATOM     33  C   UNL     1       2.936  13.810   0.238  0.00  0.00    +0.016 A 
BRANCH  31  34
ATOM     34  O   UNL     1       5.004  15.729  -2.052  0.00  0.00    -0.489 OA
BRANCH  34  35
ATOM     35  C   UNL     1       4.598  17.032  -1.628  0.00  0.00    +0.167 C 
ATOM     36  C   UNL     1       5.390  17.432  -0.382  0.00  0.00    +0.051 C 
ATOM     37  C   UNL     1       4.867  18.040  -2.748  0.00  0.00    +0.051 C 
ENDBRANCH  34  35
ENDBRANCH  31  34
ENDBRANCH  25  28
ENDBRANCH  22  24
ENDBRANCH  20  22
ENDBRANCH   4  20
TORSDOF 9
