REMARK  Name = ZINC62953430
REMARK  4 active torsions:
REMARK  status: ('A' for Active; 'I' for Inactive)
REMARK    1  A    between atoms: C_2  and  N_21
REMARK    2  A    between atoms: C_4  and  S_17
REMARK    3  A    between atoms: C_6  and  N_7
REMARK    4  A    between atoms: S_17  and  N_20
REMARK                            x       y       z     vdW  Elec       q    Type
REMARK                         _______ _______ _______ _____ _____    ______ ____
ROOT
ATOM      1  C   UNL     1       1.214  -0.680   0.003  0.00  0.00    +0.046 A 
ATOM      2  C   UNL     1       2.404   0.035  -0.005  0.00  0.00    +0.028 A 
ATOM      3  C   UNL     1       2.377   1.424  -0.015  0.00  0.00    +0.051 A 
ATOM      4  C   UNL     1       1.169   2.094  -0.016  0.00  0.00    +0.108 A 
ATOM      5  C   UNL     1      -0.017   1.386  -0.007  0.00  0.00    +0.051 A 
ATOM      6  C   UNL     1       0.002  -0.004   0.002  0.00  0.00    +0.033 A 
ENDROOT
BRANCH   6   7
ATOM      7  N   UNL     1      -1.197  -0.720   0.010  0.00  0.00    -0.330 N 
ATOM      8  C   UNL     1      -1.195  -2.185  -0.102  0.00  0.00    +0.105 C 
ATOM      9  C   UNL     1      -2.104  -2.591  -1.268  0.00  0.00    +0.026 C 
ATOM     10  C   UNL     1      -3.479  -1.962  -1.081  0.00  0.00    -0.026 C 
ATOM     11  C   UNL     1      -4.420  -2.399  -2.224  0.00  0.00    +0.007 C 
ATOM     12  C   UNL     1      -5.826  -2.231  -1.592  0.00  0.00    +0.001 C 
ATOM     13  C   UNL     1      -5.638  -2.673  -0.125  0.00  0.00    +0.001 C 
ATOM     14  C   UNL     1      -4.143  -2.494   0.199  0.00  0.00    +0.007 C 
ATOM     15  C   UNL     1      -3.384  -0.441  -1.037  0.00  0.00    +0.026 C 
ATOM     16  C   UNL     1      -2.484  -0.021   0.137  0.00  0.00    +0.105 C 
ENDBRANCH   6   7
BRANCH   4  17
ATOM     17  S   UNL     1       1.140   3.856  -0.029  0.00  0.00    +0.056 S 
ATOM     18  O   UNL     1      -0.110   4.246   0.523  0.00  0.00    -0.153 OA
ATOM     19  O   UNL     1       2.381   4.286   0.516  0.00  0.00    -0.153 OA
BRANCH  17  20
ATOM     20  N   UNL     1       1.128   4.334  -1.614  0.00  0.00    -0.204 NA
ATOM     21  H   UNL     1       1.137   3.670  -2.321  0.00  0.00    +0.144 HD
ATOM     22  H   UNL     1       1.112   5.278  -1.835  0.00  0.00    +0.144 HD
ENDBRANCH  17  20
ENDBRANCH   4  17
BRANCH   2  23
ATOM     23  N   UNL     1       3.626  -0.641  -0.004  0.00  0.00    -0.358 N 
ATOM     24  H   UNL     1       3.643  -1.611   0.004  0.00  0.00    +0.142 HD
ATOM     25  H   UNL     1       4.457  -0.141  -0.009  0.00  0.00    +0.142 HD
ENDBRANCH   2  23
TORSDOF 4
