REMARK  Name = ZINC37332221
REMARK  4 active torsions:
REMARK  status: ('A' for Active; 'I' for Inactive)
REMARK    1  A    between atoms: C_1  and  C_2
REMARK    2  A    between atoms: C_7  and  C_8
REMARK    3  A    between atoms: C_8  and  C_10
REMARK    4  A    between atoms: C_8  and  N_21
REMARK                            x       y       z     vdW  Elec       q    Type
REMARK                         _______ _______ _______ _____ _____    ______ ____
ROOT
ATOM      1  C   UNL     1       0.035   0.230   2.389  0.00  0.00    -0.012 C 
ENDROOT
BRANCH   1   2
ATOM      2  C   UNL     1       1.389   0.850   2.620  0.00  0.00    -0.036 A 
ATOM      3  C   UNL     1       2.345   0.169   3.351  0.00  0.00    +0.053 A 
ATOM      4  C   UNL     1       3.592   0.736   3.564  0.00  0.00    +0.162 A 
ATOM      5  C   UNL     1       3.880   1.990   3.038  0.00  0.00    +0.163 A 
ATOM      6  C   UNL     1       2.918   2.670   2.307  0.00  0.00    +0.069 A 
ATOM      7  C   UNL     1       1.677   2.096   2.094  0.00  0.00    +0.047 A 
ATOM      8 CL   UNL     1       0.476   2.946   1.172  0.00  0.00    -0.083 Cl
ATOM      9  O   UNL     1       5.101   2.561   3.229  0.00  0.00    -0.485 OA
ATOM     10  C   UNL     1       5.909   2.017   4.277  0.00  0.00    +0.270 C 
ATOM     11  C   UNL     1       5.879   0.487   4.163  0.00  0.00    +0.270 C 
ATOM     12  O   UNL     1       4.520   0.054   4.289  0.00  0.00    -0.485 OA
ENDBRANCH   1   2
BRANCH   1  19
ATOM     13  C   UNL     1      -2.470  -0.436   1.113  0.00  0.00    +0.044 C 
ATOM     14  C   UNL     1      -1.166  -0.813   0.457  0.00  0.00    -0.049 A 
ATOM     15  C   UNL     1      -1.169  -1.472  -0.759  0.00  0.00    +0.003 A 
ATOM     16  C   UNL     1       0.027  -1.817  -1.360  0.00  0.00    +0.000 A 
ATOM     17  C   UNL     1       1.226  -1.503  -0.747  0.00  0.00    +0.000 A 
ATOM     18  C   UNL     1       1.228  -0.843   0.468  0.00  0.00    +0.002 A 
ATOM     19  C   UNL     1       0.032  -0.494   1.067  0.00  0.00    -0.055 A 
ENDBRANCH   1  19
BRANCH   1  20
ATOM     20  N   UNL     1      -0.258  -0.721   3.469  0.00  0.00    +0.385 N 
ATOM     21  H   UNL     1       0.392  -1.492   3.424  0.00  0.00    -0.089 HD
ATOM     22  H   UNL     1      -0.168  -0.257   4.361  0.00  0.00    -0.089 HD
ATOM     23  H   UNL     1      -1.200  -1.069   3.365  0.00  0.00    -0.089 HD
ENDBRANCH   1  20
TORSDOF 3
