REMARK  Name = ZINC20617254
REMARK  14 active torsions:
REMARK  status: ('A' for Active; 'I' for Inactive)
REMARK    1  A    between atoms: C_1  and  C_2
REMARK    2  A    between atoms: C_6  and  C_18
REMARK    3  A    between atoms: N_8  and  C_9
REMARK    4  A    between atoms: C_13  and  O_15
REMARK    5  A    between atoms: O_15  and  C_16
REMARK    6  A    between atoms: N_20  and  C_21
REMARK    7  A    between atoms: C_24  and  O_29
REMARK    8  A    between atoms: C_26  and  O_27
REMARK    9  A    between atoms: O_27  and  C_28
REMARK   10  A    between atoms: O_29  and  C_30
REMARK   11  A    between atoms: C_31  and  C_34
REMARK   12  A    between atoms: C_34  and  O_35
REMARK   13  A    between atoms: O_35  and  C_36
REMARK   14  A    between atoms: C_36  and  C_38
REMARK                            x       y       z     vdW  Elec       q    Type
REMARK                         _______ _______ _______ _____ _____    ______ ____
ROOT
ATOM      1  C   UNL     1       2.340   5.423   0.479  0.00  0.00    +0.069 C 
ATOM      2  C   UNL     1       2.355   3.942   0.198  0.00  0.00    +0.081 A 
ATOM      3  C   UNL     1       1.169   3.222   0.228  0.00  0.00    +0.159 A 
ATOM      4  C   UNL     1       1.209   1.840  -0.040  0.00  0.00    +0.028 A 
ATOM      5  C   UNL     1      -0.032   1.063  -0.018  0.00  0.00    +0.030 A 
ATOM      6  C   UNL     1      -1.217   1.765  -0.004  0.00  0.00    +0.098 A 
ATOM      7  C   UNL     1      -1.130   3.240  -0.002  0.00  0.00    +0.212 A 
ATOM      8  N   UNL     1      -2.107   3.973  -0.489  0.00  0.00    -0.325 N 
ATOM      9  O   UNL     1      -0.013   3.818   0.511  0.00  0.00    -0.437 OA
ATOM     10  C   UNL     1       2.445   1.248  -0.323  0.00  0.00    +0.018 A 
ATOM     11  C   UNL     1       3.571   2.045  -0.329  0.00  0.00    +0.118 A 
ATOM     12  N   UNL     1       3.494   3.338  -0.075  0.00  0.00    -0.256 NA
ATOM     13  H   UNL     1      -3.038   3.494  -0.825  0.00  0.00    +0.169 HD
ENDROOT
BRANCH   8  14
ATOM     14  C   UNL     1      -1.964   5.330  -0.579  0.00  0.00    +0.045 A 
ATOM     15  C   UNL     1      -2.261   6.140   0.520  0.00  0.00    +0.026 A 
ATOM     16  C   UNL     1      -2.111   7.508   0.428  0.00  0.00    +0.006 A 
ATOM     17  C   UNL     1      -1.678   8.082  -0.753  0.00  0.00    +0.046 A 
ATOM     18  C   UNL     1      -1.385   7.286  -1.853  0.00  0.00    +0.122 A 
ATOM     19  C   UNL     1      -1.527   5.911  -1.770  0.00  0.00    +0.071 A 
BRANCH  18  20
ATOM     20  O   UNL     1      -0.960   7.857  -3.010  0.00  0.00    -0.495 OA
ATOM     21  C   UNL     1      -0.837   9.280  -3.025  0.00  0.00    +0.277 C 
ENDBRANCH  18  20
ENDBRANCH   8  14
BRANCH   6  22
ATOM     22  C   UNL     1      -2.519   1.074   0.015  0.00  0.00    +0.253 C 
ATOM     23  O   UNL     1      -2.562  -0.142   0.018  0.00  0.00    -0.270 OA
ATOM     24  N   UNL     1      -3.662   1.789   0.029  0.00  0.00    -0.278 N 
ATOM     25  H   UNL     1      -3.625   2.885  -0.047  0.00  0.00    +0.155 HD
BRANCH  24  26
ATOM     26  C   UNL     1      -4.897   1.134   0.140  0.00  0.00    +0.076 A 
ATOM     27  C   UNL     1      -5.081  -0.107  -0.452  0.00  0.00    +0.030 A 
ATOM     28  C   UNL     1      -6.296  -0.754  -0.338  0.00  0.00    +0.047 A 
ATOM     29  C   UNL     1      -7.338  -0.160   0.360  0.00  0.00    +0.124 A 
ATOM     30  C   UNL     1      -7.161   1.083   0.949  0.00  0.00    +0.093 A 
ATOM     31  C   UNL     1      -5.942   1.732   0.841  0.00  0.00    +0.145 A 
BRANCH  31  32
ATOM     32  O   UNL     1      -5.766   2.951   1.417  0.00  0.00    -0.493 OA
ATOM     33  C   UNL     1      -6.881   3.503   2.120  0.00  0.00    +0.277 C 
ENDBRANCH  31  32
BRANCH  29  34
ATOM     34  O   UNL     1      -8.534  -0.798   0.466  0.00  0.00    -0.495 OA
ATOM     35  C   UNL     1      -8.647  -2.075  -0.165  0.00  0.00    +0.277 C 
ENDBRANCH  29  34
ENDBRANCH  24  26
ENDBRANCH   6  22
BRANCH  10  36
ATOM     36  C   UNL     1       2.544  -0.228  -0.615  0.00  0.00    +0.269 C 
BRANCH  36  37
ATOM     37  O   UNL     1       3.929  -0.578  -0.873  0.00  0.00    -0.460 OA
BRANCH  37  38
ATOM     38  C   UNL     1       4.190  -1.865  -1.152  0.00  0.00    +0.304 C 
ATOM     39  O   UNL     1       3.291  -2.672  -1.179  0.00  0.00    -0.251 OA
ATOM     40  C   UNL     1       5.605  -2.304  -1.430  0.00  0.00    +0.136 C 
ENDBRANCH  37  38
ENDBRANCH  36  37
ENDBRANCH  10  36
TORSDOF 9
