REMARK  Name = ZINC42315599
REMARK  6 active torsions:
REMARK  status: ('A' for Active; 'I' for Inactive)
REMARK    1  A    between atoms: C_1  and  C_2
REMARK    2  A    between atoms: C_2  and  C_4
REMARK    3  A    between atoms: C_2  and  N_11
REMARK    4  A    between atoms: N_11  and  C_12
REMARK    5  A    between atoms: C_12  and  C_13
REMARK    6  A    between atoms: C_16  and  C_19
REMARK                            x       y       z     vdW  Elec       q    Type
REMARK                         _______ _______ _______ _____ _____    ______ ____
ROOT
ATOM      1  N   UNL     1       0.713  -0.491   1.192  0.00  0.00    +0.386 N 
ATOM      2  H   UNL     1       0.290  -0.099   2.020  0.00  0.00    -0.085 HD
ATOM      3  H   UNL     1       0.655  -1.497   1.230  0.00  0.00    -0.085 HD
ENDROOT
BRANCH   1   5
ATOM      4  C   UNL     1      -0.019   1.526   0.010  0.00  0.00    -0.009 C 
ATOM      5  C   UNL     1       0.002  -0.004   0.002  0.00  0.00    -0.044 C 
BRANCH   5   6
ATOM      6  C   UNL     1      -1.412  -0.526   0.013  0.00  0.00    -0.062 A 
ATOM      7  C   UNL     1      -2.123  -0.571   1.198  0.00  0.00    +0.003 A 
ATOM      8  C   UNL     1      -3.420  -1.049   1.208  0.00  0.00    +0.015 A 
ATOM      9  C   UNL     1      -4.006  -1.482   0.032  0.00  0.00    +0.018 A 
ATOM     10  C   UNL     1      -3.294  -1.437  -1.153  0.00  0.00    +0.015 A 
ATOM     11  C   UNL     1      -1.999  -0.954  -1.163  0.00  0.00    +0.003 A 
ATOM     12 BR   UNL     1      -5.780  -2.136   0.046  0.00  0.00    -0.050 Br
ENDBRANCH   5   6
ENDBRANCH   1   5
BRANCH   1  13
ATOM     13  C   UNL     1       2.122  -0.083   1.122  0.00  0.00    -0.046 C 
BRANCH  13  14
ATOM     14  C   UNL     1       2.851  -0.582   2.343  0.00  0.00    -0.064 A 
ATOM     15  C   UNL     1       2.913   0.206   3.478  0.00  0.00    +0.002 A 
ATOM     16  C   UNL     1       3.578  -0.245   4.599  0.00  0.00    +0.013 A 
ATOM     17  C   UNL     1       4.190  -1.499   4.586  0.00  0.00    +0.037 A 
ATOM     18  C   UNL     1       4.124  -2.289   3.438  0.00  0.00    +0.013 A 
ATOM     19  C   UNL     1       3.450  -1.829   2.325  0.00  0.00    +0.002 A 
BRANCH  17  20
ATOM     20  C   UNL     1       4.906  -1.989   5.784  0.00  0.00    +0.242 C 
ATOM     21  O   UNL     1       4.962  -1.298   6.783  0.00  0.00    -0.270 OA
ATOM     22  N   UNL     1       5.495  -3.200   5.768  0.00  0.00    -0.325 N 
ATOM     23  H   UNL     1       5.450  -3.751   4.971  0.00  0.00    +0.145 HD
ATOM     24  H   UNL     1       5.965  -3.522   6.554  0.00  0.00    +0.145 HD
ENDBRANCH  17  20
ENDBRANCH  13  14
ENDBRANCH   1  13
TORSDOF 5
