REMARK  Name = ZINC44802317
REMARK  5 active torsions:
REMARK  status: ('A' for Active; 'I' for Inactive)
REMARK    1  A    between atoms: C_1  and  C_2
REMARK    2  A    between atoms: C_2  and  C_4
REMARK    3  A    between atoms: C_2  and  C_6
REMARK    4  A    between atoms: C_4  and  N_5
REMARK    5  A    between atoms: N_8  and  C_9
REMARK                            x       y       z     vdW  Elec       q    Type
REMARK                         _______ _______ _______ _____ _____    ______ ____
ROOT
ATOM      1  C   UNL     1       0.707  -0.490  -1.238  0.00  0.00    +0.214 C 
ATOM      2  O   UNL     1       1.704  -1.174  -1.140  0.00  0.00    -0.276 OA
ATOM      3  N   UNL     1       0.231  -0.164  -2.456  0.00  0.00    -0.312 N 
ATOM      4  H   UNL     1      -0.566   0.383  -2.534  0.00  0.00    +0.149 HD
ENDROOT
BRANCH   3   5
ATOM      5  C   UNL     1       0.917  -0.637  -3.661  0.00  0.00    +0.077 C 
ATOM      6  C   UNL     1       0.420  -2.041  -4.016  0.00  0.00    +0.050 C 
ATOM      7  C   UNL     1       1.083  -2.495  -5.319  0.00  0.00    +0.161 C 
ATOM      8  O   UNL     1       0.787  -1.555  -6.354  0.00  0.00    -0.380 OA
ATOM      9  C   UNL     1       1.270  -0.234  -6.099  0.00  0.00    +0.161 C 
ATOM     10  C   UNL     1       0.614   0.310  -4.827  0.00  0.00    +0.050 C 
ENDBRANCH   3   5
BRANCH   1  12
ATOM     11  C   UNL     1      -0.019   1.526   0.010  0.00  0.00    +0.015 C 
ATOM     12  C   UNL     1       0.002  -0.004   0.002  0.00  0.00    +0.054 C 
BRANCH  12  13
ATOM     13  C   UNL     1       0.742  -0.511   1.242  0.00  0.00    -0.074 C 
BRANCH  13  14
ATOM     14  N   UNL     1      -0.010  -0.139   2.447  0.00  0.00    +0.379 N 
ATOM     15  H   UNL     1      -0.096   0.865   2.494  0.00  0.00    -0.090 HD
ATOM     16  H   UNL     1      -0.929  -0.554   2.411  0.00  0.00    -0.090 HD
ATOM     17  H   UNL     1       0.478  -0.473   3.265  0.00  0.00    -0.090 HD
ENDBRANCH  13  14
ENDBRANCH  12  13
ENDBRANCH   1  12
TORSDOF 4
