REMARK  Name = ZINC40777731
REMARK  5 active torsions:
REMARK  status: ('A' for Active; 'I' for Inactive)
REMARK    1  A    between atoms: C_4  and  N_7
REMARK    2  A    between atoms: N_7  and  C_8
REMARK    3  A    between atoms: N_7  and  N_14
REMARK    4  A    between atoms: C_16  and  N_27
REMARK    5  A    between atoms: C_17  and  N_21
REMARK                            x       y       z     vdW  Elec       q    Type
REMARK                         _______ _______ _______ _____ _____    ______ ____
ROOT
ATOM      1  N   UNL     1       4.728   0.036  -0.552  0.00  0.00    -0.243 N 
ATOM      2  C   UNL     1       5.575   0.730   0.304  0.00  0.00    +0.139 A 
ATOM      3  C   UNL     1       6.680   1.421  -0.197  0.00  0.00    +0.105 A 
ATOM      4  C   UNL     1       7.498   2.101   0.706  0.00  0.00    +0.150 A 
ATOM      5  N   UNL     1       7.196   2.065   2.002  0.00  0.00    -0.221 NA
ATOM      6  C   UNL     1       6.144   1.400   2.434  0.00  0.00    +0.200 A 
ATOM      7  N   UNL     1       5.343   0.750   1.614  0.00  0.00    -0.332 N 
ATOM      8  H   UNL     1       4.905   0.027  -1.506  0.00  0.00    +0.172 HD
ATOM      9  H   UNL     1       4.576   0.276   1.971  0.00  0.00    +0.168 HD
ENDROOT
BRANCH   4  10
ATOM     10  N   UNL     1       8.611   2.806   0.260  0.00  0.00    -0.277 N 
ATOM     11  C   UNL     1       9.417   3.478   1.167  0.00  0.00    +0.163 A 
ATOM     12  N   UNL     1       9.288   3.554   2.475  0.00  0.00    -0.233 NA
ATOM     13  C   UNL     1      10.148   4.241   3.206  0.00  0.00    +0.120 A 
ATOM     14  C   UNL     1      11.161   4.856   2.549  0.00  0.00    +0.068 A 
ATOM     15  S   UNL     1      10.800   4.386   0.865  0.00  0.00    -0.061 S 
ATOM     16  H   UNL     1       8.824   2.827  -0.686  0.00  0.00    +0.156 HD
ENDBRANCH   4  10
BRANCH   3  17
ATOM     17  N   UNL     1       6.960   1.432  -1.573  0.00  0.00    -0.353 N 
ATOM     18  H   UNL     1       6.383   0.955  -2.189  0.00  0.00    +0.143 HD
ATOM     19  H   UNL     1       7.731   1.917  -1.907  0.00  0.00    +0.143 HD
ENDBRANCH   3  17
BRANCH   1  20
ATOM     20  N   UNL     1       3.620  -0.649  -0.037  0.00  0.00    -0.221 N 
BRANCH  20  24
ATOM     21  C   UNL     1       0.255   1.467   1.201  0.00  0.00    +0.000 A 
ATOM     22  C   UNL     1       0.354   0.113   1.466  0.00  0.00    +0.002 A 
ATOM     23  C   UNL     1       1.469  -0.592   1.056  0.00  0.00    +0.025 A 
ATOM     24  C   UNL     1       2.491   0.061   0.378  0.00  0.00    +0.053 A 
ATOM     25  C   UNL     1       2.387   1.421   0.114  0.00  0.00    +0.025 A 
ATOM     26  C   UNL     1       1.270   2.119   0.526  0.00  0.00    +0.002 A 
ENDBRANCH  20  24
BRANCH  20  27
ATOM     27  C   UNL     1       3.644  -2.043   0.060  0.00  0.00    +0.053 A 
ATOM     28  C   UNL     1       2.640  -2.800  -0.530  0.00  0.00    +0.025 A 
ATOM     29  C   UNL     1       2.667  -4.177  -0.431  0.00  0.00    +0.002 A 
ATOM     30  C   UNL     1       3.692  -4.803   0.254  0.00  0.00    +0.000 A 
ATOM     31  C   UNL     1       4.693  -4.052   0.843  0.00  0.00    +0.002 A 
ATOM     32  C   UNL     1       4.676  -2.675   0.743  0.00  0.00    +0.025 A 
ENDBRANCH  20  27
ENDBRANCH   1  20
TORSDOF 5
