REMARK  Name = ZINC64623203
REMARK  4 active torsions:
REMARK  status: ('A' for Active; 'I' for Inactive)
REMARK    1  A    between atoms: C_1  and  O_2
REMARK    2  A    between atoms: O_2  and  C_3
REMARK    3  A    between atoms: C_10  and  C_30
REMARK    4  A    between atoms: N_20  and  C_21
REMARK                            x       y       z     vdW  Elec       q    Type
REMARK                         _______ _______ _______ _____ _____    ______ ____
ROOT
ATOM      1  C   UNL     1       2.131  -0.277   1.317  0.00  0.00    +0.121 A 
ATOM      2  C   UNL     1       2.292   0.357   2.561  0.00  0.00    +0.047 A 
ATOM      3  C   UNL     1       2.333  -0.328   3.724  0.00  0.00    +0.029 A 
ATOM      4  C   UNL     1       2.208  -1.788   3.716  0.00  0.00    +0.043 A 
ATOM      5  N   UNL     1       2.197  -2.671   4.687  0.00  0.00    -0.375 N 
ATOM      6  C   UNL     1       2.118  -4.006   4.099  0.00  0.00    +0.131 C 
ATOM      7  C   UNL     1       0.902  -4.786   4.611  0.00  0.00    +0.134 C 
ATOM      8  N   UNL     1       0.672  -5.915   3.697  0.00  0.00    -0.276 N 
ATOM      9  C   UNL     1       0.397  -5.681   2.275  0.00  0.00    +0.114 C 
ATOM     10  C   UNL     1       1.565  -4.894   1.653  0.00  0.00    +0.052 C 
ATOM     11  C   UNL     1       1.924  -3.779   2.609  0.00  0.00    -0.035 C 
ATOM     12  C   UNL     1       2.030  -2.459   2.404  0.00  0.00    +0.003 A 
ATOM     13  C   UNL     1       1.997  -1.620   1.201  0.00  0.00    +0.055 A 
ATOM     14  C   UNL     1       0.714  -7.177   4.170  0.00  0.00    +0.307 C 
ATOM     15  O   UNL     1       0.827  -7.375   5.364  0.00  0.00    -0.252 OA
ATOM     16  N   UNL     1       0.633  -8.219   3.319  0.00  0.00    -0.269 N 
ATOM     17  H   UNL     1       0.624  -8.063   2.361  0.00  0.00    +0.156 HD
ATOM     18  H   UNL     1       2.235  -2.471   5.635  0.00  0.00    +0.160 HD
ENDROOT
BRANCH  16  19
ATOM     19  C   UNL     1       0.560  -9.526   3.817  0.00  0.00    +0.038 A 
ATOM     20  C   UNL     1       1.001  -9.804   5.104  0.00  0.00    +0.027 A 
ATOM     21  C   UNL     1       0.930 -11.093   5.597  0.00  0.00    +0.051 A 
ATOM     22  C   UNL     1       0.419 -12.112   4.809  0.00  0.00    +0.166 A 
ATOM     23  C   UNL     1      -0.024 -11.836   3.517  0.00  0.00    +0.168 A 
ATOM     24  C   UNL     1       0.043 -10.543   3.026  0.00  0.00    +0.073 A 
ATOM     25  O   UNL     1      -0.477 -12.994   2.954  0.00  0.00    -0.453 OA
ATOM     26  C   UNL     1       0.070 -14.054   3.762  0.00  0.00    +0.466 C 
ATOM     27  O   UNL     1       0.244 -13.444   5.054  0.00  0.00    -0.453 OA
ENDBRANCH  16  19
BRANCH   7  28
ATOM     28  C   UNL     1      -0.308  -3.889   4.630  0.00  0.00    -0.025 A 
ATOM     29  C   UNL     1      -0.867  -3.507   5.836  0.00  0.00    +0.008 A 
ATOM     30  C   UNL     1      -1.976  -2.684   5.855  0.00  0.00    +0.038 A 
ATOM     31  C   UNL     1      -2.529  -2.241   4.665  0.00  0.00    +0.123 A 
ATOM     32  C   UNL     1      -1.969  -2.624   3.458  0.00  0.00    +0.038 A 
ATOM     33  C   UNL     1      -0.856  -3.443   3.442  0.00  0.00    +0.008 A 
ATOM     34  F   UNL     1      -3.615  -1.437   4.682  0.00  0.00    -0.205 F 
ENDBRANCH   7  28
BRANCH   1  36
ATOM     35  C   UNL     1       2.247   1.896   0.359  0.00  0.00    +0.277 C 
ATOM     36  O   UNL     1       2.103   0.484   0.191  0.00  0.00    -0.495 OA
ENDBRANCH   1  36
TORSDOF 3
