REMARK  Name = ZINC09596481
REMARK  9 active torsions:
REMARK  status: ('A' for Active; 'I' for Inactive)
REMARK    1  A    between atoms: C_1  and  O_2
REMARK    2  A    between atoms: O_2  and  C_3
REMARK    3  A    between atoms: C_8  and  O_9
REMARK    4  A    between atoms: O_9  and  C_10
REMARK    5  A    between atoms: C_11  and  C_31
REMARK    6  A    between atoms: C_15  and  C_16
REMARK    7  A    between atoms: C_15  and  N_64
REMARK    8  A    between atoms: N_18  and  C_19
REMARK    9  A    between atoms: C_22  and  N_25
REMARK                            x       y       z     vdW  Elec       q    Type
REMARK                         _______ _______ _______ _____ _____    ______ ____
ROOT
ATOM      1  C   UNL     1      -1.824   0.707   2.027  0.00  0.00    +0.162 A 
ATOM      2  C   UNL     1      -2.387  -0.080   1.038  0.00  0.00    +0.053 A 
ATOM      3  C   UNL     1      -3.739  -0.387   1.069  0.00  0.00    -0.043 A 
ATOM      4  C   UNL     1      -4.533   0.103   2.085  0.00  0.00    -0.049 A 
ATOM      5  C   UNL     1      -3.974   0.896   3.077  0.00  0.00    +0.052 A 
ATOM      6  C   UNL     1      -2.625   1.200   3.054  0.00  0.00    +0.162 A 
ATOM      7  C   UNL     1      -6.008  -0.194   2.154  0.00  0.00    +0.001 C 
ATOM      8  C   UNL     1      -5.826  -1.133  -0.059  0.00  0.00    -0.072 C 
ATOM      9  C   UNL     1      -4.302  -1.257  -0.025  0.00  0.00    +0.017 C 
ATOM     10  N   UNL     1      -6.327  -1.360   1.313  0.00  0.00    +0.393 N 
ATOM     11  H   UNL     1      -5.870  -2.192   1.704  0.00  0.00    -0.080 HD
ENDROOT
BRANCH   7  12
ATOM     12  C   UNL     1      -6.387  -0.505   3.579  0.00  0.00    -0.019 A 
ATOM     13  C   UNL     1      -6.970   0.299   4.501  0.00  0.00    +0.010 A 
ATOM     14  C   UNL     1      -7.229  -0.205   5.762  0.00  0.00    +0.008 A 
ATOM     15  C   UNL     1      -6.892  -1.489   6.038  0.00  0.00    +0.045 A 
ATOM     16  S   UNL     1      -6.192  -2.029   4.487  0.00  0.00    -0.103 S 
ENDBRANCH   7  12
BRANCH   1  18
ATOM     17  C   UNL     1       0.261   0.460   0.911  0.00  0.00    +0.277 C 
ATOM     18  O   UNL     1      -0.497   1.001   1.995  0.00  0.00    -0.491 OA
ENDBRANCH   1  18
BRANCH   6  19
ATOM     19  O   UNL     1      -2.083   1.976   4.030  0.00  0.00    -0.491 OA
ATOM     20  C   UNL     1      -2.965   2.446   5.051  0.00  0.00    +0.277 C 
ENDBRANCH   6  19
BRANCH  10  21
ATOM     21  C   UNL     1      -7.790  -1.583   1.288  0.00  0.00    +0.020 C 
BRANCH  21  22
ATOM     22  C   UNL     1      -8.073  -2.901   0.614  0.00  0.00    +0.201 C 
ATOM     23  O   UNL     1      -7.157  -3.573   0.189  0.00  0.00    -0.278 OA
ATOM     24  N   UNL     1      -9.343  -3.332   0.484  0.00  0.00    -0.287 N 
ATOM     25  H   UNL     1     -10.069  -2.833   0.890  0.00  0.00    +0.155 HD
BRANCH  24  26
ATOM     26  C   UNL     1      -9.615  -4.500  -0.239  0.00  0.00    +0.033 A 
ATOM     27  C   UNL     1      -8.834  -4.836  -1.337  0.00  0.00    +0.025 A 
ATOM     28  C   UNL     1      -9.100  -5.990  -2.046  0.00  0.00    +0.025 A 
ATOM     29  C   UNL     1     -10.154  -6.811  -1.667  0.00  0.00    +0.036 A 
ATOM     30  C   UNL     1     -10.938  -6.473  -0.572  0.00  0.00    +0.025 A 
ATOM     31  C   UNL     1     -10.670  -5.321   0.140  0.00  0.00    +0.025 A 
BRANCH  29  32
ATOM     32  N   UNL     1     -10.425  -7.980  -2.389  0.00  0.00    -0.271 N 
ATOM     33  C   UNL     1      -9.593  -8.489  -3.485  0.00  0.00    +0.114 C 
ATOM     34  C   UNL     1     -10.010  -9.967  -3.666  0.00  0.00    +0.029 C 
ATOM     35  C   UNL     1     -11.458  -9.952  -3.123  0.00  0.00    +0.098 C 
ATOM     36  C   UNL     1     -11.485  -8.777  -2.170  0.00  0.00    +0.220 C 
ATOM     37  O   UNL     1     -12.339  -8.584  -1.330  0.00  0.00    -0.275 OA
ENDBRANCH  29  32
ENDBRANCH  24  26
ENDBRANCH  21  22
ENDBRANCH  10  21
TORSDOF 7
