REMARK  Name = ZINC54851009
REMARK  11 active torsions:
REMARK  status: ('A' for Active; 'I' for Inactive)
REMARK    1  A    between atoms: C_1  and  C_2
REMARK    2  A    between atoms: C_2  and  O_3
REMARK    3  A    between atoms: O_3  and  C_4
REMARK    4  A    between atoms: C_5  and  N_11
REMARK    5  A    between atoms: C_12  and  C_14
REMARK    6  A    between atoms: N_16  and  C_17
REMARK    7  A    between atoms: C_17  and  C_18
REMARK    8  A    between atoms: C_18  and  C_20
REMARK    9  A    between atoms: C_18  and  N_25
REMARK   10  A    between atoms: N_25  and  C_26
REMARK   11  A    between atoms: N_25  and  C_27
REMARK                            x       y       z     vdW  Elec       q    Type
REMARK                         _______ _______ _______ _____ _____    ______ ____
ROOT
ATOM      1  C   UNL     1      -3.585  -1.964   3.426  0.00  0.00    +0.299 C 
ATOM      2  O   UNL     1      -3.622  -0.754   3.355  0.00  0.00    -0.265 OA
ATOM      3  N   UNL     1      -4.584  -2.634   4.035  0.00  0.00    -0.309 N 
ATOM      4  H   UNL     1      -4.555  -3.602   4.093  0.00  0.00    +0.149 HD
ENDROOT
BRANCH   1   6
ATOM      5  N   UNL     1      -1.435  -2.043   2.231  0.00  0.00    -0.275 N 
ATOM      6  C   UNL     1      -2.433  -2.713   2.840  0.00  0.00    +0.303 C 
ATOM      7  O   UNL     1      -2.397  -3.924   2.912  0.00  0.00    -0.265 OA
ATOM      8  H   UNL     1      -1.429  -1.073   2.235  0.00  0.00    +0.155 HD
BRANCH   5  10
ATOM      9  C   UNL     1       0.184  -2.231   0.443  0.00  0.00    +0.160 A 
ATOM     10  C   UNL     1      -0.407  -2.747   1.595  0.00  0.00    +0.077 A 
ATOM     11  C   UNL     1       0.026  -3.962   2.108  0.00  0.00    +0.027 A 
ATOM     12  C   UNL     1       1.042  -4.655   1.478  0.00  0.00    +0.003 A 
ATOM     13  C   UNL     1       1.629  -4.143   0.336  0.00  0.00    +0.024 A 
ATOM     14  C   UNL     1       1.199  -2.936  -0.186  0.00  0.00    +0.084 A 
ATOM     15 CL   UNL     1       1.934  -2.301  -1.625  0.00  0.00    -0.080 Cl
BRANCH   9  16
ATOM     16  O   UNL     1      -0.237  -1.042  -0.065  0.00  0.00    -0.489 OA
BRANCH  16  18
ATOM     17  C   UNL     1      -1.635   0.338  -1.473  0.00  0.00    +0.048 C 
ATOM     18  C   UNL     1      -1.301  -1.084  -1.018  0.00  0.00    +0.226 C 
ENDBRANCH  16  18
ENDBRANCH   9  16
ENDBRANCH   5  10
ENDBRANCH   1   6
BRANCH   3  19
ATOM     19  C   UNL     1      -5.714  -1.900   4.611  0.00  0.00    +0.094 C 
BRANCH  19  20
ATOM     20  C   UNL     1      -6.637  -2.876   5.342  0.00  0.00    -0.020 C 
BRANCH  20  21
ATOM     21  C   UNL     1      -7.221  -3.852   4.354  0.00  0.00    -0.052 A 
ATOM     22  C   UNL     1      -6.694  -5.124   4.228  0.00  0.00    +0.009 A 
ATOM     23  C   UNL     1      -7.243  -5.977   3.329  0.00  0.00    +0.045 A 
ATOM     24  S   UNL     1      -8.546  -4.982   2.623  0.00  0.00    -0.105 S 
ATOM     25  C   UNL     1      -8.275  -3.498   3.578  0.00  0.00    +0.047 A 
ENDBRANCH  20  21
BRANCH  20  26
ATOM     26  N   UNL     1      -7.722  -2.130   5.993  0.00  0.00    +0.382 N 
ATOM     27  C   UNL     1      -8.554  -3.056   6.773  0.00  0.00    -0.096 C 
ATOM     28  C   UNL     1      -7.150  -1.114   6.887  0.00  0.00    -0.096 C 
ATOM     29  H   UNL     1      -8.289  -1.679   5.290  0.00  0.00    -0.082 HD
ENDBRANCH  20  26
ENDBRANCH  19  20
ENDBRANCH   3  19
TORSDOF 8
