REMARK  Name = ZINC63640135
REMARK  10 active torsions:
REMARK  status: ('A' for Active; 'I' for Inactive)
REMARK    1  A    between atoms: C_1  and  C_2
REMARK    2  A    between atoms: C_2  and  C_3
REMARK    3  A    between atoms: C_3  and  C_4
REMARK    4  A    between atoms: C_4  and  C_5
REMARK    5  A    between atoms: C_4  and  N_18
REMARK    6  A    between atoms: N_7  and  N_8
REMARK    7  A    between atoms: N_8  and  C_9
REMARK    8  A    between atoms: C_9  and  N_11
REMARK    9  A    between atoms: N_11  and  C_12
REMARK   10  A    between atoms: C_12  and  C_13
REMARK                            x       y       z     vdW  Elec       q    Type
REMARK                         _______ _______ _______ _____ _____    ______ ____
ROOT
ATOM      1  C   UNL     1      -2.820  -2.586   0.139  0.00  0.00    +0.249 C 
ATOM      2  O   UNL     1      -3.293  -3.285  -0.732  0.00  0.00    -0.272 OA
ATOM      3  N   UNL     1      -3.552  -2.276   1.227  0.00  0.00    -0.234 N 
ATOM      4  H   UNL     1      -3.174  -1.717   1.923  0.00  0.00    +0.173 HD
ENDROOT
BRANCH   3   5
ATOM      5  N   UNL     1      -4.861  -2.761   1.352  0.00  0.00    -0.246 N 
ATOM      6  H   UNL     1      -5.239  -3.321   0.655  0.00  0.00    +0.172 HD
BRANCH   5   7
ATOM      7  C   UNL     1      -5.593  -2.452   2.440  0.00  0.00    +0.147 C 
ATOM      8  S   UNL     1      -7.192  -3.045   2.593  0.00  0.00    -0.017 S 
BRANCH   7   9
ATOM      9  N   UNL     1      -5.067  -1.675   3.408  0.00  0.00    -0.323 N 
ATOM     10  H   UNL     1      -4.162  -1.339   3.321  0.00  0.00    +0.148 HD
BRANCH   9  11
ATOM     11  C   UNL     1      -5.864  -1.338   4.590  0.00  0.00    +0.134 C 
BRANCH  11  12
ATOM     12  C   UNL     1      -5.038  -0.453   5.526  0.00  0.00    +0.135 C 
ATOM     13  C   UNL     1      -5.826  -0.188   6.827  0.00  0.00    +0.035 C 
ATOM     14  C   UNL     1      -5.492   1.301   7.117  0.00  0.00    +0.031 C 
ATOM     15  C   UNL     1      -5.390   1.866   5.677  0.00  0.00    +0.160 C 
ATOM     16  O   UNL     1      -4.791   0.814   4.904  0.00  0.00    -0.375 OA
ENDBRANCH  11  12
ENDBRANCH   9  11
ENDBRANCH   7   9
ENDBRANCH   5   7
ENDBRANCH   3   5
BRANCH   1  17
ATOM     17  C   UNL     1      -1.413  -2.063   0.004  0.00  0.00    +0.162 C 
BRANCH  17  18
ATOM     18  N   UNL     1      -0.834  -2.537  -1.256  0.00  0.00    -0.288 N 
ATOM     19  C   UNL     1       0.503  -2.647  -1.384  0.00  0.00    +0.298 C 
ATOM     20  O   UNL     1       1.229  -2.353  -0.454  0.00  0.00    -0.253 OA
ATOM     21  N   UNL     1       1.035  -3.083  -2.543  0.00  0.00    -0.313 N 
ATOM     22  H   UNL     1      -1.414  -2.772  -1.997  0.00  0.00    +0.151 HD
ATOM     23  H   UNL     1       0.456  -3.317  -3.285  0.00  0.00    +0.146 HD
ATOM     24  H   UNL     1       1.997  -3.162  -2.636  0.00  0.00    +0.146 HD
ENDBRANCH  17  18
BRANCH  17  25
ATOM     25  C   UNL     1      -1.433  -0.534   0.013  0.00  0.00    +0.031 C 
BRANCH  25  27
ATOM     26  C   UNL     1      -0.019   1.526   0.010  0.00  0.00    +0.004 C 
ATOM     27  C   UNL     1       0.002  -0.004   0.002  0.00  0.00    -0.001 C 
ENDBRANCH  25  27
ENDBRANCH  17  25
ENDBRANCH   1  17
TORSDOF 9
