REMARK  Name = ZINC07811988
REMARK  6 active torsions:
REMARK  status: ('A' for Active; 'I' for Inactive)
REMARK    1  A    between atoms: C_1  and  C_2
REMARK    2  A    between atoms: C_5  and  C_25
REMARK    3  A    between atoms: C_9  and  C_10
REMARK    4  A    between atoms: C_9  and  N_51
REMARK    5  A    between atoms: N_12  and  C_13
REMARK    6  A    between atoms: C_14  and  C_22
REMARK                            x       y       z     vdW  Elec       q    Type
REMARK                         _______ _______ _______ _____ _____    ______ ____
ROOT
ATOM      1  C   UNL     1      -0.936   3.566   0.026  0.00  0.00    +0.201 C 
ATOM      2  O   UNL     1       0.186   4.027   0.023  0.00  0.00    -0.278 OA
ATOM      3  N   UNL     1      -1.115   2.230   0.020  0.00  0.00    -0.281 N 
ATOM      4  H   UNL     1      -2.012   1.861   0.022  0.00  0.00    +0.155 HD
ENDROOT
BRANCH   3   5
ATOM      5  C   UNL     1      -0.017   1.383   0.010  0.00  0.00    +0.084 A 
ATOM      6  C   UNL     1       0.002  -0.004   0.002  0.00  0.00    +0.068 A 
ATOM      7  C   UNL     1       1.299  -0.658  -0.014  0.00  0.00    -0.023 A 
ATOM      8  C   UNL     1       2.363   0.174  -0.019  0.00  0.00    -0.004 A 
ATOM      9  S   UNL     1       1.665   1.801  -0.004  0.00  0.00    -0.077 S 
ATOM     10  C   UNL     1       3.811  -0.210  -0.035  0.00  0.00    +0.043 C 
ATOM     11  C   UNL     1       3.920  -1.696   0.334  0.00  0.00    +0.005 C 
ATOM     12  C   UNL     1       2.906  -2.487  -0.498  0.00  0.00    +0.005 C 
ATOM     13  C   UNL     1       1.486  -2.170  -0.025  0.00  0.00    +0.037 C 
BRANCH   6  14
ATOM     14  C   UNL     1      -1.241  -0.781   0.010  0.00  0.00    +0.244 C 
ATOM     15  O   UNL     1      -1.767  -1.099  -1.040  0.00  0.00    -0.270 OA
ATOM     16  N   UNL     1      -1.801  -1.144   1.181  0.00  0.00    -0.325 N 
ATOM     17  H   UNL     1      -1.382  -0.891   2.018  0.00  0.00    +0.145 HD
ATOM     18  H   UNL     1      -2.624  -1.659   1.187  0.00  0.00    +0.145 HD
ENDBRANCH   6  14
ENDBRANCH   3   5
BRANCH   1  19
ATOM     19  C   UNL     1      -2.129   4.486   0.037  0.00  0.00    +0.019 C 
BRANCH  19  27
ATOM     20  C   UNL     1       0.617   7.677   0.043  0.00  0.00    +0.005 C 
ATOM     21  C   UNL     1      -0.379   7.610   1.202  0.00  0.00    -0.031 C 
ATOM     22  C   UNL     1      -1.510   8.615   0.962  0.00  0.00    +0.003 C 
ATOM     23  C   UNL     1      -2.258   8.233  -0.318  0.00  0.00    -0.031 C 
ATOM     24  C   UNL     1      -2.791   6.804  -0.185  0.00  0.00    -0.075 C 
ATOM     25  C   UNL     1      -0.967   6.200   1.291  0.00  0.00    -0.075 C 
ATOM     26  C   UNL     1      -3.427   9.196  -0.533  0.00  0.00    +0.005 C 
ATOM     27  N   UNL     1      -1.652   5.884   0.020  0.00  0.00    +0.386 N 
ATOM     28  H   UNL     1      -0.987   6.000  -0.754  0.00  0.00    -0.081 HD
ENDBRANCH  19  27
ENDBRANCH   1  19
TORSDOF 4
