REMARK  Name = ZINC20221961
REMARK  4 active torsions:
REMARK  status: ('A' for Active; 'I' for Inactive)
REMARK    1  A    between atoms: C_1  and  C_2
REMARK    2  A    between atoms: C_2  and  C_16
REMARK    3  A    between atoms: C_3  and  N_15
REMARK    4  A    between atoms: C_5  and  O_14
REMARK                            x       y       z     vdW  Elec       q    Type
REMARK                         _______ _______ _______ _____ _____    ______ ____
ROOT
ATOM      1  C   UNL     1      -1.402  -0.540   0.289  0.00  0.00    +0.054 C 
ATOM      2  C   UNL     1       0.002  -0.004   0.002  0.00  0.00    +0.095 C 
ATOM      3  C   UNL     1       0.970  -0.480   1.093  0.00  0.00    +0.003 C 
ATOM      4  C   UNL     1       2.381  -0.022   0.716  0.00  0.00    +0.137 C 
ATOM      5  C   UNL     1       2.357   1.436   0.334  0.00  0.00    +0.021 A 
ATOM      6  C   UNL     1       3.549   2.141   0.318  0.00  0.00    +0.010 A 
ATOM      7  C   UNL     1       3.564   3.477  -0.032  0.00  0.00    +0.001 A 
ATOM      8  C   UNL     1       2.385   4.117  -0.367  0.00  0.00    +0.004 A 
ATOM      9  C   UNL     1       1.194   3.421  -0.351  0.00  0.00    +0.046 A 
ATOM     10  C   UNL     1       1.175   2.075   0.002  0.00  0.00    +0.127 A 
ATOM     11  O   UNL     1      -0.017   1.424   0.010  0.00  0.00    -0.487 OA
ATOM     12  C   UNL     1       0.476  -0.506  -1.363  0.00  0.00    +0.054 C 
ENDROOT
BRANCH   3  13
ATOM     13  N   UNL     1       0.588   0.105   2.384  0.00  0.00    +0.384 N 
ATOM     14  H   UNL     1       1.284  -0.238   3.163  0.00  0.00    -0.089 HD
ATOM     15  H   UNL     1      -0.434  -0.210   2.641  0.00  0.00    -0.089 HD
ATOM     16  H   UNL     1       0.627   1.202   2.316  0.00  0.00    -0.089 HD
ENDBRANCH   3  13
BRANCH   4  17
ATOM     17  O   UNL     1       2.853  -0.795  -0.390  0.00  0.00    -0.389 OA
ATOM     18  H   UNL     1       3.855  -0.609  -0.804  0.00  0.00    +0.210 HD
ENDBRANCH   4  17
TORSDOF 2
