REMARK  Name = ZINC01877038
REMARK  13 active torsions:
REMARK  status: ('A' for Active; 'I' for Inactive)
REMARK    1  A    between atoms: C_1  and  C_2
REMARK    2  A    between atoms: C_3  and  C_15
REMARK    3  A    between atoms: N_6  and  C_9
REMARK    4  A    between atoms: C_15  and  C_40
REMARK    5  A    between atoms: C_19  and  C_23
REMARK    6  A    between atoms: C_19  and  C_24
REMARK    7  A    between atoms: N_25  and  C_28
REMARK    8  A    between atoms: C_28  and  C_29
REMARK    9  A    between atoms: C_29  and  C_30
REMARK   10  A    between atoms: C_33  and  O_38
REMARK   11  A    between atoms: C_34  and  O_36
REMARK   12  A    between atoms: O_36  and  C_37
REMARK   13  A    between atoms: O_38  and  C_39
REMARK                            x       y       z     vdW  Elec       q    Type
REMARK                         _______ _______ _______ _____ _____    ______ ____
ROOT
ATOM      1  C   UNL     1      -2.506  -0.350   0.232  0.00  0.00    +0.203 C 
ATOM      2  C   UNL     1      -3.335  -0.860  -0.914  0.00  0.00    +0.040 C 
ATOM      3  C   UNL     1      -3.803   0.233  -1.576  0.00  0.00    +0.022 C 
ATOM      4  C   UNL     1      -4.680   0.098  -2.804  0.00  0.00    +0.058 C 
ATOM      5  C   UNL     1      -4.353  -1.239  -3.479  0.00  0.00    -0.023 C 
ATOM      6  C   UNL     1      -4.527  -2.390  -2.488  0.00  0.00    +0.086 C 
ATOM      7  C   UNL     1      -3.620  -2.179  -1.295  0.00  0.00    +0.163 C 
ATOM      8  O   UNL     1      -3.153  -3.122  -0.688  0.00  0.00    -0.292 OA
ATOM      9  C   UNL     1      -2.907  -1.214  -3.978  0.00  0.00    +0.011 C 
ATOM     10  C   UNL     1      -5.292  -1.448  -4.669  0.00  0.00    +0.011 C 
ATOM     11  N   UNL     1      -3.380   1.383  -0.991  0.00  0.00    -0.273 N 
ATOM     12  C   UNL     1      -2.604   1.158   0.088  0.00  0.00    +0.244 C 
ATOM     13  O   UNL     1      -2.088   1.993   0.801  0.00  0.00    -0.274 OA
ENDROOT
BRANCH   1  16
ATOM     14  C   UNL     1      -0.094   1.431  -0.611  0.00  0.00    +0.065 C 
ATOM     15  C   UNL     1      -0.031  -0.035  -0.267  0.00  0.00    +0.040 A 
ATOM     16  C   UNL     1      -1.076  -0.805   0.098  0.00  0.00    +0.067 A 
ATOM     17  C   UNL     1      -0.595  -2.115   0.333  0.00  0.00    +0.277 A 
ATOM     18  O   UNL     1      -1.262  -3.074   0.679  0.00  0.00    -0.265 OA
ATOM     19  N   UNL     1       0.734  -2.109   0.105  0.00  0.00    -0.219 N 
ATOM     20  N   UNL     1       1.094  -0.810  -0.277  0.00  0.00    -0.294 N 
ATOM     21  H   UNL     1       1.988  -0.512  -0.507  0.00  0.00    +0.187 HD
BRANCH  19  22
ATOM     22  C   UNL     1       1.596  -3.204   0.223  0.00  0.00    +0.067 A 
ATOM     23  C   UNL     1       1.099  -4.444   0.602  0.00  0.00    +0.028 A 
ATOM     24  C   UNL     1       1.953  -5.523   0.718  0.00  0.00    +0.002 A 
ATOM     25  C   UNL     1       3.302  -5.370   0.456  0.00  0.00    +0.000 A 
ATOM     26  C   UNL     1       3.800  -4.136   0.079  0.00  0.00    +0.002 A 
ATOM     27  C   UNL     1       2.951  -3.055  -0.044  0.00  0.00    +0.028 A 
ENDBRANCH  19  22
ENDBRANCH   1  16
BRANCH   1  28
ATOM     28  C   UNL     1      -3.092  -0.804   1.571  0.00  0.00    +0.412 C 
ATOM     29  F   UNL     1      -2.332  -0.270   2.617  0.00  0.00    -0.169 F 
ATOM     30  F   UNL     1      -4.413  -0.356   1.678  0.00  0.00    -0.169 F 
ATOM     31  F   UNL     1      -3.066  -2.201   1.642  0.00  0.00    -0.169 F 
ENDBRANCH   1  28
BRANCH  11  32
ATOM     32  C   UNL     1      -3.728   2.720  -1.478  0.00  0.00    +0.118 C 
BRANCH  32  33
ATOM     33  C   UNL     1      -5.020   3.188  -0.806  0.00  0.00    +0.054 C 
BRANCH  33  34
ATOM     34  C   UNL     1      -5.378   4.563  -1.308  0.00  0.00    -0.042 A 
ATOM     35  C   UNL     1      -4.898   5.683  -0.654  0.00  0.00    +0.007 A 
ATOM     36  C   UNL     1      -5.223   6.946  -1.111  0.00  0.00    +0.049 A 
ATOM     37  C   UNL     1      -6.031   7.093  -2.227  0.00  0.00    +0.161 A 
ATOM     38  C   UNL     1      -6.514   5.966  -2.885  0.00  0.00    +0.162 A 
ATOM     39  C   UNL     1      -6.180   4.702  -2.425  0.00  0.00    +0.053 A 
BRANCH  38  40
ATOM     40  O   UNL     1      -7.308   6.105  -3.981  0.00  0.00    -0.491 OA
ATOM     41  C   UNL     1      -7.766   4.905  -4.606  0.00  0.00    +0.277 C 
ENDBRANCH  38  40
BRANCH  37  42
ATOM     42  O   UNL     1      -6.353   8.335  -2.677  0.00  0.00    -0.491 OA
ATOM     43  C   UNL     1      -5.822   9.446  -1.951  0.00  0.00    +0.277 C 
ENDBRANCH  37  42
ENDBRANCH  33  34
ENDBRANCH  32  33
ENDBRANCH  11  32
TORSDOF 8
