REMARK  Name = ZINC42691803
REMARK  10 active torsions:
REMARK  status: ('A' for Active; 'I' for Inactive)
REMARK    1  A    between atoms: C_1  and  C_2
REMARK    2  A    between atoms: C_2  and  C_3
REMARK    3  A    between atoms: C_2  and  C_4
REMARK    4  A    between atoms: C_4  and  N_5
REMARK    5  A    between atoms: N_5  and  C_6
REMARK    6  A    between atoms: N_5  and  C_10
REMARK    7  A    between atoms: C_6  and  C_7
REMARK    8  A    between atoms: C_15  and  C_16
REMARK    9  A    between atoms: C_16  and  N_17
REMARK   10  A    between atoms: N_17  and  C_18
REMARK                            x       y       z     vdW  Elec       q    Type
REMARK                         _______ _______ _______ _____ _____    ______ ____
ROOT
ATOM      1  C   UNL     1      -1.956  -2.845  -1.400  0.00  0.00    +0.033 A 
ATOM      2  C   UNL     1      -1.018  -3.256  -2.339  0.00  0.00    +0.038 A 
ATOM      3  C   UNL     1      -1.420  -3.990  -3.438  0.00  0.00    +0.020 A 
ATOM      4  C   UNL     1      -2.755  -4.316  -3.604  0.00  0.00    +0.015 A 
ATOM      5  C   UNL     1      -3.690  -3.908  -2.671  0.00  0.00    +0.004 A 
ATOM      6  C   UNL     1      -3.294  -3.178  -1.567  0.00  0.00    -0.043 A 
ATOM      7 BR   UNL     1      -0.144  -4.551  -4.717  0.00  0.00    -0.050 Br
ENDROOT
BRANCH   1   8
ATOM      8  N   UNL     1      -1.553  -2.102  -0.288  0.00  0.00    -0.321 N 
BRANCH   8   9
ATOM      9  C   UNL     1      -1.037  -2.785   0.901  0.00  0.00    +0.108 C 
BRANCH   9  11
ATOM     10  C   UNL     1      -1.673  -3.950   3.018  0.00  0.00    +0.009 C 
ATOM     11  C   UNL     1      -2.203  -3.162   1.818  0.00  0.00    +0.000 C 
ATOM     12  C   UNL     1      -2.897  -1.891   2.310  0.00  0.00    +0.009 C 
ENDBRANCH   9  11
ENDBRANCH   8   9
BRANCH   8  13
ATOM     13  C   UNL     1      -1.647  -0.640  -0.310  0.00  0.00    +0.200 C 
BRANCH  13  14
ATOM     14  C   UNL     1      -0.311  -0.057  -0.693  0.00  0.00    +0.228 C 
ATOM     15  O   UNL     1       0.605  -0.790  -0.999  0.00  0.00    -0.274 OA
ATOM     16  N   UNL     1      -0.135   1.279  -0.695  0.00  0.00    -0.328 N 
ATOM     17  H   UNL     1      -0.868   1.865  -0.451  0.00  0.00    +0.145 HD
ATOM     18  H   UNL     1       0.725   1.655  -0.942  0.00  0.00    +0.145 HD
ENDBRANCH  13  14
ENDBRANCH   8  13
ENDBRANCH   1   8
BRANCH   6  19
ATOM     19  C   UNL     1      -4.313  -2.739  -0.548  0.00  0.00    -0.045 C 
BRANCH  19  20
ATOM     20  N   UNL     1      -4.755  -1.372  -0.854  0.00  0.00    +0.384 N 
ATOM     21  H   UNL     1      -3.953  -0.761  -0.897  0.00  0.00    -0.085 HD
ATOM     22  H   UNL     1      -5.231  -1.364  -1.743  0.00  0.00    -0.085 HD
BRANCH  20  23
ATOM     23  C   UNL     1      -5.670  -0.906   0.196  0.00  0.00    -0.072 C 
ATOM     24  C   UNL     1      -7.113  -0.599  -0.209  0.00  0.00    -0.017 C 
ATOM     25  C   UNL     1      -6.151   0.544   0.122  0.00  0.00    -0.017 C 
ENDBRANCH  20  23
ENDBRANCH  19  20
ENDBRANCH   6  19
TORSDOF 8
