REMARK  Name = ZINC35679224
REMARK  9 active torsions:
REMARK  status: ('A' for Active; 'I' for Inactive)
REMARK    1  A    between atoms: C_1  and  C_2
REMARK    2  A    between atoms: C_2  and  C_3
REMARK    3  A    between atoms: C_2  and  C_4
REMARK    4  A    between atoms: C_9  and  N_10
REMARK    5  A    between atoms: N_10  and  S_11
REMARK    6  A    between atoms: S_11  and  C_14
REMARK    7  A    between atoms: C_17  and  C_19
REMARK    8  A    between atoms: C_19  and  C_20
REMARK    9  A    between atoms: C_20  and  N_21
REMARK                            x       y       z     vdW  Elec       q    Type
REMARK                         _______ _______ _______ _____ _____    ______ ____
ROOT
ATOM      1  S   UNL     1      -1.635  -1.913  -3.599  0.00  0.00    +0.079 S 
ATOM      2  O   UNL     1      -0.544  -2.302  -4.423  0.00  0.00    -0.149 OA
ATOM      3  O   UNL     1      -2.788  -2.725  -3.427  0.00  0.00    -0.149 OA
ENDROOT
BRANCH   1   4
ATOM      4  C   UNL     1      -2.199  -0.360  -4.211  0.00  0.00    +0.146 A 
ATOM      5  C   UNL     1      -1.526   0.569  -4.934  0.00  0.00    +0.037 A 
ATOM      6  C   UNL     1      -2.179   1.728  -5.310  0.00  0.00    +0.013 A 
ATOM      7  C   UNL     1      -3.473   1.901  -4.945  0.00  0.00    -0.010 A 
ATOM      8  S   UNL     1      -3.809   0.395  -4.048  0.00  0.00    -0.073 S 
BRANCH   7   9
ATOM      9  C   UNL     1      -4.391   3.062  -5.229  0.00  0.00    +0.023 C 
BRANCH   9  10
ATOM     10  C   UNL     1      -5.131   2.817  -6.545  0.00  0.00    -0.081 C 
BRANCH  10  11
ATOM     11  N   UNL     1      -6.026   3.949  -6.822  0.00  0.00    +0.378 N 
ATOM     12  H   UNL     1      -6.514   3.787  -7.690  0.00  0.00    -0.090 HD
ATOM     13  H   UNL     1      -6.695   4.040  -6.072  0.00  0.00    -0.090 HD
ATOM     14  H   UNL     1      -5.484   4.796  -6.894  0.00  0.00    -0.090 HD
ENDBRANCH  10  11
ENDBRANCH   9  10
ENDBRANCH   7   9
ENDBRANCH   1   4
BRANCH   1  15
ATOM     15  N   UNL     1      -1.013  -1.646  -2.087  0.00  0.00    -0.216 N 
ATOM     16  H   UNL     1      -0.083  -1.848  -1.903  0.00  0.00    +0.174 HD
BRANCH  15  22
ATOM     17  C   UNL     1      -1.303  -0.256  -0.136  0.00  0.00    -0.022 A 
ATOM     18  C   UNL     1      -2.114   0.256   0.858  0.00  0.00    +0.006 A 
ATOM     19  C   UNL     1      -3.447  -0.106   0.919  0.00  0.00    +0.000 A 
ATOM     20  C   UNL     1      -3.973  -0.981  -0.014  0.00  0.00    +0.002 A 
ATOM     21  C   UNL     1      -3.168  -1.496  -1.010  0.00  0.00    +0.025 A 
ATOM     22  C   UNL     1      -1.829  -1.131  -1.078  0.00  0.00    +0.051 A 
BRANCH  17  24
ATOM     23  C   UNL     1       0.260   1.654  -0.373  0.00  0.00    +0.012 C 
ATOM     24  C   UNL     1       0.150   0.138  -0.201  0.00  0.00    +0.015 C 
ATOM     25  C   UNL     1       0.851  -0.281   1.093  0.00  0.00    +0.012 C 
ENDBRANCH  17  24
ENDBRANCH  15  22
ENDBRANCH   1  15
TORSDOF 7
