REMARK  Name = ZINC53996169
REMARK  10 active torsions:
REMARK  status: ('A' for Active; 'I' for Inactive)
REMARK    1  A    between atoms: C_1  and  C_2
REMARK    2  A    between atoms: C_2  and  C_4
REMARK    3  A    between atoms: C_2  and  N_18
REMARK    4  A    between atoms: C_7  and  O_10
REMARK    5  A    between atoms: O_10  and  C_11
REMARK    6  A    between atoms: C_11  and  C_12
REMARK    7  A    between atoms: N_14  and  C_15
REMARK    8  A    between atoms: C_19  and  C_21
REMARK    9  A    between atoms: C_24  and  N_30
REMARK   10  A    between atoms: C_25  and  N_27
REMARK                            x       y       z     vdW  Elec       q    Type
REMARK                         _______ _______ _______ _____ _____    ______ ____
ROOT
ATOM      1  C   UNL     1       0.183   1.564  -0.147  0.00  0.00    +0.033 C 
ATOM      2  C   UNL     1      -0.048   0.069   0.086  0.00  0.00    +0.100 C 
ENDROOT
BRANCH   2   3
ATOM      3  C   UNL     1      -1.519  -0.185   0.292  0.00  0.00    -0.027 A 
ATOM      4  C   UNL     1      -2.098   0.066   1.522  0.00  0.00    +0.009 A 
ATOM      5  C   UNL     1      -3.446  -0.167   1.713  0.00  0.00    +0.046 A 
ATOM      6  C   UNL     1      -4.219  -0.654   0.669  0.00  0.00    +0.121 A 
ATOM      7  C   UNL     1      -3.636  -0.905  -0.564  0.00  0.00    +0.046 A 
ATOM      8  C   UNL     1      -2.289  -0.665  -0.752  0.00  0.00    +0.009 A 
BRANCH   6   9
ATOM      9  O   UNL     1      -5.545  -0.885   0.855  0.00  0.00    -0.483 OA
BRANCH   9  10
ATOM     10  C   UNL     1      -6.280  -1.386  -0.264  0.00  0.00    +0.324 C 
BRANCH  10  11
ATOM     11  C   UNL     1      -7.722  -1.579   0.128  0.00  0.00    +0.251 C 
ATOM     12  O   UNL     1      -8.085  -1.314   1.254  0.00  0.00    -0.272 OA
ATOM     13  N   UNL     1      -8.608  -2.047  -0.774  0.00  0.00    -0.310 N 
ATOM     14  H   UNL     1      -8.317  -2.259  -1.675  0.00  0.00    +0.149 HD
BRANCH  13  15
ATOM     15  C   UNL     1     -10.010  -2.234  -0.393  0.00  0.00    +0.073 C 
ATOM     16  C   UNL     1     -10.699  -3.523  -0.848  0.00  0.00    +0.024 C 
ATOM     17  C   UNL     1     -11.057  -2.190  -1.508  0.00  0.00    +0.024 C 
ENDBRANCH  13  15
ENDBRANCH  10  11
ENDBRANCH   9  10
ENDBRANCH   6   9
ENDBRANCH   2   3
BRANCH   2  18
ATOM     18  N   UNL     1       0.693  -0.360   1.274  0.00  0.00    -0.305 N 
ATOM     19  C   UNL     1       1.991  -0.709   1.170  0.00  0.00    +0.245 C 
ATOM     20  O   UNL     1       2.547  -0.666   0.089  0.00  0.00    -0.270 OA
ATOM     21  H   UNL     1       0.250  -0.394   2.137  0.00  0.00    +0.150 HD
BRANCH  19  22
ATOM     22  C   UNL     1       2.737  -1.141   2.367  0.00  0.00    +0.039 A 
ATOM     23  C   UNL     1       2.098  -1.195   3.609  0.00  0.00    +0.015 A 
ATOM     24  C   UNL     1       2.796  -1.599   4.724  0.00  0.00    +0.026 A 
ATOM     25  C   UNL     1       4.138  -1.954   4.615  0.00  0.00    +0.055 A 
ATOM     26  C   UNL     1       4.778  -1.900   3.380  0.00  0.00    +0.147 A 
ATOM     27  C   UNL     1       4.083  -1.503   2.260  0.00  0.00    +0.047 A 
BRANCH  26  28
ATOM     28  N   UNL     1       6.205  -2.277   3.269  0.00  0.00    +0.058 N 
ATOM     29  O   UNL     1       6.933  -1.671   2.518  0.00  0.00    -0.126 OA
ATOM     30  O   UNL     1       6.642  -3.190   3.930  0.00  0.00    -0.126 OA
ENDBRANCH  26  28
BRANCH  25  31
ATOM     31  N   UNL     1       4.842  -2.361   5.744  0.00  0.00    -0.356 N 
ATOM     32  H   UNL     1       4.373  -2.508   6.580  0.00  0.00    +0.142 HD
ATOM     33  H   UNL     1       5.801  -2.499   5.694  0.00  0.00    +0.142 HD
ENDBRANCH  25  31
ENDBRANCH  19  22
ENDBRANCH   2  18
TORSDOF 9
