REMARK  Name = ZINC58097649
REMARK  7 active torsions:
REMARK  status: ('A' for Active; 'I' for Inactive)
REMARK    1  A    between atoms: C_1  and  C_2
REMARK    2  A    between atoms: C_2  and  C_3
REMARK    3  A    between atoms: C_5  and  C_16
REMARK    4  A    between atoms: C_12  and  C_14
REMARK    5  A    between atoms: C_14  and  C_15
REMARK    6  A    between atoms: C_16  and  C_18
REMARK    7  A    between atoms: C_16  and  N_19
REMARK                            x       y       z     vdW  Elec       q    Type
REMARK                         _______ _______ _______ _____ _____    ______ ____
ROOT
ATOM      1  C   UNL     1       0.707  -0.490  -1.238  0.00  0.00    -0.026 A 
ATOM      2  C   UNL     1      -0.023  -0.816  -2.362  0.00  0.00    +0.007 A 
ATOM      3  C   UNL     1       0.615  -1.264  -3.505  0.00  0.00    -0.061 A 
ATOM      4  C   UNL     1       1.994  -1.384  -3.521  0.00  0.00    +0.008 A 
ATOM      5  C   UNL     1       2.725  -1.059  -2.401  0.00  0.00    -0.014 A 
ATOM      6  C   UNL     1       2.096  -0.604  -1.248  0.00  0.00    +0.041 A 
ATOM      7  N   UNL     1       3.041  -0.335  -0.258  0.00  0.00    -0.285 N 
ATOM      8  C   UNL     1       4.296  -0.578  -0.672  0.00  0.00    +0.225 C 
ATOM      9  O   UNL     1       5.310  -0.433  -0.022  0.00  0.00    -0.275 OA
ATOM     10  C   UNL     1       4.205  -1.079  -2.098  0.00  0.00    +0.107 C 
ATOM     11  H   UNL     1       2.817  -0.009   0.628  0.00  0.00    +0.155 HD
ENDROOT
BRANCH   1  13
ATOM     12  C   UNL     1      -0.019   1.526   0.010  0.00  0.00    +0.009 C 
ATOM     13  C   UNL     1       0.002  -0.004   0.002  0.00  0.00    +0.033 C 
ENDBRANCH   1  13
BRANCH  10  14
ATOM     14  C   UNL     1       4.758  -2.501  -2.217  0.00  0.00    +0.014 C 
ATOM     15  C   UNL     1       6.276  -2.475  -2.028  0.00  0.00    +0.005 C 
ENDBRANCH  10  14
BRANCH   3  16
ATOM     16  C   UNL     1      -0.189  -1.619  -4.729  0.00  0.00    -0.047 C 
ATOM     17  C   UNL     1      -0.783  -3.018  -4.560  0.00  0.00    -0.009 C 
BRANCH  16  18
ATOM     18  N   UNL     1      -1.274  -0.644  -4.902  0.00  0.00    +0.382 N 
ATOM     19  H   UNL     1      -0.882   0.279  -5.013  0.00  0.00    -0.089 HD
ATOM     20  H   UNL     1      -1.812  -0.882  -5.722  0.00  0.00    -0.089 HD
ATOM     21  H   UNL     1      -1.873  -0.659  -4.090  0.00  0.00    -0.089 HD
ENDBRANCH  16  18
ENDBRANCH   3  16
TORSDOF 4
