REMARK  Name = ZINC49095324
REMARK  11 active torsions:
REMARK  status: ('A' for Active; 'I' for Inactive)
REMARK    1  A    between atoms: C_1  and  C_2
REMARK    2  A    between atoms: C_2  and  C_3
REMARK    3  A    between atoms: C_3  and  C_5
REMARK    4  A    between atoms: C_3  and  C_6
REMARK    5  A    between atoms: C_6  and  C_8
REMARK    6  A    between atoms: C_6  and  N_9
REMARK    7  A    between atoms: N_9  and  S_10
REMARK    8  A    between atoms: S_10  and  C_13
REMARK    9  A    between atoms: C_16  and  C_19
REMARK   10  A    between atoms: C_19  and  C_21
REMARK   11  A    between atoms: C_19  and  N_22
REMARK                            x       y       z     vdW  Elec       q    Type
REMARK                         _______ _______ _______ _____ _____    ______ ____
ROOT
ATOM      1  C   UNL     1       1.653  -5.189  -1.853  0.00  0.00    +0.105 A 
ATOM      2  C   UNL     1       1.340  -5.523  -0.549  0.00  0.00    +0.029 A 
ATOM      3  C   UNL     1       0.553  -6.630  -0.288  0.00  0.00    +0.004 A 
ATOM      4  C   UNL     1       0.079  -7.402  -1.332  0.00  0.00    -0.062 A 
ATOM      5  C   UNL     1       0.391  -7.067  -2.636  0.00  0.00    +0.004 A 
ATOM      6  C   UNL     1       1.174  -5.958  -2.897  0.00  0.00    +0.029 A 
ENDROOT
BRANCH   1   7
ATOM      7  S   UNL     1       2.656  -3.779  -2.185  0.00  0.00    +0.059 S 
ATOM      8  O   UNL     1       3.249  -3.993  -3.458  0.00  0.00    -0.153 OA
ATOM      9  O   UNL     1       3.427  -3.544  -1.015  0.00  0.00    -0.153 OA
BRANCH   7  10
ATOM     10  N   UNL     1       1.639  -2.482  -2.350  0.00  0.00    -0.187 NA
ATOM     11  H   UNL     1       1.565  -2.029  -3.204  0.00  0.00    +0.148 HD
BRANCH  10  12
ATOM     12  C   UNL     1       0.849  -2.021  -1.205  0.00  0.00    +0.076 C 
ATOM     13  C   UNL     1      -0.542  -2.655  -1.256  0.00  0.00    +0.026 C 
BRANCH  12  14
ATOM     14  C   UNL     1       0.718  -0.497  -1.257  0.00  0.00    +0.004 C 
ATOM     15  C   UNL     1      -0.089  -0.097  -2.493  0.00  0.00    +0.009 C 
BRANCH  14  17
ATOM     16  C   UNL     1      -0.019   1.526   0.010  0.00  0.00    +0.004 C 
ATOM     17  C   UNL     1       0.002  -0.004   0.002  0.00  0.00    +0.001 C 
ENDBRANCH  14  17
ENDBRANCH  12  14
ENDBRANCH  10  12
ENDBRANCH   7  10
ENDBRANCH   1   7
BRANCH   4  18
ATOM     18  C   UNL     1      -0.778  -8.608  -1.048  0.00  0.00    -0.047 C 
ATOM     19  C   UNL     1      -2.249  -8.252  -1.268  0.00  0.00    -0.009 C 
BRANCH  18  20
ATOM     20  N   UNL     1      -0.399  -9.702  -1.952  0.00  0.00    +0.382 N 
ATOM     21  H   UNL     1       0.572  -9.937  -1.808  0.00  0.00    -0.089 HD
ATOM     22  H   UNL     1      -0.972 -10.510  -1.762  0.00  0.00    -0.089 HD
ATOM     23  H   UNL     1      -0.535  -9.410  -2.909  0.00  0.00    -0.089 HD
ENDBRANCH  18  20
ENDBRANCH   4  18
TORSDOF 7
