REMARK  Name = ZINC38990264
REMARK  8 active torsions:
REMARK  status: ('A' for Active; 'I' for Inactive)
REMARK    1  A    between atoms: C_1  and  O_2
REMARK    2  A    between atoms: O_2  and  C_3
REMARK    3  A    between atoms: C_6  and  C_9
REMARK    4  A    between atoms: C_11  and  C_15
REMARK    5  A    between atoms: C_19  and  S_23
REMARK    6  A    between atoms: N_21  and  N_22
REMARK    7  A    between atoms: S_23  and  C_24
REMARK    8  A    between atoms: C_24  and  C_25
REMARK                            x       y       z     vdW  Elec       q    Type
REMARK                         _______ _______ _______ _____ _____    ______ ____
ROOT
ATOM      1  C   UNL     1       4.670  -4.708  -5.635  0.00  0.00    +0.185 C 
ATOM      2  N   UNL     1       4.431  -6.094  -5.154  0.00  0.00    -0.234 NA
ATOM      3  N   UNL     1       5.657  -6.802  -5.555  0.00  0.00    -0.228 NA
ATOM      4  C   UNL     1       6.002  -6.224  -6.874  0.00  0.00    +0.214 C 
ATOM      5  N   UNL     1       5.375  -4.884  -6.925  0.00  0.00    -0.197 NA
ATOM      6  H   UNL     1       4.314  -6.114  -4.152  0.00  0.00    +0.143 HD
ATOM      7  H   UNL     1       5.494  -7.795  -5.627  0.00  0.00    +0.143 HD
ENDROOT
BRANCH   1  10
ATOM      8  C   UNL     1       2.495  -2.502  -4.361  0.00  0.00    +0.091 C 
ATOM      9  C   UNL     1       2.595  -3.834  -4.532  0.00  0.00    +0.034 C 
ATOM     10  C   UNL     1       3.342  -3.978  -5.845  0.00  0.00    +0.187 C 
ATOM     11  N   UNL     1       3.572  -2.582  -6.255  0.00  0.00    -0.176 NA
ATOM     12  N   UNL     1       3.077  -1.846  -5.399  0.00  0.00    -0.154 NA
BRANCH   8  16
ATOM     13  C   UNL     1       0.605  -0.614  -1.050  0.00  0.00    +0.120 A 
ATOM     14  C   UNL     1       1.170   0.157  -2.057  0.00  0.00    +0.046 A 
ATOM     15  C   UNL     1       1.784  -0.453  -3.132  0.00  0.00    +0.013 A 
ATOM     16  C   UNL     1       1.836  -1.844  -3.206  0.00  0.00    +0.002 A 
ATOM     17  C   UNL     1       1.268  -2.615  -2.194  0.00  0.00    +0.013 A 
ATOM     18  C   UNL     1       0.660  -2.000  -1.119  0.00  0.00    +0.046 A 
BRANCH  13  20
ATOM     19  C   UNL     1      -0.019   1.417   0.014  0.00  0.00    +0.277 C 
ATOM     20  O   UNL     1       0.002  -0.011   0.007  0.00  0.00    -0.495 OA
ENDBRANCH  13  20
ENDBRANCH   8  16
ENDBRANCH   1  10
BRANCH   5  21
ATOM     21  N   UNL     1       6.374  -3.846  -7.119  0.00  0.00    -0.264 NA
ATOM     22  H   UNL     1       6.855  -3.966  -7.998  0.00  0.00    +0.137 HD
ATOM     23  H   UNL     1       5.959  -2.928  -7.056  0.00  0.00    +0.137 HD
ENDBRANCH   5  21
BRANCH   4  24
ATOM     24  S   UNL     1       7.802  -6.073  -7.035  0.00  0.00    -0.115 S 
BRANCH  24  25
ATOM     25  C   UNL     1       8.279  -5.010  -5.645  0.00  0.00    +0.168 C 
BRANCH  25  26
ATOM     26  C   UNL     1       9.772  -4.801  -5.661  0.00  0.00    +0.228 C 
ATOM     27  O   UNL     1      10.447  -5.319  -6.525  0.00  0.00    -0.275 OA
ATOM     28  N   UNL     1      10.356  -4.039  -4.715  0.00  0.00    -0.270 N 
ATOM     29  C   UNL     1      11.745  -3.932  -4.666  0.00  0.00    +0.125 A 
ATOM     30  C   UNL     1      12.346  -3.231  -3.626  0.00  0.00    +0.045 A 
ATOM     31  C   UNL     1      13.725  -3.132  -3.590  0.00  0.00    +0.025 A 
ATOM     32  C   UNL     1      14.461  -3.740  -4.599  0.00  0.00    +0.059 A 
ATOM     33  C   UNL     1      13.797  -4.420  -5.603  0.00  0.00    +0.132 A 
ATOM     34  N   UNL     1      12.480  -4.502  -5.608  0.00  0.00    -0.239 NA
ATOM     35 CL   UNL     1      16.194  -3.645  -4.601  0.00  0.00    -0.082 Cl
ATOM     36  H   UNL     1       9.810  -3.566  -4.068  0.00  0.00    +0.156 HD
ENDBRANCH  25  26
ENDBRANCH  24  25
ENDBRANCH   4  24
TORSDOF 7
