REMARK  Name = ZINC43746797
REMARK  6 active torsions:
REMARK  status: ('A' for Active; 'I' for Inactive)
REMARK    1  A    between atoms: C_1  and  C_2
REMARK    2  A    between atoms: C_9  and  O_20
REMARK    3  A    between atoms: C_12  and  C_14
REMARK    4  A    between atoms: C_23  and  O_33
REMARK    5  A    between atoms: C_24  and  C_31
REMARK    6  A    between atoms: C_27  and  O_30
REMARK                            x       y       z     vdW  Elec       q    Type
REMARK                         _______ _______ _______ _____ _____    ______ ____
ROOT
ATOM      1  C   UNL     1      -0.325   1.611  -0.408  0.00  0.00    +0.014 C 
ATOM      2  C   UNL     1      -0.123   0.102  -0.254  0.00  0.00    +0.004 C 
ATOM      3  C   UNL     1       0.253  -0.558  -1.583  0.00  0.00    +0.010 C 
ATOM      4  C   UNL     1       1.678  -0.190  -1.985  0.00  0.00    +0.005 C 
ATOM      5  C   UNL     1       2.641  -0.727  -0.921  0.00  0.00    +0.011 C 
ATOM      6  C   UNL     1       2.338  -0.028   0.403  0.00  0.00    +0.025 C 
ATOM      7  C   UNL     1       0.916  -0.230   0.831  0.00  0.00    +0.075 C 
ATOM      8  C   UNL     1       0.615  -1.700   1.179  0.00  0.00    +0.036 C 
ATOM      9  C   UNL     1      -0.929  -1.768   1.152  0.00  0.00    +0.011 C 
ATOM     10  C   UNL     1      -1.405  -0.606   0.261  0.00  0.00    +0.027 C 
ATOM     11  C   UNL     1       3.303  -0.530   1.479  0.00  0.00    +0.009 C 
ATOM     12  C   UNL     1       4.742  -0.224   1.058  0.00  0.00    +0.036 C 
ATOM     13  C   UNL     1       5.045  -0.924  -0.268  0.00  0.00    +0.081 C 
ATOM     14  C   UNL     1       4.081  -0.437  -1.352  0.00  0.00    +0.058 C 
ATOM     15  C   UNL     1       4.372  -1.150  -2.673  0.00  0.00    +0.020 C 
ATOM     16  C   UNL     1       4.194  -2.659  -2.490  0.00  0.00    +0.032 C 
ATOM     17  C   UNL     1       5.161  -3.160  -1.416  0.00  0.00    +0.117 C 
ATOM     18  C   UNL     1       4.879  -2.435  -0.098  0.00  0.00    +0.067 C 
ENDROOT
BRANCH  10  19
ATOM     19  C   UNL     1      -2.239   0.357   1.067  0.00  0.00    -0.022 C 
ATOM     20  C   UNL     1      -3.438   0.834   0.741  0.00  0.00    +0.094 C 
ATOM     21  C   UNL     1      -3.897   1.738   1.800  0.00  0.00    +0.332 C 
ATOM     22  O   UNL     1      -4.956   2.333   1.800  0.00  0.00    -0.246 OA
ATOM     23  O   UNL     1      -2.969   1.808   2.773  0.00  0.00    -0.457 OA
ATOM     24  C   UNL     1      -1.877   0.961   2.404  0.00  0.00    +0.264 C 
ENDBRANCH  10  19
BRANCH   7  25
ATOM     25  O   UNL     1       0.658   0.571   1.986  0.00  0.00    -0.388 OA
ATOM     26  H   UNL     1       1.274   0.417   2.716  0.00  0.00    +0.210 HD
ENDBRANCH   7  25
BRANCH  17  27
ATOM     27  O   UNL     1       4.995  -4.569  -1.245  0.00  0.00    -0.392 OA
ATOM     28  H   UNL     1       5.165  -5.085  -2.045  0.00  0.00    +0.210 HD
ENDBRANCH  17  27
BRANCH  14  29
ATOM     29  C   UNL     1       4.261   1.048  -1.534  0.00  0.00    +0.233 C 
ATOM     30  O   UNL     1       5.077   1.643  -0.872  0.00  0.00    -0.300 OA
ENDBRANCH  14  29
BRANCH  13  31
ATOM     31  O   UNL     1       6.388  -0.634  -0.662  0.00  0.00    -0.388 OA
ATOM     32  H   UNL     1       7.056  -0.925  -0.026  0.00  0.00    +0.210 HD
ENDBRANCH  13  31
TORSDOF 5
