REMARK  Name = ZINC61856883
REMARK  3 active torsions:
REMARK  status: ('A' for Active; 'I' for Inactive)
REMARK    1  A    between atoms: C_10  and  O_12
REMARK    2  A    between atoms: O_12  and  C_13
REMARK    3  A    between atoms: C_16  and  C_20
REMARK                            x       y       z     vdW  Elec       q    Type
REMARK                         _______ _______ _______ _____ _____    ______ ____
ROOT
ATOM      1  C   UNL     1       5.292   1.086  -0.453  0.00  0.00    +0.123 A 
ATOM      2  C   UNL     1       5.258   1.355   0.911  0.00  0.00    +0.046 A 
ATOM      3  C   UNL     1       5.926   2.448   1.416  0.00  0.00    +0.016 A 
ATOM      4  C   UNL     1       6.638   3.288   0.557  0.00  0.00    +0.031 A 
ATOM      5  C   UNL     1       6.670   3.015  -0.814  0.00  0.00    +0.055 A 
ATOM      6  C   UNL     1       6.002   1.915  -1.311  0.00  0.00    +0.066 A 
ATOM      7 CL   UNL     1       7.552   4.055  -1.887  0.00  0.00    -0.083 Cl
ENDROOT
BRANCH   4   8
ATOM      8  C   UNL     1       7.355   4.462   1.095  0.00  0.00    +0.096 C 
ATOM      9  N   UNL     1       7.100   5.677   0.612  0.00  0.00    -0.387 N 
ATOM     10  N   UNL     1       8.257   4.305   2.064  0.00  0.00    -0.345 N 
ATOM     11  H   UNL     1       7.521   6.455   1.010  0.00  0.00    +0.157 HD
ATOM     12  H   UNL     1       8.442   3.421   2.415  0.00  0.00    +0.144 HD
ATOM     13  H   UNL     1       8.728   5.076   2.417  0.00  0.00    +0.144 HD
ATOM     14  H   UNL     1       6.494   5.784  -0.138  0.00  0.00    +0.157 HD
ENDBRANCH   4   8
BRANCH   1  15
ATOM     15  O   UNL     1       4.633   0.007  -0.946  0.00  0.00    -0.484 OA
BRANCH  15  25
ATOM     16  C   UNL     1      -0.126   0.670   0.076  0.00  0.00    +0.000 A 
ATOM     17  C   UNL     1       0.943   1.546   0.028  0.00  0.00    +0.000 A 
ATOM     18  C   UNL     1       2.231   1.053  -0.002  0.00  0.00    +0.007 A 
ATOM     19  C   UNL     1       2.464  -0.316   0.014  0.00  0.00    -0.004 A 
ATOM     20  C   UNL     1       1.399  -1.188   0.058  0.00  0.00    -0.041 A 
ATOM     21  C   UNL     1       0.103  -0.690   0.092  0.00  0.00    +0.004 A 
ATOM     22  C   UNL     1       1.576  -2.684   0.062  0.00  0.00    +0.035 C 
ATOM     23  C   UNL     1       3.005  -3.055   0.452  0.00  0.00    +0.009 C 
ATOM     24  C   UNL     1       3.971  -2.253  -0.428  0.00  0.00    +0.050 C 
ATOM     25  C   UNL     1       3.895  -0.785  -0.013  0.00  0.00    +0.204 C 
ENDBRANCH  15  25
ENDBRANCH   1  15
TORSDOF 3
