REMARK  Name = ZINC09543141
REMARK  10 active torsions:
REMARK  status: ('A' for Active; 'I' for Inactive)
REMARK    1  A    between atoms: C_1  and  C_2
REMARK    2  A    between atoms: C_2  and  O_3
REMARK    3  A    between atoms: O_3  and  C_4
REMARK    4  A    between atoms: C_8  and  C_11
REMARK    5  A    between atoms: C_9  and  O_10
REMARK    6  A    between atoms: C_14  and  C_28
REMARK    7  A    between atoms: C_16  and  C_18
REMARK    8  A    between atoms: C_21  and  C_24
REMARK    9  A    between atoms: C_24  and  O_26
REMARK   10  A    between atoms: O_26  and  C_27
REMARK                            x       y       z     vdW  Elec       q    Type
REMARK                         _______ _______ _______ _____ _____    ______ ____
ROOT
ATOM      1  C   UNL     1       1.356   1.551  -0.003  0.00  0.00    -0.028 C 
ATOM      2  C   UNL     1       2.092   0.977  -1.218  0.00  0.00    +0.044 C 
ATOM      3  C   UNL     1       1.220   1.101  -2.436  0.00  0.00    +0.040 C 
ATOM      4  N   UNL     1      -0.036   1.338  -2.375  0.00  0.00    -0.299 NA
ATOM      5  C   UNL     1      -0.774   1.527  -1.133  0.00  0.00    +0.081 C 
ATOM      6  N   UNL     1      -0.013   1.002   0.011  0.00  0.00    +0.401 N 
ATOM      7  H   UNL     1      -0.480   1.273   0.884  0.00  0.00    -0.081 HD
ATOM      8  H   UNL     1       0.030  -0.022  -0.050  0.00  0.00    -0.081 HD
ENDROOT
BRANCH   3   9
ATOM      9  C   UNL     1       1.842   0.941  -3.765  0.00  0.00    -0.004 A 
ATOM     10  C   UNL     1       3.211   0.687  -3.872  0.00  0.00    +0.011 A 
ATOM     11  C   UNL     1       3.785   0.533  -5.117  0.00  0.00    +0.016 A 
ATOM     12  C   UNL     1       3.009   0.642  -6.258  0.00  0.00    +0.018 A 
ATOM     13  C   UNL     1       1.652   0.899  -6.159  0.00  0.00    +0.016 A 
ATOM     14  C   UNL     1       1.065   1.050  -4.920  0.00  0.00    +0.011 A 
ATOM     15 BR   UNL     1       3.806   0.436  -7.961  0.00  0.00    -0.050 Br
ENDBRANCH   3   9
BRANCH   1  20
ATOM     16  C   UNL     1       3.783   1.549   2.903  0.00  0.00    +0.162 A 
ATOM     17  C   UNL     1       3.386   0.411   3.587  0.00  0.00    +0.049 A 
ATOM     18  C   UNL     1       2.337  -0.352   3.108  0.00  0.00    +0.004 A 
ATOM     19  C   UNL     1       1.679   0.020   1.951  0.00  0.00    +0.006 A 
ATOM     20  C   UNL     1       2.073   1.151   1.261  0.00  0.00    -0.016 A 
ATOM     21  C   UNL     1       3.123   1.921   1.735  0.00  0.00    +0.160 A 
BRANCH  21  22
ATOM     22  O   UNL     1       3.509   3.037   1.061  0.00  0.00    -0.503 OA
ATOM     23  H   UNL     1       3.053   3.843   1.340  0.00  0.00    +0.292 HD
ENDBRANCH  21  22
BRANCH  16  24
ATOM     24  O   UNL     1       4.814   2.301   3.372  0.00  0.00    -0.489 OA
BRANCH  24  26
ATOM     25  C   UNL     1       6.573   2.824   4.945  0.00  0.00    +0.048 C 
ATOM     26  C   UNL     1       5.444   1.859   4.576  0.00  0.00    +0.226 C 
ENDBRANCH  24  26
ENDBRANCH  16  24
ENDBRANCH   1  20
BRANCH   5  27
ATOM     27  C   UNL     1      -2.092   0.801  -1.223  0.00  0.00    -0.040 A 
ATOM     28  C   UNL     1      -2.688   0.310  -0.074  0.00  0.00    +0.004 A 
ATOM     29  C   UNL     1      -3.897  -0.350  -0.149  0.00  0.00    +0.015 A 
ATOM     30  C   UNL     1      -4.513  -0.533  -1.388  0.00  0.00    +0.059 A 
ATOM     31  C   UNL     1      -3.904  -0.040  -2.543  0.00  0.00    +0.015 A 
ATOM     32  C   UNL     1      -2.698   0.624  -2.454  0.00  0.00    +0.004 A 
BRANCH  30  33
ATOM     33  C   UNL     1      -5.804  -1.246  -1.476  0.00  0.00    +0.339 C 
ATOM     34  O   UNL     1      -6.338  -1.404  -2.556  0.00  0.00    -0.245 OA
BRANCH  33  35
ATOM     35  O   UNL     1      -6.390  -1.720  -0.359  0.00  0.00    -0.464 OA
ATOM     36  C   UNL     1      -7.657  -2.409  -0.521  0.00  0.00    +0.280 C 
ENDBRANCH  33  35
ENDBRANCH  30  33
ENDBRANCH   5  27
TORSDOF 8
