REMARK  Name = ZINC24986272
REMARK  10 active torsions:
REMARK  status: ('A' for Active; 'I' for Inactive)
REMARK    1  A    between atoms: C_1  and  C_2
REMARK    2  A    between atoms: C_2  and  C_4
REMARK    3  A    between atoms: C_2  and  N_21
REMARK    4  A    between atoms: C_22  and  C_24
REMARK    5  A    between atoms: C_26  and  O_34
REMARK    6  A    between atoms: C_27  and  O_32
REMARK    7  A    between atoms: C_28  and  O_30
REMARK    8  A    between atoms: O_30  and  C_31
REMARK    9  A    between atoms: O_32  and  C_33
REMARK   10  A    between atoms: O_34  and  C_35
REMARK                            x       y       z     vdW  Elec       q    Type
REMARK                         _______ _______ _______ _____ _____    ______ ____
ROOT
ATOM      1  C   UNL     1       0.835  -0.501   1.155  0.00  0.00    +0.236 C 
ATOM      2  O   UNL     1       2.004  -0.774   0.986  0.00  0.00    -0.274 OA
ATOM      3  N   UNL     1       0.280  -0.644   2.375  0.00  0.00    -0.300 N 
ATOM      4  C   UNL     1      -1.161  -0.431   2.572  0.00  0.00    +0.110 C 
ATOM      5  C   UNL     1      -1.755  -1.670   3.249  0.00  0.00    +0.047 C 
ATOM      6  C   UNL     1      -0.980  -1.966   4.534  0.00  0.00    +0.064 C 
ATOM      7  C   UNL     1       0.485  -2.251   4.201  0.00  0.00    +0.047 C 
ATOM      8  C   UNL     1       1.102  -1.023   3.532  0.00  0.00    +0.110 C 
ATOM      9  C   UNL     1      -1.584  -3.158   5.228  0.00  0.00    +0.057 A 
ATOM     10  C   UNL     1      -1.816  -3.212   6.559  0.00  0.00    +0.039 A 
ATOM     11  N   UNL     1      -2.356  -4.399   6.836  0.00  0.00    -0.349 N 
ATOM     12  C   UNL     1      -2.468  -5.087   5.729  0.00  0.00    +0.171 A 
ATOM     13  N   UNL     1      -1.994  -4.343   4.703  0.00  0.00    -0.348 N 
ATOM     14  H   UNL     1      -1.955  -4.604   3.770  0.00  0.00    +0.166 HD
ATOM     15  C   UNL     1      -1.486  -2.078   7.498  0.00  0.00    +0.070 C 
ATOM     16  C   UNL     1      -0.528  -1.126   6.769  0.00  0.00    +0.088 C 
ATOM     17  N   UNL     1      -1.064  -0.808   5.438  0.00  0.00    -0.305 NA
ATOM     18  H   UNL     1      -0.597  -0.006   5.042  0.00  0.00    +0.123 HD
ATOM     19  H   UNL     1      -2.623  -4.704   7.718  0.00  0.00    +0.166 HD
ENDROOT
BRANCH   1  21
ATOM     20  C   UNL     1      -0.161   1.514   0.110  0.00  0.00    +0.038 C 
ATOM     21  C   UNL     1       0.002  -0.003   0.002  0.00  0.00    +0.156 C 
BRANCH  21  22
ATOM     22  N   UNL     1       0.668  -0.334  -1.260  0.00  0.00    -0.300 N 
ATOM     23  C   UNL     1      -0.055  -0.462  -2.390  0.00  0.00    +0.245 C 
ATOM     24  O   UNL     1      -1.260  -0.302  -2.362  0.00  0.00    -0.270 OA
ATOM     25  H   UNL     1       1.630  -0.462  -1.282  0.00  0.00    +0.150 HD
BRANCH  23  26
ATOM     26  C   UNL     1       0.616  -0.795  -3.662  0.00  0.00    +0.044 A 
ATOM     27  C   UNL     1       2.000  -0.985  -3.694  0.00  0.00    +0.062 A 
ATOM     28  C   UNL     1       2.626  -1.298  -4.886  0.00  0.00    +0.166 A 
ATOM     29  C   UNL     1       1.879  -1.424  -6.054  0.00  0.00    +0.204 A 
ATOM     30  C   UNL     1       0.499  -1.235  -6.025  0.00  0.00    +0.166 A 
ATOM     31  C   UNL     1      -0.132  -0.928  -4.834  0.00  0.00    +0.062 A 
BRANCH  30  32
ATOM     32  O   UNL     1      -0.228  -1.358  -7.168  0.00  0.00    -0.491 OA
ATOM     33  C   UNL     1      -1.638  -1.151  -7.064  0.00  0.00    +0.277 C 
ENDBRANCH  30  32
BRANCH  29  34
ATOM     34  O   UNL     1       2.496  -1.731  -7.225  0.00  0.00    -0.488 OA
ATOM     35  C   UNL     1       2.627  -3.117  -7.545  0.00  0.00    +0.277 C 
ENDBRANCH  29  34
BRANCH  28  36
ATOM     36  O   UNL     1       3.973  -1.482  -4.918  0.00  0.00    -0.491 OA
ATOM     37  C   UNL     1       4.677  -1.337  -3.684  0.00  0.00    +0.277 C 
ENDBRANCH  28  36
ENDBRANCH  23  26
ENDBRANCH  21  22
ENDBRANCH   1  21
TORSDOF 6
