REMARK  Name = ZINC04878167
REMARK  8 active torsions:
REMARK  status: ('A' for Active; 'I' for Inactive)
REMARK    1  A    between atoms: C_1  and  O_2
REMARK    2  A    between atoms: O_2  and  C_3
REMARK    3  A    between atoms: C_3  and  C_5
REMARK    4  A    between atoms: C_6  and  N_10
REMARK    5  A    between atoms: N_10  and  C_11
REMARK    6  A    between atoms: C_11  and  N_13
REMARK    7  A    between atoms: C_16  and  C_19
REMARK    8  A    between atoms: C_16  and  N_53
REMARK                            x       y       z     vdW  Elec       q    Type
REMARK                         _______ _______ _______ _____ _____    ______ ____
ROOT
ATOM      1  N   UNL     1       0.903   3.513  -0.308  0.00  0.00    -0.313 N 
ATOM      2  C   UNL     1       1.361   4.866  -0.654  0.00  0.00    +0.106 C 
ATOM      3  C   UNL     1       2.457   4.765  -1.713  0.00  0.00    +0.016 C 
ATOM      4  C   UNL     1       3.564   3.836  -1.212  0.00  0.00    +0.015 C 
ATOM      5  C   UNL     1       2.990   2.437  -0.973  0.00  0.00    +0.016 C 
ATOM      6  C   UNL     1       1.899   2.513   0.100  0.00  0.00    +0.106 C 
ENDROOT
BRANCH   4  12
ATOM      7  C   UNL     1       5.665   2.796  -1.816  0.00  0.00    -0.077 C 
ATOM      8  C   UNL     1       6.683   2.637  -2.948  0.00  0.00    -0.019 C 
ATOM      9  C   UNL     1       7.319   3.997  -3.250  0.00  0.00    -0.004 C 
ATOM     10  C   UNL     1       6.219   4.997  -3.616  0.00  0.00    -0.019 C 
ATOM     11  C   UNL     1       5.214   5.087  -2.465  0.00  0.00    -0.077 C 
ATOM     12  N   UNL     1       4.620   3.752  -2.241  0.00  0.00    +0.389 N 
ATOM     13  H   UNL     1       4.204   3.421  -3.120  0.00  0.00    -0.080 HD
ENDBRANCH   4  12
BRANCH   4  14
ATOM     14  C   UNL     1       4.125   4.375   0.079  0.00  0.00    +0.200 C 
ATOM     15  O   UNL     1       3.890   5.517   0.412  0.00  0.00    -0.278 OA
ATOM     16  N   UNL     1       4.886   3.587   0.864  0.00  0.00    -0.330 N 
ATOM     17  H   UNL     1       5.133   2.697   0.566  0.00  0.00    +0.145 HD
ATOM     18  H   UNL     1       5.189   3.910   1.728  0.00  0.00    +0.145 HD
ENDBRANCH   4  14
BRANCH   1  19
ATOM     19  C   UNL     1      -0.405   3.193  -0.370  0.00  0.00    +0.137 C 
ATOM     20  S   UNL     1      -0.905   1.578  -0.101  0.00  0.00    -0.018 S 
BRANCH  19  21
ATOM     21  N   UNL     1      -1.318   4.144  -0.649  0.00  0.00    -0.296 N 
ATOM     22  H   UNL     1      -1.761   4.153  -1.512  0.00  0.00    +0.154 HD
BRANCH  21  24
ATOM     23  C   UNL     1      -2.610   6.078   0.074  0.00  0.00    +0.117 A 
ATOM     24  C   UNL     1      -1.627   5.115   0.303  0.00  0.00    +0.054 A 
ATOM     25  C   UNL     1      -0.972   5.174   1.515  0.00  0.00    +0.032 A 
ATOM     26  C   UNL     1      -1.311   6.139   2.405  0.00  0.00    +0.048 A 
ATOM     27  S   UNL     1      -2.566   7.015   1.591  0.00  0.00    -0.088 S 
BRANCH  23  28
ATOM     28  C   UNL     1      -3.430   6.261  -1.064  0.00  0.00    +0.347 C 
ATOM     29  O   UNL     1      -3.322   5.515  -2.019  0.00  0.00    -0.244 OA
BRANCH  28  31
ATOM     30  C   UNL     1      -5.127   7.392  -2.272  0.00  0.00    +0.280 C 
ATOM     31  O   UNL     1      -4.332   7.265  -1.091  0.00  0.00    -0.464 OA
ENDBRANCH  28  31
ENDBRANCH  23  28
ENDBRANCH  21  24
ENDBRANCH  19  21
ENDBRANCH   1  19
TORSDOF 7
