REMARK  Name = ZINC06457190
REMARK  5 active torsions:
REMARK  status: ('A' for Active; 'I' for Inactive)
REMARK    1  A    between atoms: C_5  and  C_7
REMARK    2  A    between atoms: C_7  and  C_9
REMARK    3  A    between atoms: C_7  and  N_21
REMARK    4  A    between atoms: C_18  and  O_19
REMARK    5  A    between atoms: N_21  and  C_22
REMARK                            x       y       z     vdW  Elec       q    Type
REMARK                         _______ _______ _______ _____ _____    ______ ____
ROOT
ATOM      1  C   UNL     1       2.464   3.920  -0.001  0.00  0.00    +0.137 C 
ENDROOT
BRANCH   1   2
ATOM      2  C   UNL     1       2.756   4.237   1.443  0.00  0.00    +0.022 A 
ATOM      3  C   UNL     1       2.093   3.534   2.446  0.00  0.00    +0.030 A 
ATOM      4  C   UNL     1       2.339   3.793   3.761  0.00  0.00    +0.051 A 
ATOM      5  C   UNL     1       3.265   4.790   4.114  0.00  0.00    +0.022 A 
ATOM      6  C   UNL     1       3.541   5.090   5.461  0.00  0.00    +0.013 A 
ATOM      7  C   UNL     1       4.452   6.071   5.729  0.00  0.00    +0.020 A 
ATOM      8  C   UNL     1       5.078   6.743   4.681  0.00  0.00    +0.111 A 
ATOM      9  N   UNL     1       4.818   6.461   3.428  0.00  0.00    -0.251 NA
ATOM     10  C   UNL     1       3.937   5.512   3.098  0.00  0.00    +0.114 A 
ATOM     11  C   UNL     1       3.661   5.213   1.747  0.00  0.00    +0.148 A 
ATOM     12 CL   UNL     1       1.506   2.900   4.996  0.00  0.00    -0.083 Cl
BRANCH  11  13
ATOM     13  O   UNL     1       4.294   5.891   0.755  0.00  0.00    -0.504 OA
ATOM     14  H   UNL     1       3.797   6.649   0.418  0.00  0.00    +0.292 HD
ENDBRANCH  11  13
ENDBRANCH   1   2
BRANCH   1  19
ATOM     15  C   UNL     1       0.021   1.049  -0.205  0.00  0.00    +0.000 A 
ATOM     16  C   UNL     1      -1.187   1.718  -0.273  0.00  0.00    +0.001 A 
ATOM     17  C   UNL     1      -1.215   3.100  -0.244  0.00  0.00    +0.015 A 
ATOM     18  C   UNL     1      -0.033   3.813  -0.158  0.00  0.00    +0.023 A 
ATOM     19  C   UNL     1       1.176   3.144  -0.095  0.00  0.00    -0.009 A 
ATOM     20  C   UNL     1       1.202   1.762  -0.118  0.00  0.00    +0.007 A 
ATOM     21 BR   UNL     1      -0.069   5.704  -0.127  0.00  0.00    -0.050 Br
ENDBRANCH   1  19
BRANCH   1  22
ATOM     22  N   UNL     1       3.558   3.120  -0.556  0.00  0.00    -0.320 N 
ATOM     23  H   UNL     1       4.115   2.587   0.031  0.00  0.00    +0.148 HD
BRANCH  22  24
ATOM     24  C   UNL     1       3.798   3.126  -1.926  0.00  0.00    +0.097 A 
ATOM     25  C   UNL     1       2.991   3.889  -2.764  0.00  0.00    +0.041 A 
ATOM     26  C   UNL     1       3.244   3.889  -4.123  0.00  0.00    +0.005 A 
ATOM     27  C   UNL     1       4.293   3.115  -4.603  0.00  0.00    +0.018 A 
ATOM     28  C   UNL     1       5.049   2.377  -3.715  0.00  0.00    +0.084 A 
ATOM     29  N   UNL     1       4.833   2.357  -2.372  0.00  0.00    -0.350 N 
ATOM     30  H   UNL     1       5.412   1.799  -1.735  0.00  0.00    +0.166 HD
ENDBRANCH  22  24
ENDBRANCH   1  22
TORSDOF 5
