REMARK  Name = ZINC12542410
REMARK  6 active torsions:
REMARK  status: ('A' for Active; 'I' for Inactive)
REMARK    1  A    between atoms: C_1  and  C_2
REMARK    2  A    between atoms: C_5  and  N_8
REMARK    3  A    between atoms: C_11  and  C_16
REMARK    4  A    between atoms: C_16  and  S_17
REMARK    5  A    between atoms: S_17  and  C_18
REMARK    6  A    between atoms: C_18  and  C_19
REMARK                            x       y       z     vdW  Elec       q    Type
REMARK                         _______ _______ _______ _____ _____    ______ ____
ROOT
ATOM      1  N   UNL     1       1.162   3.484   0.009  0.00  0.00    -0.284 N 
ATOM      2  C   UNL     1       2.347   4.188   0.106  0.00  0.00    +0.224 A 
ATOM      3  N   UNL     1       2.328   5.515   0.208  0.00  0.00    -0.198 NA
ATOM      4  C   UNL     1       3.461   6.188   0.306  0.00  0.00    +0.146 A 
ATOM      5  N   UNL     1       4.617   5.548   0.292  0.00  0.00    -0.199 NA
ATOM      6  C   UNL     1       4.644   4.222   0.185  0.00  0.00    +0.217 A 
ATOM      7  N   UNL     1       3.507   3.541   0.092  0.00  0.00    -0.181 NA
ATOM      8  N   UNL     1       5.852   3.554   0.172  0.00  0.00    -0.327 N 
ATOM      9  H   UNL     1       0.320   3.960  -0.061  0.00  0.00    +0.155 HD
ATOM     10  H   UNL     1       5.872   2.588   0.094  0.00  0.00    +0.145 HD
ATOM     11  H   UNL     1       6.682   4.052   0.240  0.00  0.00    +0.145 HD
ENDROOT
BRANCH   1  16
ATOM     12  C   UNL     1       1.221  -2.188   0.024  0.00  0.00    +0.044 C 
ATOM     13  C   UNL     1       1.205  -0.681   0.021  0.00  0.00    -0.050 A 
ATOM     14  C   UNL     1       2.143   0.021   0.755  0.00  0.00    +0.005 A 
ATOM     15  C   UNL     1       2.132   1.402   0.754  0.00  0.00    +0.023 A 
ATOM     16  C   UNL     1       1.177   2.086   0.013  0.00  0.00    +0.034 A 
ATOM     17  C   UNL     1       0.236   1.378  -0.725  0.00  0.00    +0.023 A 
ATOM     18  C   UNL     1       0.253  -0.003  -0.718  0.00  0.00    +0.005 A 
ENDBRANCH   1  16
BRANCH   4  19
ATOM     19  C   UNL     1       3.434   7.690   0.428  0.00  0.00    +0.145 C 
BRANCH  19  20
ATOM     20  S   UNL     1       3.481   8.432  -1.227  0.00  0.00    -0.145 S 
BRANCH  20  21
ATOM     21  C   UNL     1       3.443  10.217  -0.909  0.00  0.00    +0.145 C 
BRANCH  21  22
ATOM     22  C   UNL     1       3.478  10.961  -2.219  0.00  0.00    +0.146 A 
ATOM     23  N   UNL     1       4.638  11.309  -2.749  0.00  0.00    -0.199 NA
ATOM     24  C   UNL     1       4.673  11.962  -3.908  0.00  0.00    +0.217 A 
ATOM     25  N   UNL     1       3.539  12.274  -4.527  0.00  0.00    -0.181 NA
ATOM     26  C   UNL     1       2.375  11.928  -3.988  0.00  0.00    +0.217 A 
ATOM     27  N   UNL     1       2.349  11.270  -2.831  0.00  0.00    -0.199 NA
ATOM     28  N   UNL     1       1.195  12.250  -4.627  0.00  0.00    -0.327 N 
ATOM     29  N   UNL     1       5.884  12.320  -4.463  0.00  0.00    -0.327 N 
ATOM     30  H   UNL     1       0.345  11.997  -4.233  0.00  0.00    +0.145 HD
ATOM     31  H   UNL     1       1.215  12.730  -5.470  0.00  0.00    +0.145 HD
ATOM     32  H   UNL     1       5.909  12.800  -5.306  0.00  0.00    +0.145 HD
ATOM     33  H   UNL     1       6.711  12.092  -4.011  0.00  0.00    +0.145 HD
ENDBRANCH  21  22
ENDBRANCH  20  21
ENDBRANCH  19  20
ENDBRANCH   4  19
TORSDOF 5
