REMARK  Name = ZINC02371413
REMARK  6 active torsions:
REMARK  status: ('A' for Active; 'I' for Inactive)
REMARK    1  A    between atoms: C_1  and  C_2
REMARK    2  A    between atoms: C_2  and  C_33
REMARK    3  A    between atoms: C_6  and  N_25
REMARK    4  A    between atoms: C_14  and  S_16
REMARK    5  A    between atoms: S_16  and  C_17
REMARK    6  A    between atoms: C_17  and  C_18
REMARK                            x       y       z     vdW  Elec       q    Type
REMARK                         _______ _______ _______ _____ _____    ______ ____
ROOT
ATOM      1  C   UNL     1       6.992   3.007  -0.171  0.00  0.00    +0.041 C 
ATOM      2  C   UNL     1       6.682   1.548   0.172  0.00  0.00    +0.068 C 
ATOM      3  C   UNL     1       5.223   1.237  -0.170  0.00  0.00    +0.070 C 
ATOM      4  C   UNL     1       4.994  -0.249  -0.105  0.00  0.00    -0.024 A 
ATOM      5  C   UNL     1       6.022  -1.139  -0.118  0.00  0.00    +0.020 A 
ATOM      6  C   UNL     1       5.756  -2.511  -0.065  0.00  0.00    +0.105 A 
ATOM      7  C   UNL     1       3.491  -2.117   0.018  0.00  0.00    +0.089 A 
ATOM      8  C   UNL     1       3.661  -0.723  -0.034  0.00  0.00    +0.035 A 
ATOM      9  C   UNL     1       2.424   0.080  -0.009  0.00  0.00    +0.093 A 
ATOM     10  C   UNL     1       1.224  -0.646   0.066  0.00  0.00    +0.077 A 
ATOM     11  S   UNL     1       1.731  -2.344   0.101  0.00  0.00    -0.066 S 
ATOM     12  C   UNL     1       0.004  -0.003   0.097  0.00  0.00    +0.148 A 
ATOM     13  N   UNL     1      -0.015   1.323   0.054  0.00  0.00    -0.209 NA
ATOM     14  C   UNL     1       1.122   2.004  -0.018  0.00  0.00    +0.190 A 
ATOM     15  N   UNL     1       2.304   1.424  -0.049  0.00  0.00    -0.221 NA
ATOM     16 CL   UNL     1      -1.474  -0.909   0.192  0.00  0.00    -0.061 Cl
ATOM     17  C   UNL     1       7.457  -0.681  -0.185  0.00  0.00    +0.199 C 
ATOM     18  O   UNL     1       7.522   0.682  -0.601  0.00  0.00    -0.369 OA
ATOM     19  C   UNL     1       6.925   1.306   1.663  0.00  0.00    +0.041 C 
ATOM     20  N   UNL     1       4.496  -3.026   0.003  0.00  0.00    -0.337 N 
ATOM     21  H   UNL     1       4.319  -4.037   0.042  0.00  0.00    +0.168 HD
ENDROOT
BRANCH   6  22
ATOM     22  N   UNL     1       6.807  -3.417  -0.083  0.00  0.00    -0.312 N 
ATOM     23  C   UNL     1       6.728  -4.292  -1.262  0.00  0.00    +0.134 C 
ATOM     24  C   UNL     1       7.936  -5.234  -1.273  0.00  0.00    +0.178 C 
ATOM     25  O   UNL     1       7.967  -5.975  -0.050  0.00  0.00    -0.377 OA
ATOM     26  C   UNL     1       8.044  -5.154   1.119  0.00  0.00    +0.178 C 
ATOM     27  C   UNL     1       6.838  -4.212   1.154  0.00  0.00    +0.134 C 
ENDBRANCH   6  22
BRANCH  14  28
ATOM     28  S   UNL     1       1.047   3.763  -0.074  0.00  0.00    -0.081 S 
BRANCH  28  29
ATOM     29  C   UNL     1      -0.746   4.004  -0.006  0.00  0.00    +0.112 C 
BRANCH  29  30
ATOM     30  C   UNL     1      -1.057   5.478  -0.043  0.00  0.00    -0.037 A 
ATOM     31  C   UNL     1      -1.154   6.193   1.136  0.00  0.00    +0.004 A 
ATOM     32  C   UNL     1      -1.434   7.547   1.102  0.00  0.00    +0.000 A 
ATOM     33  C   UNL     1      -1.627   8.182  -0.111  0.00  0.00    +0.000 A 
ATOM     34  C   UNL     1      -1.536   7.465  -1.289  0.00  0.00    +0.000 A 
ATOM     35  C   UNL     1      -1.250   6.113  -1.255  0.00  0.00    +0.004 A 
ENDBRANCH  29  30
ENDBRANCH  28  29
ENDBRANCH  14  28
TORSDOF 4
