REMARK  Name = ZINC63062052
REMARK  5 active torsions:
REMARK  status: ('A' for Active; 'I' for Inactive)
REMARK    1  A    between atoms: C_1  and  C_2
REMARK    2  A    between atoms: C_5  and  C_17
REMARK    3  A    between atoms: C_6  and  O_8
REMARK    4  A    between atoms: O_8  and  C_9
REMARK    5  A    between atoms: C_14  and  C_15
REMARK                            x       y       z     vdW  Elec       q    Type
REMARK                         _______ _______ _______ _____ _____    ______ ____
ROOT
ATOM      1  C   UNL     1      -0.488   1.455   0.200  0.00  0.00    +0.044 C 
ATOM      2  C   UNL     1      -0.351  -0.043   0.120  0.00  0.00    -0.047 A 
ATOM      3  C   UNL     1      -0.420  -0.677  -1.110  0.00  0.00    +0.004 A 
ATOM      4  C   UNL     1      -0.296  -2.047  -1.194  0.00  0.00    +0.015 A 
ATOM      5  C   UNL     1      -0.101  -2.801  -0.036  0.00  0.00    +0.054 A 
ATOM      6  C   UNL     1      -0.032  -2.157   1.207  0.00  0.00    +0.139 A 
ATOM      7  C   UNL     1      -0.153  -0.777   1.273  0.00  0.00    +0.050 A 
ENDROOT
BRANCH   5   8
ATOM      8  C   UNL     1       0.033  -4.269  -0.119  0.00  0.00    +0.098 C 
ATOM      9  N   UNL     1      -0.923  -4.993  -0.702  0.00  0.00    -0.387 N 
ATOM     10  N   UNL     1       1.108  -4.871   0.388  0.00  0.00    -0.344 N 
ATOM     11  H   UNL     1      -0.803  -5.948  -0.822  0.00  0.00    +0.157 HD
ATOM     12  H   UNL     1       1.804  -4.344   0.811  0.00  0.00    +0.144 HD
ATOM     13  H   UNL     1       1.196  -5.835   0.333  0.00  0.00    +0.144 HD
ATOM     14  H   UNL     1      -1.739  -4.565  -1.005  0.00  0.00    +0.157 HD
ENDBRANCH   5   8
BRANCH   6  15
ATOM     15  O   UNL     1       0.158  -2.880   2.339  0.00  0.00    -0.455 OA
BRANCH  15  16
ATOM     16  C   UNL     1       0.113  -2.225   3.529  0.00  0.00    +0.131 A 
ATOM     17  C   UNL     1       1.283  -1.755   4.109  0.00  0.00    +0.047 A 
ATOM     18  C   UNL     1       1.234  -1.090   5.318  0.00  0.00    +0.019 A 
ATOM     19  C   UNL     1       0.020  -0.890   5.951  0.00  0.00    +0.018 A 
ATOM     20  C   UNL     1      -1.148  -1.357   5.375  0.00  0.00    +0.022 A 
ATOM     21  C   UNL     1      -1.104  -2.019   4.162  0.00  0.00    -0.007 A 
ATOM     22  C   UNL     1      -2.377  -2.522   3.532  0.00  0.00    +0.047 C 
ATOM     23 BR   UNL     1      -0.043   0.022   7.606  0.00  0.00    -0.050 Br
ENDBRANCH  15  16
ENDBRANCH   6  15
TORSDOF 3
