REMARK  Name = ZINC01162598
REMARK  13 active torsions:
REMARK  status: ('A' for Active; 'I' for Inactive)
REMARK    1  A    between atoms: C_1  and  C_2
REMARK    2  A    between atoms: C_2  and  O_3
REMARK    3  A    between atoms: O_3  and  C_4
REMARK    4  A    between atoms: C_6  and  C_21
REMARK    5  A    between atoms: C_9  and  O_10
REMARK    6  A    between atoms: O_10  and  C_11
REMARK    7  A    between atoms: C_11  and  C_13
REMARK    8  A    between atoms: C_24  and  C_35
REMARK    9  A    between atoms: C_30  and  N_34
REMARK   10  A    between atoms: C_31  and  C_32
REMARK   11  A    between atoms: C_35  and  C_36
REMARK   12  A    between atoms: C_35  and  C_37
REMARK   13  A    between atoms: C_35  and  C_38
REMARK                            x       y       z     vdW  Elec       q    Type
REMARK                         _______ _______ _______ _____ _____    ______ ____
ROOT
ATOM      1  C   UNL     1      -2.160  -1.985   0.700  0.00  0.00    +0.163 A 
ATOM      2  C   UNL     1      -1.044  -2.721   0.335  0.00  0.00    +0.054 A 
ATOM      3  C   UNL     1      -0.929  -4.042   0.726  0.00  0.00    -0.031 A 
ATOM      4  C   UNL     1      -1.927  -4.632   1.480  0.00  0.00    +0.008 A 
ATOM      5  C   UNL     1      -3.043  -3.904   1.847  0.00  0.00    +0.050 A 
ATOM      6  C   UNL     1      -3.162  -2.578   1.463  0.00  0.00    +0.173 A 
ENDROOT
BRANCH   3   7
ATOM      7  C   UNL     1       0.285  -4.840   0.328  0.00  0.00    +0.101 C 
ATOM      8  C   UNL     1       0.855  -5.536   1.538  0.00  0.00    +0.050 A 
ATOM      9  C   UNL     1       1.547  -5.000   2.615  0.00  0.00    +0.076 A 
ATOM     10  N   UNL     1       1.849  -5.980   3.434  0.00  0.00    -0.175 NA
ATOM     11  N   UNL     1       1.351  -7.177   2.894  0.00  0.00    -0.246 N 
ATOM     12  H   UNL     1       1.431  -8.059   3.291  0.00  0.00    +0.192 HD
ATOM     13  C   UNL     1       0.746  -6.885   1.732  0.00  0.00    +0.222 A 
ATOM     14  O   UNL     1       0.121  -7.704   0.850  0.00  0.00    -0.423 OA
ATOM     15  C   UNL     1      -0.162  -7.207  -0.371  0.00  0.00    +0.200 C 
ATOM     16  C   UNL     1      -0.105  -5.892  -0.681  0.00  0.00    +0.098 C 
BRANCH   9  17
ATOM     17  C   UNL     1       1.893  -3.546   2.810  0.00  0.00    +0.007 C 
ATOM     18  C   UNL     1       0.616  -2.753   3.095  0.00  0.00    +0.017 C 
ATOM     19  C   UNL     1       2.855  -3.405   3.991  0.00  0.00    +0.017 C 
ATOM     20  C   UNL     1       2.557  -3.006   1.543  0.00  0.00    +0.017 C 
ENDBRANCH   9  17
BRANCH  15  21
ATOM     21  N   UNL     1      -0.532  -8.087  -1.357  0.00  0.00    -0.328 N 
ATOM     22  H   UNL     1      -0.583  -9.037  -1.166  0.00  0.00    +0.145 HD
ATOM     23  H   UNL     1      -0.742  -7.760  -2.246  0.00  0.00    +0.145 HD
ENDBRANCH  15  21
BRANCH  16  24
ATOM     24  C   UNL     1      -0.424  -5.482  -2.015  0.00  0.00    +0.101 C 
ATOM     25  N   UNL     1      -0.678  -5.157  -3.074  0.00  0.00    -0.191 NA
ENDBRANCH  16  24
ENDBRANCH   3   7
BRANCH   1  26
ATOM     26  O   UNL     1      -2.275  -0.685   0.317  0.00  0.00    -0.489 OA
BRANCH  26  28
ATOM     27  C   UNL     1      -1.513   1.319  -0.799  0.00  0.00    +0.048 C 
ATOM     28  C   UNL     1      -1.209  -0.143  -0.466  0.00  0.00    +0.226 C 
ENDBRANCH  26  28
ENDBRANCH   1  26
BRANCH   6  29
ATOM     29  O   UNL     1      -4.256  -1.858   1.828  0.00  0.00    -0.418 OA
BRANCH  29  30
ATOM     30  C   UNL     1      -5.237  -1.694   0.919  0.00  0.00    +0.350 C 
ATOM     31  O   UNL     1      -5.169  -2.256  -0.156  0.00  0.00    -0.244 OA
BRANCH  30  32
ATOM     32  C   UNL     1      -6.392  -0.832   1.229  0.00  0.00    +0.129 A 
ATOM     33  C   UNL     1      -6.359   0.531   0.911  0.00  0.00    +0.140 A 
ATOM     34  C   UNL     1      -7.446   1.332   1.205  0.00  0.00    +0.039 A 
ATOM     35  C   UNL     1      -8.565   0.790   1.812  0.00  0.00    +0.006 A 
ATOM     36  C   UNL     1      -8.606  -0.555   2.130  0.00  0.00    +0.039 A 
ATOM     37  C   UNL     1      -7.530  -1.372   1.837  0.00  0.00    +0.140 A 
ATOM     38  F   UNL     1      -7.576  -2.687   2.143  0.00  0.00    -0.205 F 
ATOM     39  F   UNL     1      -5.267   1.062   0.319  0.00  0.00    -0.205 F 
ENDBRANCH  30  32
ENDBRANCH  29  30
ENDBRANCH   6  29
TORSDOF 9
