REMARK  Name = ZINC37968768
REMARK  3 active torsions:
REMARK  status: ('A' for Active; 'I' for Inactive)
REMARK    1  A    between atoms: C_4  and  N_6
REMARK    2  A    between atoms: N_6  and  C_7
REMARK    3  A    between atoms: C_7  and  C_12
REMARK                            x       y       z     vdW  Elec       q    Type
REMARK                         _______ _______ _______ _____ _____    ______ ____
ROOT
ATOM      1  N   UNL     1       1.522  -1.462  -1.011  0.00  0.00    +0.392 N 
ATOM      2  H   UNL     1       1.177  -0.578  -1.356  0.00  0.00    -0.084 HD
ATOM      3  H   UNL     1       2.454  -1.619  -1.362  0.00  0.00    -0.084 HD
ENDROOT
BRANCH   1   7
ATOM      4  C   UNL     1       3.375  -0.404   1.763  0.00  0.00    -0.002 C 
ATOM      5  C   UNL     1       3.179  -1.872   2.219  0.00  0.00    -0.002 C 
ATOM      6  C   UNL     1       2.504  -2.525   0.988  0.00  0.00    -0.016 C 
ATOM      7  C   UNL     1       1.549  -1.436   0.458  0.00  0.00    -0.070 C 
ATOM      8  C   UNL     1       2.103  -0.087   0.951  0.00  0.00    -0.016 C 
ENDBRANCH   1   7
BRANCH   1   9
ATOM      9  C   UNL     1       0.638  -2.543  -1.465  0.00  0.00    +0.036 C 
ATOM     10  C   UNL     1       1.272  -3.910  -1.149  0.00  0.00    -0.001 C 
ATOM     11  C   UNL     1       1.466  -4.628  -2.501  0.00  0.00    -0.001 C 
ATOM     12  C   UNL     1       1.522  -3.479  -3.537  0.00  0.00    -0.001 C 
ATOM     13  C   UNL     1       0.469  -2.480  -2.997  0.00  0.00    -0.001 C 
BRANCH   9  14
ATOM     14  C   UNL     1      -0.706  -2.429  -0.792  0.00  0.00    +0.345 C 
ATOM     15  O   UNL     1      -1.253  -1.343  -0.705  0.00  0.00    -0.248 OA
ATOM     16  O   UNL     1      -1.246  -3.422  -0.335  0.00  0.00    -0.248 OA
ENDBRANCH   9  14
ENDBRANCH   1   9
TORSDOF 3
