REMARK  Name = ZINC39580082
REMARK  12 active torsions:
REMARK  status: ('A' for Active; 'I' for Inactive)
REMARK    1  A    between atoms: C_1  and  O_2
REMARK    2  A    between atoms: O_2  and  C_3
REMARK    3  A    between atoms: C_3  and  C_5
REMARK    4  A    between atoms: N_8  and  N_9
REMARK    5  A    between atoms: N_9  and  C_10
REMARK    6  A    between atoms: C_10  and  N_12
REMARK    7  A    between atoms: C_14  and  C_23
REMARK    8  A    between atoms: N_17  and  N_18
REMARK    9  A    between atoms: N_18  and  C_19
REMARK   10  A    between atoms: C_19  and  N_21
REMARK   11  A    between atoms: C_23  and  O_25
REMARK   12  A    between atoms: O_25  and  C_26
REMARK                            x       y       z     vdW  Elec       q    Type
REMARK                         _______ _______ _______ _____ _____    ______ ____
ROOT
ATOM      1  C   UNL     1      -1.388  -2.611  -0.038  0.00  0.00    +0.149 C 
ATOM      2  C   UNL     1      -0.756  -3.079  -1.329  0.00  0.00    +0.052 C 
ATOM      3  N   UNL     1      -0.064  -2.275  -2.045  0.00  0.00    -0.189 NA
ATOM      4  C   UNL     1      -0.954  -4.515  -1.758  0.00  0.00    +0.074 C 
ATOM      5  C   UNL     1      -2.459  -4.805  -1.818  0.00  0.00    +0.149 C 
ATOM      6  C   UNL     1      -3.092  -4.336  -0.527  0.00  0.00    +0.052 C 
ATOM      7  N   UNL     1      -3.783  -5.141   0.189  0.00  0.00    -0.189 NA
ATOM      8  C   UNL     1      -2.894  -2.901  -0.093  0.00  0.00    +0.074 C 
ENDROOT
BRANCH   1   9
ATOM      9  C   UNL     1      -1.164  -1.130   0.126  0.00  0.00    +0.316 C 
ATOM     10  O   UNL     1      -2.109  -0.380   0.200  0.00  0.00    -0.250 OA
BRANCH   9  12
ATOM     11  C   UNL     1       0.223   0.771   0.348  0.00  0.00    +0.280 C 
ATOM     12  O   UNL     1       0.085  -0.643   0.192  0.00  0.00    -0.467 OA
ENDBRANCH   9  12
ENDBRANCH   1   9
BRANCH   3  13
ATOM     13  N   UNL     1       0.615  -2.750  -3.175  0.00  0.00    -0.219 N 
ATOM     14  H   UNL     1       0.543  -3.684  -3.427  0.00  0.00    +0.176 HD
BRANCH  13  15
ATOM     15  C   UNL     1       1.366  -1.909  -3.912  0.00  0.00    +0.147 C 
ATOM     16  S   UNL     1       2.195  -2.489  -5.293  0.00  0.00    -0.017 S 
BRANCH  15  17
ATOM     17  N   UNL     1       1.465  -0.611  -3.563  0.00  0.00    -0.339 N 
ATOM     18  H   UNL     1       0.996  -0.282  -2.780  0.00  0.00    +0.144 HD
ATOM     19  H   UNL     1       2.006  -0.005  -4.093  0.00  0.00    +0.144 HD
ENDBRANCH  15  17
ENDBRANCH  13  15
ENDBRANCH   3  13
BRANCH   7  20
ATOM     20  N   UNL     1      -4.486  -4.661   1.302  0.00  0.00    -0.219 N 
ATOM     21  H   UNL     1      -4.429  -3.723   1.544  0.00  0.00    +0.176 HD
BRANCH  20  22
ATOM     22  C   UNL     1      -5.242  -5.501   2.035  0.00  0.00    +0.147 C 
ATOM     23  S   UNL     1      -6.101  -4.915   3.395  0.00  0.00    -0.017 S 
BRANCH  22  24
ATOM     24  N   UNL     1      -5.322  -6.804   1.699  0.00  0.00    -0.339 N 
ATOM     25  H   UNL     1      -4.835  -7.136   0.928  0.00  0.00    +0.144 HD
ATOM     26  H   UNL     1      -5.866  -7.409   2.227  0.00  0.00    +0.144 HD
ENDBRANCH  22  24
ENDBRANCH  20  22
ENDBRANCH   7  20
BRANCH   5  27
ATOM     27  C   UNL     1      -3.070  -4.069  -2.982  0.00  0.00    +0.316 C 
ATOM     28  O   UNL     1      -2.377  -3.381  -3.693  0.00  0.00    -0.250 OA
BRANCH  27  29
ATOM     29  O   UNL     1      -4.385  -4.176  -3.228  0.00  0.00    -0.467 OA
ATOM     30  C   UNL     1      -4.897  -3.451  -4.348  0.00  0.00    +0.280 C 
ENDBRANCH  27  29
ENDBRANCH   5  27
TORSDOF 10
