REMARK  Name = ZINC49686642
REMARK  7 active torsions:
REMARK  status: ('A' for Active; 'I' for Inactive)
REMARK    1  A    between atoms: C_1  and  C_2
REMARK    2  A    between atoms: C_4  and  C_8
REMARK    3  A    between atoms: C_5  and  C_7
REMARK    4  A    between atoms: C_8  and  N_9
REMARK    5  A    between atoms: N_9  and  C_10
REMARK    6  A    between atoms: C_10  and  C_12
REMARK    7  A    between atoms: C_10  and  C_13
REMARK                            x       y       z     vdW  Elec       q    Type
REMARK                         _______ _______ _______ _____ _____    ______ ____
ROOT
ATOM      1  C   UNL     1      -3.219  -4.705   1.354  0.00  0.00    -0.044 C 
ATOM      2  C   UNL     1      -4.523  -3.993   0.991  0.00  0.00    -0.009 C 
ENDROOT
BRANCH   1   3
ATOM      3  C   UNL     1      -3.347  -5.320   2.724  0.00  0.00    -0.060 A 
ATOM      4  C   UNL     1      -3.197  -4.531   3.851  0.00  0.00    +0.004 A 
ATOM      5  C   UNL     1      -3.313  -5.085   5.111  0.00  0.00    +0.028 A 
ATOM      6  C   UNL     1      -3.580  -6.439   5.247  0.00  0.00    +0.067 A 
ATOM      7  C   UNL     1      -3.732  -7.236   4.110  0.00  0.00    +0.067 A 
ATOM      8  C   UNL     1      -3.619  -6.668   2.849  0.00  0.00    +0.029 A 
ATOM      9  N   UNL     1      -3.990  -8.530   4.556  0.00  0.00    -0.306 N 
ATOM     10  H   UNL     1      -4.140  -9.305   3.993  0.00  0.00    +0.170 HD
ATOM     11  C   UNL     1      -3.995  -8.521   5.902  0.00  0.00    +0.325 A 
ATOM     12  O   UNL     1      -4.191  -9.492   6.609  0.00  0.00    -0.247 OA
ATOM     13  N   UNL     1      -3.751  -7.274   6.348  0.00  0.00    -0.306 N 
ATOM     14  H   UNL     1      -3.703  -7.003   7.279  0.00  0.00    +0.170 HD
ENDBRANCH   1   3
BRANCH   1  15
ATOM     15  N   UNL     1      -2.115  -3.736   1.355  0.00  0.00    +0.386 N 
ATOM     16  H   UNL     1      -1.271  -4.187   1.673  0.00  0.00    -0.085 HD
ATOM     17  H   UNL     1      -2.340  -2.970   1.971  0.00  0.00    -0.085 HD
BRANCH  15  18
ATOM     18  C   UNL     1      -1.912  -3.224  -0.008  0.00  0.00    -0.045 C 
BRANCH  18  22
ATOM     19  C   UNL     1      -0.018   1.503   0.010  0.00  0.00    +0.051 C 
ATOM     20  C   UNL     1       0.002  -0.004   0.002  0.00  0.00    -0.013 A 
ATOM     21  C   UNL     1      -1.039  -0.872   0.002  0.00  0.00    +0.013 A 
ATOM     22  C   UNL     1      -0.780  -2.230  -0.007  0.00  0.00    -0.054 A 
ATOM     23  C   UNL     1       0.507  -2.653  -0.016  0.00  0.00    -0.012 A 
ATOM     24  S   UNL     1       1.404  -1.109  -0.018  0.00  0.00    -0.098 S 
ATOM     25  C   UNL     1       1.043  -4.062  -0.027  0.00  0.00    +0.052 C 
ENDBRANCH  18  22
ENDBRANCH  15  18
ENDBRANCH   1  15
TORSDOF 4
