REMARK  Name = ZINC54965769
REMARK  7 active torsions:
REMARK  status: ('A' for Active; 'I' for Inactive)
REMARK    1  A    between atoms: C_1  and  C_2
REMARK    2  A    between atoms: C_6  and  C_8
REMARK    3  A    between atoms: C_8  and  S_9
REMARK    4  A    between atoms: S_9  and  C_10
REMARK    5  A    between atoms: C_11  and  C_18
REMARK    6  A    between atoms: C_12  and  C_17
REMARK    7  A    between atoms: C_14  and  C_16
REMARK                            x       y       z     vdW  Elec       q    Type
REMARK                         _______ _______ _______ _____ _____    ______ ____
ROOT
ATOM      1  C   UNL     1       1.622  -4.015   4.517  0.00  0.00    +0.108 A 
ATOM      2  C   UNL     1       2.778  -4.405   5.215  0.00  0.00    +0.047 A 
ATOM      3  C   UNL     1       2.634  -5.108   6.415  0.00  0.00    -0.036 A 
ATOM      4  C   UNL     1       1.355  -5.389   6.864  0.00  0.00    +0.027 A 
ATOM      5  C   UNL     1       0.265  -4.972   6.122  0.00  0.00    +0.040 A 
ATOM      6  N   UNL     1       0.421  -4.306   4.995  0.00  0.00    -0.245 NA
ATOM      7  C   UNL     1      -1.126  -5.281   6.613  0.00  0.00    +0.065 C 
ATOM      8  C   UNL     1       3.842  -5.548   7.201  0.00  0.00    +0.044 C 
ENDROOT
BRANCH   2   9
ATOM      9  C   UNL     1       4.118  -4.079   4.691  0.00  0.00    +0.097 C 
ATOM     10  N   UNL     1       4.533  -4.614   3.542  0.00  0.00    -0.387 N 
ATOM     11  N   UNL     1       4.914  -3.249   5.365  0.00  0.00    -0.344 N 
ATOM     12  H   UNL     1       3.954  -5.218   3.052  0.00  0.00    +0.157 HD
ATOM     13  H   UNL     1       4.612  -2.859   6.201  0.00  0.00    +0.144 HD
ATOM     14  H   UNL     1       5.795  -3.035   5.021  0.00  0.00    +0.144 HD
ATOM     15  H   UNL     1       5.414  -4.400   3.198  0.00  0.00    +0.157 HD
ENDBRANCH   2   9
BRANCH   1  16
ATOM     16  S   UNL     1       1.770  -3.127   3.002  0.00  0.00    -0.101 S 
BRANCH  16  17
ATOM     17  C   UNL     1       0.054  -2.845   2.489  0.00  0.00    +0.111 C 
BRANCH  17  23
ATOM     18  C   UNL     1      -0.018   1.503   0.010  0.00  0.00    +0.044 C 
ATOM     19  C   UNL     1       0.002  -0.004   0.002  0.00  0.00    -0.050 A 
ATOM     20  C   UNL     1       0.006  -0.689  -1.199  0.00  0.00    +0.003 A 
ATOM     21  C   UNL     1       0.025  -2.071  -1.207  0.00  0.00    +0.001 A 
ATOM     22  C   UNL     1       0.040  -2.768  -0.013  0.00  0.00    +0.004 A 
ATOM     23  C   UNL     1       0.037  -2.084   1.188  0.00  0.00    -0.037 A 
ATOM     24  C   UNL     1       0.023  -0.702   1.195  0.00  0.00    +0.007 A 
ENDBRANCH  17  23
ENDBRANCH  16  17
ENDBRANCH   1  16
TORSDOF 4
