REMARK  Name = ZINC26842135
REMARK  5 active torsions:
REMARK  status: ('A' for Active; 'I' for Inactive)
REMARK    1  A    between atoms: C_7  and  N_15
REMARK    2  A    between atoms: N_15  and  C_16
REMARK    3  A    between atoms: N_22  and  S_23
REMARK    4  A    between atoms: S_23  and  C_26
REMARK    5  A    between atoms: C_29  and  N_32
REMARK                            x       y       z     vdW  Elec       q    Type
REMARK                         _______ _______ _______ _____ _____    ______ ____
ROOT
ATOM      1  C   UNL     1      -5.570   3.404   0.188  0.00  0.00    +0.050 A 
ATOM      2  C   UNL     1      -6.882   2.940   0.285  0.00  0.00    +0.028 A 
ATOM      3  C   UNL     1      -7.846   3.792   0.790  0.00  0.00    +0.047 A 
ATOM      4  C   UNL     1      -7.478   5.075   1.183  0.00  0.00    +0.138 A 
ATOM      5  N   UNL     1      -6.223   5.482   1.076  0.00  0.00    -0.237 NA
ATOM      6  C   UNL     1      -5.277   4.693   0.604  0.00  0.00    +0.136 A 
ATOM      7  N   UNL     1      -8.441   5.941   1.693  0.00  0.00    -0.199 N 
ATOM      8  H   UNL     1      -9.459   5.575   1.893  0.00  0.00    +0.175 HD
ENDROOT
BRANCH   7   9
ATOM      9  S   UNL     1      -8.055   7.522   2.000  0.00  0.00    +0.073 S 
ATOM     10  O   UNL     1      -9.253   8.160   2.419  0.00  0.00    -0.150 OA
ATOM     11  O   UNL     1      -6.881   7.505   2.801  0.00  0.00    -0.150 OA
BRANCH   9  12
ATOM     12  C   UNL     1      -7.605   8.256   0.462  0.00  0.00    +0.109 A 
ATOM     13  C   UNL     1      -6.272   8.345   0.104  0.00  0.00    +0.030 A 
ATOM     14  C   UNL     1      -5.916   8.915  -1.102  0.00  0.00    +0.024 A 
ATOM     15  C   UNL     1      -6.898   9.408  -1.952  0.00  0.00    +0.025 A 
ATOM     16  C   UNL     1      -8.236   9.322  -1.587  0.00  0.00    +0.024 A 
ATOM     17  C   UNL     1      -8.585   8.746  -0.381  0.00  0.00    +0.030 A 
BRANCH  15  18
ATOM     18  N   UNL     1      -6.541   9.989  -3.171  0.00  0.00    -0.358 N 
ATOM     19  H   UNL     1      -7.320  10.379  -3.843  0.00  0.00    +0.142 HD
ATOM     20  H   UNL     1      -5.482  10.057  -3.459  0.00  0.00    +0.142 HD
ENDBRANCH  15  18
ENDBRANCH   9  12
ENDBRANCH   7   9
BRANCH   1  21
ATOM     21  N   UNL     1      -4.561   2.575  -0.318  0.00  0.00    -0.312 N 
ATOM     22  H   UNL     1      -4.784   1.527  -0.567  0.00  0.00    +0.152 HD
BRANCH  21  29
ATOM     23  C   UNL     1      -1.669   2.342   2.724  0.00  0.00    +0.001 A 
ATOM     24  C   UNL     1      -0.391   2.855   2.502  0.00  0.00    +0.002 A 
ATOM     25  C   UNL     1      -0.062   3.432   1.317  0.00  0.00    +0.026 A 
ATOM     26  C   UNL     1      -1.021   3.517   0.287  0.00  0.00    +0.049 A 
ATOM     27  C   UNL     1      -2.321   2.994   0.517  0.00  0.00    +0.020 A 
ATOM     28  C   UNL     1      -2.622   2.400   1.755  0.00  0.00    +0.012 A 
ATOM     29  C   UNL     1      -3.290   3.073  -0.503  0.00  0.00    +0.050 A 
ATOM     30  C   UNL     1      -2.914   3.677  -1.720  0.00  0.00    +0.020 A 
ATOM     31  C   UNL     1      -3.827   3.791  -2.781  0.00  0.00    +0.012 A 
ATOM     32  C   UNL     1      -3.438   4.378  -3.945  0.00  0.00    +0.001 A 
ATOM     33  C   UNL     1      -2.142   4.871  -4.099  0.00  0.00    +0.002 A 
ATOM     34  C   UNL     1      -1.231   4.779  -3.094  0.00  0.00    +0.026 A 
ATOM     35  C   UNL     1      -1.594   4.177  -1.872  0.00  0.00    +0.049 A 
ATOM     36  N   UNL     1      -0.711   4.081  -0.879  0.00  0.00    -0.354 N 
ATOM     37  H   UNL     1       0.300   4.483  -1.044  0.00  0.00    +0.166 HD
ENDBRANCH  21  29
ENDBRANCH   1  21
TORSDOF 5
