REMARK  Name = ZINC23259810
REMARK  14 active torsions:
REMARK  status: ('A' for Active; 'I' for Inactive)
REMARK    1  A    between atoms: C_1  and  C_2
REMARK    2  A    between atoms: C_4  and  C_32
REMARK    3  A    between atoms: C_5  and  N_9
REMARK    4  A    between atoms: C_6  and  C_8
REMARK    5  A    between atoms: C_10  and  C_12
REMARK    6  A    between atoms: C_12  and  N_13
REMARK    7  A    between atoms: C_14  and  C_16
REMARK    8  A    between atoms: C_16  and  N_17
REMARK    9  A    between atoms: N_17  and  C_18
REMARK   10  A    between atoms: N_17  and  C_19
REMARK   11  A    between atoms: C_19  and  C_21
REMARK   12  A    between atoms: C_19  and  C_22
REMARK   13  A    between atoms: C_25  and  S_28
REMARK   14  A    between atoms: S_28  and  N_31
REMARK                            x       y       z     vdW  Elec       q    Type
REMARK                         _______ _______ _______ _____ _____    ______ ____
ROOT
ATOM      1  N   UNL     1      -1.562   3.587  10.109  0.00  0.00    -0.308 N 
ATOM      2  C   UNL     1      -1.097   3.250   8.890  0.00  0.00    +0.197 C 
ATOM      3  O   UNL     1      -0.376   4.013   8.284  0.00  0.00    -0.278 OA
ATOM      4  H   UNL     1      -2.216   2.894  10.660  0.00  0.00    +0.149 HD
ENDROOT
BRANCH   1   5
ATOM      5  C   UNL     1      -1.198   4.877  10.702  0.00  0.00    +0.200 C 
BRANCH   5   7
ATOM      6  N   UNL     1      -1.647   6.120  12.792  0.00  0.00    -0.284 N 
ATOM      7  C   UNL     1      -1.843   5.008  12.057  0.00  0.00    +0.234 C 
ATOM      8  O   UNL     1      -2.540   4.112  12.486  0.00  0.00    -0.274 OA
ATOM      9  H   UNL     1      -0.953   6.897  12.440  0.00  0.00    +0.155 HD
BRANCH   6  14
ATOM     10  C   UNL     1      -4.402   6.797  17.705  0.00  0.00    +0.044 C 
ATOM     11  C   UNL     1      -3.670   6.617  16.400  0.00  0.00    -0.050 A 
ATOM     12  C   UNL     1      -2.297   6.772  16.352  0.00  0.00    +0.008 A 
ATOM     13  C   UNL     1      -1.623   6.608  15.158  0.00  0.00    -0.029 A 
ATOM     14  C   UNL     1      -2.326   6.286  14.004  0.00  0.00    +0.039 A 
ATOM     15  C   UNL     1      -3.706   6.136  14.055  0.00  0.00    -0.029 A 
ATOM     16  C   UNL     1      -4.373   6.296  15.253  0.00  0.00    +0.008 A 
ATOM     17  C   UNL     1      -4.474   5.792  12.804  0.00  0.00    +0.045 C 
ATOM     18  C   UNL     1      -0.127   6.777  15.106  0.00  0.00    +0.045 C 
ENDBRANCH   6  14
ENDBRANCH   5   7
ENDBRANCH   1   5
BRANCH   2  19
ATOM     19  C   UNL     1      -1.472   1.923   8.281  0.00  0.00    +0.019 C 
BRANCH  19  20
ATOM     20  N   UNL     1      -0.843   1.796   6.960  0.00  0.00    +0.388 N 
ATOM     21  C   UNL     1      -1.391   2.781   6.018  0.00  0.00    -0.095 C 
ATOM     22  H   UNL     1       0.232   2.001   7.076  0.00  0.00    -0.081 HD
BRANCH  20  23
ATOM     23  C   UNL     1      -0.988   0.430   6.438  0.00  0.00    -0.041 C 
ATOM     24  C   UNL     1      -0.243   0.312   5.106  0.00  0.00    -0.008 C 
BRANCH  23  25
ATOM     25  C   UNL     1      -0.409  -0.549   7.426  0.00  0.00    -0.061 A 
ATOM     26  C   UNL     1      -1.126  -1.677   7.782  0.00  0.00    +0.004 A 
ATOM     27  C   UNL     1      -0.595  -2.576   8.688  0.00  0.00    +0.029 A 
ATOM     28  C   UNL     1       0.652  -2.347   9.238  0.00  0.00    +0.105 A 
ATOM     29  C   UNL     1       1.367  -1.217   8.887  0.00  0.00    +0.029 A 
ATOM     30  C   UNL     1       0.838  -0.321   7.977  0.00  0.00    +0.004 A 
BRANCH  28  31
ATOM     31  S   UNL     1       1.329  -3.493  10.394  0.00  0.00    +0.056 S 
ATOM     32  O   UNL     1       0.229  -4.183  10.972  0.00  0.00    -0.153 OA
ATOM     33  O   UNL     1       2.273  -2.773  11.175  0.00  0.00    -0.153 OA
BRANCH  31  34
ATOM     34  N   UNL     1       2.187  -4.613   9.527  0.00  0.00    -0.204 NA
ATOM     35  H   UNL     1       2.628  -5.350  10.215  0.00  0.00    +0.144 HD
ATOM     36  H   UNL     1       2.989  -4.108   8.968  0.00  0.00    +0.144 HD
ENDBRANCH  31  34
ENDBRANCH  28  31
ENDBRANCH  23  25
ENDBRANCH  20  23
ENDBRANCH  19  20
ENDBRANCH   2  19
TORSDOF 9
