REMARK  Name = ZINC44714544
REMARK  8 active torsions:
REMARK  status: ('A' for Active; 'I' for Inactive)
REMARK    1  A    between atoms: C_1  and  C_2
REMARK    2  A    between atoms: C_3  and  C_14
REMARK    3  A    between atoms: C_6  and  C_12
REMARK    4  A    between atoms: C_14  and  C_15
REMARK    5  A    between atoms: C_15  and  N_16
REMARK    6  A    between atoms: C_17  and  C_19
REMARK    7  A    between atoms: C_30  and  C_32
REMARK    8  A    between atoms: N_36  and  C_37
REMARK                            x       y       z     vdW  Elec       q    Type
REMARK                         _______ _______ _______ _____ _____    ______ ____
ROOT
ATOM      1  C   UNL     1       2.574   0.063  -6.298  0.00  0.00    +0.100 C 
ATOM      2  C   UNL     1       2.132  -0.809  -7.494  0.00  0.00    +0.121 C 
ATOM      3  N   UNL     1       2.883  -0.266  -8.651  0.00  0.00    -0.295 N 
ATOM      4  C   UNL     1       4.226   0.044  -8.105  0.00  0.00    +0.115 C 
ATOM      5  C   UNL     1       3.949   0.621  -6.702  0.00  0.00    -0.004 C 
ATOM      6  C   UNL     1       5.018   0.153  -5.720  0.00  0.00    -0.010 C 
ATOM      7  C   UNL     1       6.366   0.767  -6.109  0.00  0.00    -0.082 C 
ATOM      8  N   UNL     1       6.263   2.231  -6.090  0.00  0.00    +0.379 N 
ATOM      9  C   UNL     1       5.299   2.678  -7.103  0.00  0.00    -0.082 C 
ATOM     10  C   UNL     1       3.906   2.145  -6.756  0.00  0.00    -0.010 C 
ATOM     11  C   UNL     1       2.445  -0.094  -9.914  0.00  0.00    +0.263 C 
ATOM     12  O   UNL     1       3.233   0.179 -10.800  0.00  0.00    -0.268 OA
ATOM     13  H   UNL     1       5.954   2.534  -5.178  0.00  0.00    -0.086 HD
ATOM     14  H   UNL     1       7.167   2.634  -6.287  0.00  0.00    -0.086 HD
ENDROOT
BRANCH  11  15
ATOM     15  C   UNL     1       1.017  -0.236 -10.220  0.00  0.00    +0.104 A 
ATOM     16  C   UNL     1      -0.019  -0.194  -9.312  0.00  0.00    +0.032 A 
ATOM     17  C   UNL     1      -1.205  -0.371 -10.032  0.00  0.00    +0.020 A 
ATOM     18  C   UNL     1      -0.879  -0.515 -11.339  0.00  0.00    +0.086 A 
ATOM     19  N   UNL     1       0.468  -0.429 -11.467  0.00  0.00    -0.346 N 
ATOM     20  C   UNL     1       1.215  -0.529 -12.723  0.00  0.00    +0.149 C 
ENDBRANCH  11  15
BRANCH   1  22
ATOM     21  N   UNL     1       2.595  -0.200  -3.838  0.00  0.00    -0.315 N 
ATOM     22  C   UNL     1       2.693  -0.776  -5.052  0.00  0.00    +0.218 C 
ATOM     23  O   UNL     1       2.879  -1.972  -5.142  0.00  0.00    -0.275 OA
ATOM     24  H   UNL     1       2.446   0.756  -3.767  0.00  0.00    +0.149 HD
BRANCH  21  25
ATOM     25  C   UNL     1       2.711  -1.016  -2.628  0.00  0.00    +0.109 C 
BRANCH  25  26
ATOM     26  C   UNL     1       2.563  -0.123  -1.394  0.00  0.00    +0.056 C 
BRANCH  26  29
ATOM     27  C   UNL     1       5.187  -0.759   0.138  0.00  0.00    +0.063 C 
ATOM     28  C   UNL     1       3.812  -1.243   0.520  0.00  0.00    +0.017 A 
ATOM     29  C   UNL     1       2.683  -0.963  -0.149  0.00  0.00    -0.018 A 
ATOM     30  C   UNL     1       1.588  -1.628   0.563  0.00  0.00    +0.004 A 
ATOM     31  C   UNL     1       0.212  -1.710   0.362  0.00  0.00    +0.029 A 
ATOM     32  C   UNL     1      -0.566  -2.446   1.250  0.00  0.00    +0.052 A 
ATOM     33  C   UNL     1       0.036  -3.098   2.337  0.00  0.00    +0.021 A 
ATOM     34  C   UNL     1       1.382  -3.020   2.535  0.00  0.00    +0.027 A 
ATOM     35  C   UNL     1       2.180  -2.288   1.658  0.00  0.00    +0.047 A 
ATOM     36  N   UNL     1       3.531  -2.037   1.599  0.00  0.00    -0.358 N 
ATOM     37  H   UNL     1       4.187  -2.373   2.229  0.00  0.00    +0.166 HD
BRANCH  32  38
ATOM     38  C   UNL     1      -1.982  -2.538   1.056  0.00  0.00    +0.099 C 
ATOM     39  N   UNL     1      -3.105  -2.611   0.901  0.00  0.00    -0.191 NA
ENDBRANCH  32  38
ENDBRANCH  26  29
ENDBRANCH  25  26
ENDBRANCH  21  25
ENDBRANCH   1  22
TORSDOF 6
