REMARK  Name = ZINC09009590
REMARK  9 active torsions:
REMARK  status: ('A' for Active; 'I' for Inactive)
REMARK    1  A    between atoms: C_1  and  C_2
REMARK    2  A    between atoms: C_9  and  N_36
REMARK    3  A    between atoms: C_10  and  C_34
REMARK    4  A    between atoms: C_11  and  C_13
REMARK    5  A    between atoms: C_16  and  O_32
REMARK    6  A    between atoms: C_17  and  C_19
REMARK    7  A    between atoms: C_19  and  N_62
REMARK    8  A    between atoms: N_22  and  C_25
REMARK    9  A    between atoms: O_32  and  C_33
REMARK                            x       y       z     vdW  Elec       q    Type
REMARK                         _______ _______ _______ _____ _____    ______ ____
ROOT
ATOM      1  C   UNL     1      -2.134   1.144   3.131  0.00  0.00    -0.034 A 
ATOM      2  C   UNL     1      -2.015   2.464   3.525  0.00  0.00    +0.008 A 
ATOM      3  C   UNL     1      -1.248   3.341   2.783  0.00  0.00    +0.046 A 
ATOM      4  C   UNL     1      -0.597   2.897   1.641  0.00  0.00    +0.121 A 
ATOM      5  C   UNL     1      -0.718   1.572   1.248  0.00  0.00    -0.022 A 
ATOM      6  C   UNL     1      -1.490   0.700   1.991  0.00  0.00    +0.010 A 
ENDROOT
BRANCH   1  17
ATOM      7  C   UNL     1      -0.296  -1.232   4.954  0.00  0.00    +0.065 C 
ATOM      8  C   UNL     1      -1.306  -0.491   5.791  0.00  0.00    +0.041 A 
ATOM      9  C   UNL     1      -2.425   0.099   5.345  0.00  0.00    +0.049 A 
ATOM     10  C   UNL     1      -3.088   0.677   6.450  0.00  0.00    +0.245 A 
ATOM     11  N   UNL     1      -2.380   0.437   7.514  0.00  0.00    -0.135 NA
ATOM     12  N   UNL     1      -1.248  -0.300   7.130  0.00  0.00    -0.278 N 
ATOM     13  H   UNL     1      -0.525  -0.626   7.738  0.00  0.00    +0.189 HD
ATOM     14  O   UNL     1      -4.263   1.348   6.315  0.00  0.00    -0.421 OA
ATOM     15  C   UNL     1      -4.921   1.220   5.146  0.00  0.00    +0.201 C 
ATOM     16  C   UNL     1      -4.389   0.696   4.022  0.00  0.00    +0.098 C 
ATOM     17  C   UNL     1      -2.971   0.189   3.942  0.00  0.00    +0.101 C 
BRANCH  15  18
ATOM     18  N   UNL     1      -6.222   1.654   5.094  0.00  0.00    -0.328 N 
ATOM     19  H   UNL     1      -6.638   2.036   5.883  0.00  0.00    +0.145 HD
ATOM     20  H   UNL     1      -6.727   1.577   4.269  0.00  0.00    +0.145 HD
ENDBRANCH  15  18
BRANCH  16  21
ATOM     21  C   UNL     1      -5.209   0.618   2.850  0.00  0.00    +0.101 C 
ATOM     22  N   UNL     1      -5.859   0.556   1.921  0.00  0.00    -0.191 NA
ENDBRANCH  16  21
ENDBRANCH   1  17
BRANCH   4  23
ATOM     23  O   UNL     1       0.158   3.758   0.909  0.00  0.00    -0.495 OA
ATOM     24  C   UNL     1       0.237   5.107   1.374  0.00  0.00    +0.277 C 
ENDBRANCH   4  23
BRANCH   5  25
ATOM     25  C   UNL     1      -0.013   1.086   0.008  0.00  0.00    -0.039 C 
BRANCH  25  31
ATOM     26  C   UNL     1      -2.058   0.966  -1.283  0.00  0.00    -0.059 C 
ATOM     27  C   UNL     1      -2.794   1.557  -2.488  0.00  0.00    +0.086 C 
ATOM     28  N   UNL     1      -2.012   1.308  -3.707  0.00  0.00    -0.333 N 
ATOM     29  C   UNL     1      -0.677   1.914  -3.606  0.00  0.00    +0.086 C 
ATOM     30  C   UNL     1       0.059   1.323  -2.401  0.00  0.00    -0.059 C 
ATOM     31  N   UNL     1      -0.727   1.600  -1.180  0.00  0.00    +0.384 N 
ATOM     32  H   UNL     1      -0.847   2.615  -1.084  0.00  0.00    -0.081 HD
BRANCH  28  33
ATOM     33  C   UNL     1      -2.688   1.771  -4.840  0.00  0.00    +0.030 A 
ATOM     34  C   UNL     1      -2.080   2.690  -5.685  0.00  0.00    +0.026 A 
ATOM     35  C   UNL     1      -2.748   3.142  -6.806  0.00  0.00    +0.040 A 
ATOM     36  C   UNL     1      -4.027   2.689  -7.082  0.00  0.00    +0.124 A 
ATOM     37  C   UNL     1      -4.638   1.777  -6.237  0.00  0.00    +0.040 A 
ATOM     38  C   UNL     1      -3.971   1.317  -5.117  0.00  0.00    +0.026 A 
ATOM     39  F   UNL     1      -4.681   3.136  -8.176  0.00  0.00    -0.205 F 
ENDBRANCH  28  33
ENDBRANCH  25  31
ENDBRANCH   5  25
TORSDOF 7
