REMARK  Name = ZINC20220617
REMARK  9 active torsions:
REMARK  status: ('A' for Active; 'I' for Inactive)
REMARK    1  A    between atoms: C_1  and  O_2
REMARK    2  A    between atoms: O_2  and  C_3
REMARK    3  A    between atoms: C_3  and  C_5
REMARK    4  A    between atoms: C_6  and  C_30
REMARK    5  A    between atoms: C_9  and  N_10
REMARK    6  A    between atoms: C_11  and  C_13
REMARK    7  A    between atoms: C_13  and  N_14
REMARK    8  A    between atoms: N_17  and  S_20
REMARK    9  A    between atoms: S_20  and  C_23
REMARK                            x       y       z     vdW  Elec       q    Type
REMARK                         _______ _______ _______ _____ _____    ______ ____
ROOT
ATOM      1  N   UNL     1      -6.390   3.111  -4.207  0.00  0.00    -0.281 N 
ATOM      2  C   UNL     1      -5.196   2.690  -3.745  0.00  0.00    +0.201 C 
ATOM      3  O   UNL     1      -4.884   1.523  -3.848  0.00  0.00    -0.278 OA
ATOM      4  H   UNL     1      -6.674   4.170  -4.113  0.00  0.00    +0.155 HD
ENDROOT
BRANCH   1   9
ATOM      5  C   UNL     1      -8.521   2.455  -5.330  0.00  0.00    +0.095 A 
ATOM      6  C   UNL     1      -9.222   1.318  -5.895  0.00  0.00    +0.005 A 
ATOM      7  C   UNL     1      -8.581   0.122  -5.853  0.00  0.00    +0.056 A 
ATOM      8  S   UNL     1      -7.034   0.515  -5.063  0.00  0.00    -0.080 S 
ATOM      9  C   UNL     1      -7.261   2.211  -4.800  0.00  0.00    +0.086 A 
BRANCH   6  10
ATOM     10  C   UNL     1     -10.573   1.455  -6.489  0.00  0.00    -0.017 A 
ATOM     11  C   UNL     1     -11.588   2.096  -5.781  0.00  0.00    +0.008 A 
ATOM     12  C   UNL     1     -12.842   2.226  -6.341  0.00  0.00    +0.001 A 
ATOM     13  C   UNL     1     -13.097   1.710  -7.599  0.00  0.00    +0.000 A 
ATOM     14  C   UNL     1     -12.096   1.067  -8.305  0.00  0.00    +0.001 A 
ATOM     15  C   UNL     1     -10.836   0.937  -7.757  0.00  0.00    +0.008 A 
ENDBRANCH   6  10
BRANCH   5  16
ATOM     16  C   UNL     1      -9.112   3.793  -5.318  0.00  0.00    +0.342 C 
ATOM     17  O   UNL     1      -8.925   4.549  -6.252  0.00  0.00    -0.245 OA
BRANCH  16  19
ATOM     18  C   UNL     1     -10.421   5.529  -4.327  0.00  0.00    +0.280 C 
ATOM     19  O   UNL     1      -9.866   4.188  -4.271  0.00  0.00    -0.464 OA
ENDBRANCH  16  19
ENDBRANCH   5  16
ENDBRANCH   1   9
BRANCH   2  20
ATOM     20  C   UNL     1      -4.250   3.669  -3.100  0.00  0.00    +0.019 C 
BRANCH  20  21
ATOM     21  N   UNL     1      -2.976   2.998  -2.806  0.00  0.00    +0.387 N 
ATOM     22  C   UNL     1      -3.159   1.937  -1.806  0.00  0.00    -0.061 C 
ATOM     23  C   UNL     1      -1.789   1.387  -1.395  0.00  0.00    +0.091 C 
ATOM     24  N   UNL     1      -1.065   0.980  -2.608  0.00  0.00    -0.180 NA
ATOM     25  C   UNL     1      -0.954   1.948  -3.710  0.00  0.00    +0.091 C 
ATOM     26  C   UNL     1      -2.362   2.474  -4.033  0.00  0.00    -0.061 C 
ATOM     27  H   UNL     1      -2.289   3.744  -2.380  0.00  0.00    -0.081 HD
BRANCH  24  28
ATOM     28  S   UNL     1      -0.388  -0.526  -2.729  0.00  0.00    +0.061 S 
ATOM     29  O   UNL     1       0.657  -0.426  -3.687  0.00  0.00    -0.153 OA
ATOM     30  O   UNL     1      -0.162  -0.978  -1.400  0.00  0.00    -0.153 OA
BRANCH  28  31
ATOM     31  C   UNL     1      -1.607  -1.593  -3.422  0.00  0.00    +0.106 A 
ATOM     32  C   UNL     1      -2.475  -2.280  -2.594  0.00  0.00    +0.031 A 
ATOM     33  C   UNL     1      -3.434  -3.113  -3.137  0.00  0.00    +0.040 A 
ATOM     34  C   UNL     1      -3.520  -3.267  -4.511  0.00  0.00    +0.124 A 
ATOM     35  C   UNL     1      -2.647  -2.582  -5.338  0.00  0.00    +0.040 A 
ATOM     36  C   UNL     1      -1.691  -1.746  -4.794  0.00  0.00    +0.031 A 
ATOM     37  F   UNL     1      -4.455  -4.085  -5.042  0.00  0.00    -0.205 F 
ENDBRANCH  28  31
ENDBRANCH  24  28
ENDBRANCH  20  21
ENDBRANCH   2  20
TORSDOF 8
