REMARK  Name = ZINC55139503
REMARK  8 active torsions:
REMARK  status: ('A' for Active; 'I' for Inactive)
REMARK    1  A    between atoms: C_4  and  N_6
REMARK    2  A    between atoms: N_6  and  C_7
REMARK    3  A    between atoms: C_7  and  C_8
REMARK    4  A    between atoms: C_8  and  O_9
REMARK    5  A    between atoms: C_10  and  C_12
REMARK    6  A    between atoms: C_12  and  C_13
REMARK    7  A    between atoms: C_13  and  C_14
REMARK    8  A    between atoms: C_17  and  N_20
REMARK                            x       y       z     vdW  Elec       q    Type
REMARK                         _______ _______ _______ _____ _____    ______ ____
ROOT
ATOM      1  N   UNL     1       1.073  -1.266  -1.691  0.00  0.00    -0.296 N 
ATOM      2  C   UNL     1       0.085  -0.860  -2.513  0.00  0.00    +0.216 C 
ATOM      3  O   UNL     1      -0.272  -1.570  -3.429  0.00  0.00    -0.276 OA
ENDROOT
BRANCH   1   7
ATOM      4  C   UNL     1       3.491  -0.815   0.794  0.00  0.00    +0.002 C 
ATOM      5  C   UNL     1       2.263  -0.861   1.736  0.00  0.00    +0.002 C 
ATOM      6  C   UNL     1       1.108  -1.232   0.773  0.00  0.00    +0.022 C 
ATOM      7  C   UNL     1       1.431  -0.459  -0.522  0.00  0.00    +0.076 C 
ATOM      8  C   UNL     1       2.946  -0.193  -0.508  0.00  0.00    +0.022 C 
ENDBRANCH   1   7
BRANCH   1   9
ATOM      9  C   UNL     1       1.789  -2.513  -1.967  0.00  0.00    +0.136 C 
BRANCH   9  10
ATOM     10  C   UNL     1       0.991  -3.693  -1.409  0.00  0.00    +0.174 C 
BRANCH  10  11
ATOM     11  O   UNL     1      -0.256  -3.794  -2.099  0.00  0.00    -0.393 OA
ATOM     12  H   UNL     1      -0.816  -4.522  -1.797  0.00  0.00    +0.209 HD
ENDBRANCH  10  11
ENDBRANCH   9  10
ENDBRANCH   1   9
BRANCH   2  13
ATOM     13  C   UNL     1      -0.576   0.476  -2.294  0.00  0.00    +0.096 C 
BRANCH  13  14
ATOM     14  C   UNL     1      -1.734   0.640  -3.280  0.00  0.00    +0.013 C 
BRANCH  14  15
ATOM     15  C   UNL     1      -2.406   1.997  -3.058  0.00  0.00    -0.011 C 
ATOM     16  C   UNL     1      -3.049   2.026  -1.670  0.00  0.00    +0.002 C 
ATOM     17  C   UNL     1      -3.721   3.383  -1.447  0.00  0.00    -0.016 C 
ATOM     18  C   UNL     1      -4.797   3.600  -2.513  0.00  0.00    -0.075 C 
ATOM     19  C   UNL     1      -4.153   3.571  -3.901  0.00  0.00    -0.016 C 
ATOM     20  C   UNL     1      -3.482   2.214  -4.123  0.00  0.00    +0.002 C 
BRANCH  18  21
ATOM     21  N   UNL     1      -5.442   4.902  -2.300  0.00  0.00    +0.380 N 
ATOM     22  H   UNL     1      -4.750   5.635  -2.365  0.00  0.00    -0.090 HD
ATOM     23  H   UNL     1      -6.151   5.046  -3.002  0.00  0.00    -0.090 HD
ATOM     24  H   UNL     1      -5.866   4.922  -1.384  0.00  0.00    -0.090 HD
ENDBRANCH  18  21
ENDBRANCH  14  15
ENDBRANCH  13  14
ENDBRANCH   2  13
TORSDOF 8
