REMARK  Name = ZINC57872659
REMARK  5 active torsions:
REMARK  status: ('A' for Active; 'I' for Inactive)
REMARK    1  A    between atoms: C_1  and  C_2
REMARK    2  A    between atoms: N_5  and  C_9
REMARK    3  A    between atoms: C_9  and  C_10
REMARK    4  A    between atoms: C_10  and  C_11
REMARK    5  A    between atoms: C_11  and  N_13
REMARK                            x       y       z     vdW  Elec       q    Type
REMARK                         _______ _______ _______ _____ _____    ______ ____
ROOT
ATOM      1  C   UNL     1      -0.018   1.503   0.010  0.00  0.00    +0.044 C 
ATOM      2  C   UNL     1       0.002  -0.004   0.002  0.00  0.00    -0.044 A 
ATOM      3  C   UNL     1       0.006  -0.706  -1.212  0.00  0.00    +0.021 A 
ATOM      4  C   UNL     1       0.025  -2.059  -1.209  0.00  0.00    +0.089 A 
ATOM      5  N   UNL     1       0.040  -2.750  -0.040  0.00  0.00    -0.315 N 
ATOM      6  C   UNL     1       0.036  -2.105   1.141  0.00  0.00    +0.252 A 
ATOM      7  O   UNL     1       0.050  -2.740   2.183  0.00  0.00    -0.268 OA
ATOM      8  C   UNL     1       0.023  -0.700   1.175  0.00  0.00    +0.073 A 
ENDROOT
BRANCH   5   9
ATOM      9  C   UNL     1       0.060  -4.215  -0.065  0.00  0.00    +0.131 C 
BRANCH   9  10
ATOM     10  C   UNL     1       1.510  -4.705  -0.081  0.00  0.00    +0.080 C 
BRANCH  10  11
ATOM     11  C   UNL     1       1.531  -6.212  -0.107  0.00  0.00    +0.048 C 
ATOM     12  S   UNL     1       0.157  -7.030  -0.114  0.00  0.00    -0.041 S 
BRANCH  11  13
ATOM     13  N   UNL     1       2.707  -6.869  -0.124  0.00  0.00    -0.355 N 
ATOM     14  H   UNL     1       3.540  -6.372  -0.119  0.00  0.00    +0.143 HD
ATOM     15  H   UNL     1       2.720  -7.839  -0.140  0.00  0.00    +0.143 HD
ENDBRANCH  11  13
ENDBRANCH  10  11
ENDBRANCH   9  10
ENDBRANCH   5   9
TORSDOF 4
