REMARK  Name = ZINC14745215
REMARK  10 active torsions:
REMARK  status: ('A' for Active; 'I' for Inactive)
REMARK    1  A    between atoms: C_1  and  C_2
REMARK    2  A    between atoms: C_2  and  C_3
REMARK    3  A    between atoms: C_3  and  N_4
REMARK    4  A    between atoms: C_7  and  C_9
REMARK    5  A    between atoms: C_18  and  N_67
REMARK    6  A    between atoms: C_22  and  C_23
REMARK    7  A    between atoms: C_22  and  N_67
REMARK    8  A    between atoms: C_23  and  C_24
REMARK    9  A    between atoms: C_27  and  S_30
REMARK   10  A    between atoms: S_30  and  N_33
REMARK                            x       y       z     vdW  Elec       q    Type
REMARK                         _______ _______ _______ _____ _____    ______ ____
ROOT
ATOM      1  N   UNL     1      -1.255   2.721   7.596  0.00  0.00    -0.267 N 
ATOM      2  C   UNL     1      -1.159   2.505   6.274  0.00  0.00    +0.043 A 
ATOM      3  C   UNL     1      -0.984   1.173   6.096  0.00  0.00    +0.004 A 
ATOM      4  C   UNL     1      -0.978   0.609   7.383  0.00  0.00    +0.151 A 
ATOM      5  N   UNL     1      -1.147   1.607   8.234  0.00  0.00    -0.166 NA
ATOM      6  C   UNL     1      -0.834   0.501   4.759  0.00  0.00    +0.023 C 
ATOM      7  C   UNL     1      -1.313   1.476   3.675  0.00  0.00    -0.067 C 
ATOM      8  C   UNL     1      -0.651   2.841   3.885  0.00  0.00    -0.009 C 
ATOM      9  C   UNL     1      -1.222   3.502   5.145  0.00  0.00    +0.054 C 
ENDROOT
BRANCH   4  10
ATOM     10  C   UNL     1      -0.814  -0.820   7.720  0.00  0.00    +0.267 C 
ATOM     11  O   UNL     1      -0.551  -1.624   6.847  0.00  0.00    -0.268 OA
ATOM     12  N   UNL     1      -0.956  -1.232   8.995  0.00  0.00    -0.296 N 
ATOM     13  C   UNL     1      -1.416  -0.302  10.036  0.00  0.00    +0.108 C 
ATOM     14  C   UNL     1      -2.626  -0.926  10.748  0.00  0.00    +0.019 C 
ATOM     15  C   UNL     1      -2.245  -2.313  11.269  0.00  0.00    +0.003 C 
ATOM     16  C   UNL     1      -1.862  -3.214  10.093  0.00  0.00    +0.019 C 
ATOM     17  C   UNL     1      -0.648  -2.618   9.373  0.00  0.00    +0.108 C 
ENDBRANCH   4  10
BRANCH   7  18
ATOM     18  N   UNL     1      -0.940   0.947   2.349  0.00  0.00    +0.381 N 
ATOM     19  H   UNL     1      -1.006  -0.078   2.363  0.00  0.00    -0.086 HD
ATOM     20  H   UNL     1       0.025   1.225   2.133  0.00  0.00    -0.086 HD
BRANCH  18  21
ATOM     21  C   UNL     1      -1.844   1.479   1.312  0.00  0.00    -0.078 C 
BRANCH  21  22
ATOM     22  C   UNL     1      -1.434   0.914  -0.049  0.00  0.00    +0.016 C 
BRANCH  22  23
ATOM     23  C   UNL     1      -2.353   1.453  -1.115  0.00  0.00    -0.049 A 
ATOM     24  C   UNL     1      -3.508   0.767  -1.443  0.00  0.00    +0.005 A 
ATOM     25  C   UNL     1      -4.353   1.264  -2.417  0.00  0.00    +0.029 A 
ATOM     26  C   UNL     1      -4.039   2.442  -3.070  0.00  0.00    +0.105 A 
ATOM     27  C   UNL     1      -2.882   3.125  -2.745  0.00  0.00    +0.029 A 
ATOM     28  C   UNL     1      -2.039   2.630  -1.768  0.00  0.00    +0.005 A 
BRANCH  26  29
ATOM     29  S   UNL     1      -5.115   3.073  -4.315  0.00  0.00    +0.056 S 
ATOM     30  O   UNL     1      -6.403   2.536  -4.049  0.00  0.00    -0.153 OA
ATOM     31  O   UNL     1      -4.873   4.471  -4.389  0.00  0.00    -0.153 OA
BRANCH  29  32
ATOM     32  N   UNL     1      -4.622   2.430  -5.759  0.00  0.00    -0.204 NA
ATOM     33  H   UNL     1      -5.268   2.275  -6.466  0.00  0.00    +0.144 HD
ATOM     34  H   UNL     1      -3.688   2.207  -5.898  0.00  0.00    +0.144 HD
ENDBRANCH  29  32
ENDBRANCH  26  29
ENDBRANCH  22  23
ENDBRANCH  21  22
ENDBRANCH  18  21
ENDBRANCH   7  18
BRANCH   1  35
ATOM     35  C   UNL     1      -1.453   4.031   8.221  0.00  0.00    +0.143 C 
BRANCH  35  37
ATOM     36  C   UNL     1      -0.300   6.036   9.166  0.00  0.00    +0.005 C 
ATOM     37  C   UNL     1      -0.093   4.668   8.513  0.00  0.00    +0.020 C 
ENDBRANCH  35  37
ENDBRANCH   1  35
TORSDOF 9
