REMARK  Name = ZINC23362677
REMARK  8 active torsions:
REMARK  status: ('A' for Active; 'I' for Inactive)
REMARK    1  A    between atoms: C_4  and  O_7
REMARK    2  A    between atoms: O_7  and  C_8
REMARK    3  A    between atoms: C_8  and  C_9
REMARK    4  A    between atoms: N_11  and  C_12
REMARK    5  A    between atoms: C_15  and  N_18
REMARK    6  A    between atoms: C_21  and  N_24
REMARK    7  A    between atoms: N_27  and  C_30
REMARK    8  A    between atoms: C_30  and  C_31
REMARK                            x       y       z     vdW  Elec       q    Type
REMARK                         _______ _______ _______ _____ _____    ______ ____
ROOT
ATOM      1  N   UNL     1      10.206  -6.197  -0.493  0.00  0.00    -0.330 N 
ATOM      2  C   UNL     1      11.408  -5.360  -0.375  0.00  0.00    +0.103 C 
ATOM      3  C   UNL     1      12.292  -5.590  -1.605  0.00  0.00    +0.004 C 
ATOM      4  C   UNL     1      12.580  -7.086  -1.749  0.00  0.00    -0.066 C 
ATOM      5  C   UNL     1      11.265  -7.843  -1.951  0.00  0.00    +0.004 C 
ATOM      6  C   UNL     1      10.370  -7.640  -0.720  0.00  0.00    +0.103 C 
ENDROOT
BRANCH   4   7
ATOM      7  N   UNL     1      13.454  -7.306  -2.909  0.00  0.00    +0.383 N 
ATOM      8  C   UNL     1      13.729  -8.742  -3.048  0.00  0.00    -0.063 C 
ATOM      9  C   UNL     1      14.625  -8.974  -4.267  0.00  0.00    +0.066 C 
ATOM     10  N   UNL     1      15.882  -8.231  -4.096  0.00  0.00    -0.301 NA
ATOM     11  C   UNL     1      15.621  -6.794  -3.930  0.00  0.00    +0.066 C 
ATOM     12  C   UNL     1      14.717  -6.580  -2.714  0.00  0.00    -0.063 C 
ATOM     13  H   UNL     1      12.998  -6.968  -3.743  0.00  0.00    -0.081 HD
BRANCH  10  14
ATOM     14  C   UNL     1      16.794  -8.474  -5.221  0.00  0.00    +0.126 C 
BRANCH  14  15
ATOM     15  C   UNL     1      18.152  -7.903  -4.900  0.00  0.00    +0.004 A 
ATOM     16  C   UNL     1      19.207  -8.500  -4.294  0.00  0.00    +0.012 A 
ATOM     17  C   UNL     1      20.368  -7.774  -4.102  0.00  0.00    +0.008 A 
ATOM     18  C   UNL     1      20.416  -6.487  -4.524  0.00  0.00    +0.045 A 
ATOM     19  S   UNL     1      18.789  -6.268  -5.226  0.00  0.00    -0.100 S 
ENDBRANCH  14  15
ENDBRANCH  10  14
ENDBRANCH   4   7
BRANCH   1  23
ATOM     20  C   UNL     1       6.406  -4.515  -0.175  0.00  0.00    +0.034 A 
ATOM     21  C   UNL     1       6.549  -5.892  -0.273  0.00  0.00    +0.025 A 
ATOM     22  C   UNL     1       7.808  -6.450  -0.378  0.00  0.00    +0.025 A 
ATOM     23  C   UNL     1       8.931  -5.633  -0.387  0.00  0.00    +0.030 A 
ATOM     24  C   UNL     1       8.787  -4.255  -0.289  0.00  0.00    +0.025 A 
ATOM     25  C   UNL     1       7.528  -3.697  -0.189  0.00  0.00    +0.025 A 
BRANCH  20  28
ATOM     26  C   UNL     1       4.864  -2.765  -0.656  0.00  0.00    +0.255 C 
ATOM     27  O   UNL     1       5.753  -2.150  -1.208  0.00  0.00    -0.272 OA
ATOM     28  N   UNL     1       5.128  -3.949  -0.069  0.00  0.00    -0.283 N 
ATOM     29  H   UNL     1       4.434  -4.410   0.428  0.00  0.00    +0.155 HD
BRANCH  26  30
ATOM     30  C   UNL     1       3.466  -2.204  -0.626  0.00  0.00    +0.324 C 
BRANCH  30  31
ATOM     31  O   UNL     1       3.441  -0.950  -1.310  0.00  0.00    -0.483 OA
BRANCH  31  35
ATOM     32  C   UNL     1      -0.188   1.003  -1.510  0.00  0.00    +0.000 A 
ATOM     33  C   UNL     1       0.933   1.568  -2.090  0.00  0.00    +0.004 A 
ATOM     34  C   UNL     1       2.150   0.916  -2.024  0.00  0.00    +0.045 A 
ATOM     35  C   UNL     1       2.246  -0.306  -1.376  0.00  0.00    +0.121 A 
ATOM     36  C   UNL     1       1.120  -0.871  -0.794  0.00  0.00    +0.045 A 
ATOM     37  C   UNL     1      -0.094  -0.215  -0.863  0.00  0.00    +0.004 A 
ENDBRANCH  31  35
ENDBRANCH  30  31
ENDBRANCH  26  30
ENDBRANCH  20  28
ENDBRANCH   1  23
TORSDOF 8
