REMARK  Name = ZINC63388090
REMARK  13 active torsions:
REMARK  status: ('A' for Active; 'I' for Inactive)
REMARK    1  A    between atoms: C_1  and  C_2
REMARK    2  A    between atoms: C_2  and  O_3
REMARK    3  A    between atoms: O_3  and  C_4
REMARK    4  A    between atoms: C_4  and  C_6
REMARK    5  A    between atoms: C_6  and  C_8
REMARK    6  A    between atoms: C_6  and  N_18
REMARK    7  A    between atoms: C_8  and  C_9
REMARK    8  A    between atoms: C_19  and  C_21
REMARK    9  A    between atoms: C_21  and  C_22
REMARK   10  A    between atoms: C_22  and  C_23
REMARK   11  A    between atoms: N_25  and  C_26
REMARK   12  A    between atoms: C_29  and  S_32
REMARK   13  A    between atoms: S_32  and  N_35
REMARK                            x       y       z     vdW  Elec       q    Type
REMARK                         _______ _______ _______ _____ _____    ______ ____
ROOT
ATOM      1  N   UNL     1       1.456  -3.817  -2.499  0.00  0.00    -0.302 N 
ATOM      2  C   UNL     1       2.411  -4.476  -1.813  0.00  0.00    +0.214 C 
ATOM      3  O   UNL     1       3.289  -3.857  -1.250  0.00  0.00    -0.276 OA
ATOM      4  H   UNL     1       0.754  -4.312  -2.949  0.00  0.00    +0.150 HD
ENDROOT
BRANCH   1   5
ATOM      5  C   UNL     1       1.479  -2.354  -2.564  0.00  0.00    +0.186 C 
BRANCH   5   6
ATOM      6  C   UNL     1       0.794  -1.786  -1.348  0.00  0.00    +0.328 C 
ATOM      7  O   UNL     1       0.334  -2.527  -0.512  0.00  0.00    -0.249 OA
BRANCH   6   8
ATOM      8  O   UNL     1       0.695  -0.456  -1.193  0.00  0.00    -0.464 OA
BRANCH   8  10
ATOM      9  C   UNL     1       0.018   1.542  -0.015  0.00  0.00    +0.048 C 
ATOM     10  C   UNL     1       0.033   0.012  -0.016  0.00  0.00    +0.229 C 
ENDBRANCH   8  10
ENDBRANCH   6   8
ENDBRANCH   5   6
BRANCH   5  11
ATOM     11  C   UNL     1       0.748  -1.888  -3.825  0.00  0.00    +0.067 C 
BRANCH  11  12
ATOM     12  C   UNL     1       1.502  -2.354  -5.044  0.00  0.00    -0.039 C 
ATOM     13  C   UNL     1       1.269  -3.474  -5.766  0.00  0.00    -0.001 A 
ATOM     14  C   UNL     1       0.283  -4.553  -5.636  0.00  0.00    +0.010 A 
ATOM     15  C   UNL     1       0.298  -5.567  -6.532  0.00  0.00    +0.001 A 
ATOM     16  C   UNL     1       1.230  -5.612  -7.578  0.00  0.00    +0.002 A 
ATOM     17  C   UNL     1       2.167  -4.657  -7.762  0.00  0.00    +0.026 A 
ATOM     18  C   UNL     1       2.242  -3.545  -6.879  0.00  0.00    +0.043 A 
ATOM     19  N   UNL     1       3.045  -2.509  -6.847  0.00  0.00    -0.380 N 
ATOM     20  C   UNL     1       2.668  -1.659  -5.712  0.00  0.00    +0.144 C 
ATOM     21  H   UNL     1       3.766  -2.332  -7.472  0.00  0.00    +0.160 HD
ENDBRANCH  11  12
ENDBRANCH   5  11
ENDBRANCH   1   5
BRANCH   2  22
ATOM     22  C   UNL     1       2.388  -5.981  -1.746  0.00  0.00    +0.105 C 
BRANCH  22  23
ATOM     23  C   UNL     1       3.573  -6.473  -0.912  0.00  0.00    +0.105 C 
BRANCH  23  24
ATOM     24  C   UNL     1       3.550  -7.978  -0.845  0.00  0.00    +0.218 C 
ATOM     25  O   UNL     1       2.671  -8.597  -1.408  0.00  0.00    -0.275 OA
ATOM     26  N   UNL     1       4.505  -8.637  -0.159  0.00  0.00    -0.285 N 
ATOM     27  H   UNL     1       5.244  -8.148   0.234  0.00  0.00    +0.155 HD
BRANCH  26  28
ATOM     28  C   UNL     1       4.430 -10.027  -0.015  0.00  0.00    +0.033 A 
ATOM     29  C   UNL     1       4.860 -10.629   1.161  0.00  0.00    +0.025 A 
ATOM     30  C   UNL     1       4.784 -12.001   1.300  0.00  0.00    +0.030 A 
ATOM     31  C   UNL     1       4.282 -12.775   0.270  0.00  0.00    +0.105 A 
ATOM     32  C   UNL     1       3.854 -12.179  -0.902  0.00  0.00    +0.030 A 
ATOM     33  C   UNL     1       3.921 -10.807  -1.045  0.00  0.00    +0.025 A 
BRANCH  31  34
ATOM     34  S   UNL     1       4.188 -14.525   0.452  0.00  0.00    +0.056 S 
ATOM     35  O   UNL     1       4.189 -15.070  -0.861  0.00  0.00    -0.153 OA
ATOM     36  O   UNL     1       5.157 -14.885   1.427  0.00  0.00    -0.153 OA
BRANCH  34  37
ATOM     37  N   UNL     1       2.706 -14.870   1.106  0.00  0.00    -0.204 NA
ATOM     38  H   UNL     1       2.087 -14.152   1.310  0.00  0.00    +0.144 HD
ATOM     39  H   UNL     1       2.458 -15.791   1.286  0.00  0.00    +0.144 HD
ENDBRANCH  34  37
ENDBRANCH  31  34
ENDBRANCH  26  28
ENDBRANCH  23  24
ENDBRANCH  22  23
ENDBRANCH   2  22
TORSDOF 12
