REMARK  Name = ZINC33452293
REMARK  8 active torsions:
REMARK  status: ('A' for Active; 'I' for Inactive)
REMARK    1  A    between atoms: C_1  and  C_2
REMARK    2  A    between atoms: C_2  and  N_3
REMARK    3  A    between atoms: N_3  and  C_4
REMARK    4  A    between atoms: N_3  and  C_10
REMARK    5  A    between atoms: C_10  and  C_12
REMARK    6  A    between atoms: C_10  and  C_14
REMARK    7  A    between atoms: C_12  and  N_13
REMARK    8  A    between atoms: C_23  and  O_24
REMARK                            x       y       z     vdW  Elec       q    Type
REMARK                         _______ _______ _______ _____ _____    ______ ____
ROOT
ATOM      1  C   UNL     1      -1.102  -0.804  -0.030  0.00  0.00    +0.090 C 
ENDROOT
BRANCH   1   2
ATOM      2  C   UNL     1       0.176  -0.037   0.194  0.00  0.00    +0.020 A 
ATOM      3  C   UNL     1       0.172   1.127   0.980  0.00  0.00    -0.010 A 
ATOM      4  C   UNL     1      -1.012   1.607   1.566  0.00  0.00    +0.009 A 
ATOM      5  C   UNL     1      -0.977   2.736   2.326  0.00  0.00    +0.001 A 
ATOM      6  C   UNL     1       0.214   3.432   2.523  0.00  0.00    +0.001 A 
ATOM      7  C   UNL     1       1.379   3.000   1.966  0.00  0.00    +0.008 A 
ATOM      8  C   UNL     1       1.384   1.835   1.180  0.00  0.00    -0.017 A 
ATOM      9  C   UNL     1       2.568   1.359   0.590  0.00  0.00    +0.012 A 
ATOM     10  C   UNL     1       2.538   0.229  -0.165  0.00  0.00    +0.046 A 
ATOM     11  C   UNL     1       1.344  -0.471  -0.365  0.00  0.00    +0.122 A 
BRANCH  11  12
ATOM     12  O   UNL     1       1.346  -1.598  -1.125  0.00  0.00    -0.506 OA
ATOM     13  H   UNL     1       2.283  -1.953  -1.578  0.00  0.00    +0.292 HD
ENDBRANCH  11  12
ENDBRANCH   1   2
BRANCH   1  14
ATOM     14  N   UNL     1      -1.085  -2.028   0.775  0.00  0.00    -0.325 N 
BRANCH  14  15
ATOM     15  C   UNL     1      -1.986  -2.181   1.831  0.00  0.00    +0.030 A 
ATOM     16  C   UNL     1      -2.975  -1.230   2.047  0.00  0.00    +0.023 A 
ATOM     17  C   UNL     1      -3.867  -1.387   3.089  0.00  0.00    +0.002 A 
ATOM     18  C   UNL     1      -3.769  -2.485   3.925  0.00  0.00    +0.000 A 
ATOM     19  C   UNL     1      -2.783  -3.431   3.716  0.00  0.00    +0.002 A 
ATOM     20  C   UNL     1      -1.891  -3.283   2.672  0.00  0.00    +0.023 A 
ENDBRANCH  14  15
BRANCH  14  22
ATOM     21  C   UNL     1       1.105  -2.938   1.370  0.00  0.00    +0.024 C 
ATOM     22  C   UNL     1      -0.124  -3.091   0.472  0.00  0.00    +0.102 C 
ENDBRANCH  14  22
ENDBRANCH   1  14
BRANCH   1  23
ATOM     23  C   UNL     1      -1.224  -1.169  -1.511  0.00  0.00    -0.059 C 
BRANCH  23  24
ATOM     24  N   UNL     1      -2.407  -2.018  -1.710  0.00  0.00    +0.380 N 
ATOM     25  H   UNL     1      -2.495  -2.280  -2.775  0.00  0.00    -0.090 HD
ATOM     26  H   UNL     1      -3.308  -1.472  -1.391  0.00  0.00    -0.090 HD
ATOM     27  H   UNL     1      -2.304  -2.936  -1.113  0.00  0.00    -0.090 HD
ENDBRANCH  23  24
ENDBRANCH   1  23
TORSDOF 7
