REMARK  Name = ZINC65441954
REMARK  9 active torsions:
REMARK  status: ('A' for Active; 'I' for Inactive)
REMARK    1  A    between atoms: C_1  and  C_2
REMARK    2  A    between atoms: C_2  and  C_3
REMARK    3  A    between atoms: C_2  and  N_4
REMARK    4  A    between atoms: C_7  and  C_9
REMARK    5  A    between atoms: C_9  and  N_10
REMARK    6  A    between atoms: N_13  and  C_14
REMARK    7  A    between atoms: C_14  and  C_15
REMARK    8  A    between atoms: C_15  and  C_16
REMARK    9  A    between atoms: C_16  and  N_17
REMARK                            x       y       z     vdW  Elec       q    Type
REMARK                         _______ _______ _______ _____ _____    ______ ____
ROOT
ATOM      1  N   UNL     1       1.718  -3.643   4.477  0.00  0.00    -0.299 N 
ATOM      2  C   UNL     1       2.705  -4.346   5.069  0.00  0.00    +0.300 C 
ATOM      3  O   UNL     1       3.724  -4.597   4.456  0.00  0.00    -0.253 OA
ATOM      4  N   UNL     1       2.561  -4.769   6.340  0.00  0.00    -0.299 N 
ATOM      5  H   UNL     1       0.905  -3.443   4.966  0.00  0.00    +0.150 HD
ATOM      6  H   UNL     1       1.748  -4.569   6.829  0.00  0.00    +0.150 HD
ENDROOT
BRANCH   1   7
ATOM      7  C   UNL     1       1.874  -3.183   3.095  0.00  0.00    +0.107 C 
BRANCH   7  11
ATOM      8  N   UNL     1       0.713  -0.491   1.192  0.00  0.00    +0.381 N 
ATOM      9  C   UNL     1      -0.018  -0.094   2.423  0.00  0.00    -0.078 C 
ATOM     10  C   UNL     1       0.491  -1.107   3.479  0.00  0.00    -0.015 C 
ATOM     11  C   UNL     1       0.621  -2.416   2.668  0.00  0.00    -0.012 C 
ATOM     12  C   UNL     1       0.742  -1.969   1.200  0.00  0.00    -0.074 C 
ATOM     13  H   UNL     1       1.652  -0.124   1.211  0.00  0.00    -0.081 HD
BRANCH   8  15
ATOM     14  C   UNL     1      -0.019   1.526   0.010  0.00  0.00    -0.014 C 
ATOM     15  C   UNL     1       0.002  -0.004   0.002  0.00  0.00    -0.075 C 
ATOM     16  C   UNL     1       0.718  -0.497  -1.257  0.00  0.00    -0.014 C 
ENDBRANCH   8  15
ENDBRANCH   7  11
ENDBRANCH   1   7
BRANCH   4  17
ATOM     17  C   UNL     1       3.633  -5.533   6.983  0.00  0.00    +0.107 C 
BRANCH  17  18
ATOM     18  C   UNL     1       3.220  -5.888   8.413  0.00  0.00    +0.038 C 
BRANCH  18  19
ATOM     19  C   UNL     1       4.340  -6.686   9.085  0.00  0.00    +0.119 C 
BRANCH  19  20
ATOM     20  N   UNL     1       3.943  -7.026  10.453  0.00  0.00    -0.224 N 
ATOM     21  C   UNL     1       4.189  -6.249  11.530  0.00  0.00    +0.246 C 
ATOM     22  O   UNL     1       4.758  -5.178  11.550  0.00  0.00    -0.273 OA
ATOM     23  C   UNL     1       3.606  -6.997  12.702  0.00  0.00    +0.113 C 
ATOM     24  C   UNL     1       2.519  -6.168  13.399  0.00  0.00    +0.035 C 
ATOM     25  C   UNL     1       2.675  -6.532  14.899  0.00  0.00    +0.003 C 
ATOM     26  C   UNL     1       4.210  -6.664  15.063  0.00  0.00    +0.003 C 
ATOM     27  C   UNL     1       4.678  -7.319  13.745  0.00  0.00    +0.035 C 
ATOM     28  N   UNL     1       3.046  -8.217  12.116  0.00  0.00    -0.285 N 
ATOM     29  C   UNL     1       3.287  -8.143  10.791  0.00  0.00    +0.309 C 
ATOM     30  O   UNL     1       2.950  -8.997   9.995  0.00  0.00    -0.252 OA
ATOM     31  H   UNL     1       2.591  -8.932  12.586  0.00  0.00    +0.151 HD
ENDBRANCH  19  20
ENDBRANCH  18  19
ENDBRANCH  17  18
ENDBRANCH   4  17
TORSDOF 7
