REMARK  Name = ZINC37264167
REMARK  13 active torsions:
REMARK  status: ('A' for Active; 'I' for Inactive)
REMARK    1  A    between atoms: C_1  and  C_2
REMARK    2  A    between atoms: C_2  and  C_3
REMARK    3  A    between atoms: C_2  and  C_4
REMARK    4  A    between atoms: C_2  and  C_5
REMARK    5  A    between atoms: N_8  and  C_10
REMARK    6  A    between atoms: N_17  and  C_29
REMARK    7  A    between atoms: C_22  and  C_24
REMARK    8  A    between atoms: C_29  and  C_30
REMARK    9  A    between atoms: N_32  and  C_33
REMARK   10  A    between atoms: C_33  and  C_34
REMARK   11  A    between atoms: C_34  and  N_35
REMARK   12  A    between atoms: N_35  and  C_36
REMARK   13  A    between atoms: N_35  and  C_37
REMARK                            x       y       z     vdW  Elec       q    Type
REMARK                         _______ _______ _______ _____ _____    ______ ____
ROOT
ATOM      1  C   UNL     1       0.653   0.035  -1.435  0.00  0.00    +0.075 A 
ATOM      2  C   UNL     1      -0.042  -0.244  -2.613  0.00  0.00    +0.034 A 
ATOM      3  C   UNL     1       0.681   0.245  -3.647  0.00  0.00    +0.136 A 
ATOM      4  N   UNL     1       1.799   0.821  -3.144  0.00  0.00    -0.217 N 
ATOM      5  N   UNL     1       1.753   0.675  -1.749  0.00  0.00    -0.169 NA
ATOM      6  N   UNL     1       0.292   0.140  -4.991  0.00  0.00    -0.246 N 
ATOM      7  C   UNL     1      -0.103  -1.053  -5.449  0.00  0.00    +0.231 C 
ATOM      8  O   UNL     1      -0.724  -1.125  -6.488  0.00  0.00    -0.274 OA
ATOM      9  C   UNL     1       0.217  -2.300  -4.682  0.00  0.00    +0.166 C 
ATOM     10  S   UNL     1      -1.058  -2.629  -3.421  0.00  0.00    -0.138 S 
ATOM     11  C   UNL     1      -1.363  -0.956  -2.747  0.00  0.00    +0.118 C 
ENDROOT
BRANCH   4  12
ATOM     12  C   UNL     1       2.812   1.449  -3.881  0.00  0.00    +0.070 A 
ATOM     13  C   UNL     1       3.275   0.875  -5.058  0.00  0.00    +0.028 A 
ATOM     14  C   UNL     1       4.274   1.496  -5.782  0.00  0.00    +0.005 A 
ATOM     15  C   UNL     1       4.814   2.689  -5.338  0.00  0.00    +0.038 A 
ATOM     16  C   UNL     1       4.355   3.265  -4.165  0.00  0.00    +0.125 A 
ATOM     17  C   UNL     1       3.350   2.650  -3.438  0.00  0.00    +0.066 A 
ATOM     18  F   UNL     1       4.884   4.430  -3.732  0.00  0.00    -0.205 F 
ENDBRANCH   4  12
BRANCH  11  19
ATOM     19  C   UNL     1      -2.018  -1.067  -1.395  0.00  0.00    +0.007 A 
ATOM     20  C   UNL     1      -1.803  -1.977  -0.414  0.00  0.00    +0.012 A 
ATOM     21  C   UNL     1      -2.528  -1.883   0.759  0.00  0.00    +0.008 A 
ATOM     22  C   UNL     1      -3.433  -0.883   0.894  0.00  0.00    +0.045 A 
ATOM     23  S   UNL     1      -3.274  -0.028  -0.665  0.00  0.00    -0.100 S 
ENDBRANCH  11  19
BRANCH   1  25
ATOM     24  C   UNL     1       1.179   0.274   0.976  0.00  0.00    +0.017 C 
ATOM     25  C   UNL     1       0.212  -0.333  -0.042  0.00  0.00    +0.007 C 
ATOM     26  C   UNL     1       0.204  -1.855   0.107  0.00  0.00    +0.017 C 
ATOM     27  C   UNL     1      -1.197   0.211   0.207  0.00  0.00    +0.017 C 
ENDBRANCH   1  25
BRANCH   6  28
ATOM     28  C   UNL     1       0.318   1.309  -5.872  0.00  0.00    +0.210 C 
BRANCH  28  29
ATOM     29  C   UNL     1      -0.975   2.070  -5.736  0.00  0.00    +0.231 C 
ATOM     30  O   UNL     1      -1.797   1.727  -4.912  0.00  0.00    -0.274 OA
ATOM     31  N   UNL     1      -1.220   3.131  -6.530  0.00  0.00    -0.316 N 
ATOM     32  H   UNL     1      -0.598   3.361  -7.238  0.00  0.00    +0.149 HD
BRANCH  31  33
ATOM     33  C   UNL     1      -2.426   3.937  -6.325  0.00  0.00    +0.085 C 
BRANCH  33  34
ATOM     34  C   UNL     1      -2.526   4.995  -7.426  0.00  0.00    -0.061 C 
BRANCH  34  35
ATOM     35  N   UNL     1      -3.735   5.803  -7.220  0.00  0.00    +0.377 N 
ATOM     36  C   UNL     1      -3.612   6.558  -5.966  0.00  0.00    -0.097 C 
ATOM     37  C   UNL     1      -3.896   6.739  -8.341  0.00  0.00    -0.097 C 
ATOM     38  H   UNL     1      -4.540   5.197  -7.170  0.00  0.00    -0.083 HD
ENDBRANCH  34  35
ENDBRANCH  33  34
ENDBRANCH  31  33
ENDBRANCH  28  29
ENDBRANCH   6  28
TORSDOF 8
