REMARK  Name = ZINC20125288
REMARK  11 active torsions:
REMARK  status: ('A' for Active; 'I' for Inactive)
REMARK    1  A    between atoms: C_1  and  C_2
REMARK    2  A    between atoms: C_2  and  C_3
REMARK    3  A    between atoms: C_3  and  C_5
REMARK    4  A    between atoms: C_3  and  N_13
REMARK    5  A    between atoms: C_10  and  O_11
REMARK    6  A    between atoms: N_13  and  C_14
REMARK    7  A    between atoms: C_14  and  C_15
REMARK    8  A    between atoms: C_15  and  N_16
REMARK    9  A    between atoms: C_17  and  C_19
REMARK   10  A    between atoms: C_19  and  C_20
REMARK   11  A    between atoms: C_19  and  C_21
REMARK                            x       y       z     vdW  Elec       q    Type
REMARK                         _______ _______ _______ _____ _____    ______ ____
ROOT
ATOM      1  C   UNL     1       1.133   3.602   0.020  0.00  0.00    -0.037 C 
ENDROOT
BRANCH   1   2
ATOM      2  C   UNL     1       2.027   3.035  -1.053  0.00  0.00    -0.019 A 
ATOM      3  C   UNL     1       1.478   2.549  -2.224  0.00  0.00    +0.020 A 
ATOM      4  C   UNL     1       2.298   2.029  -3.210  0.00  0.00    +0.018 A 
ATOM      5  C   UNL     1       3.669   1.994  -3.025  0.00  0.00    +0.019 A 
ATOM      6  C   UNL     1       4.221   2.480  -1.855  0.00  0.00    +0.047 A 
ATOM      7  C   UNL     1       3.401   3.002  -0.866  0.00  0.00    +0.119 A 
ATOM      8 BR   UNL     1       1.544   1.364  -4.811  0.00  0.00    -0.050 Br
BRANCH   7   9
ATOM      9  O   UNL     1       3.942   3.479   0.285  0.00  0.00    -0.507 OA
ATOM     10  H   UNL     1       5.032   3.452   0.433  0.00  0.00    +0.292 HD
ENDBRANCH   7   9
ENDBRANCH   1   2
BRANCH   1  11
ATOM     11  N   UNL     1      -0.099   4.119  -0.591  0.00  0.00    +0.385 N 
ATOM     12  H   UNL     1      -0.442   3.423  -1.371  0.00  0.00    -0.085 HD
ATOM     13  H   UNL     1      -0.877   4.218   0.180  0.00  0.00    -0.085 HD
BRANCH  11  14
ATOM     14  C   UNL     1       0.130   5.435  -1.203  0.00  0.00    -0.063 C 
BRANCH  14  15
ATOM     15  C   UNL     1      -1.141   5.889  -1.925  0.00  0.00    +0.085 C 
BRANCH  15  16
ATOM     16  N   UNL     1      -0.913   7.202  -2.534  0.00  0.00    -0.317 N 
ATOM     17  C   UNL     1      -1.900   7.803  -3.227  0.00  0.00    +0.216 C 
ATOM     18  O   UNL     1      -2.977   7.258  -3.345  0.00  0.00    -0.276 OA
ATOM     19  H   UNL     1       0.064   7.696  -2.427  0.00  0.00    +0.149 HD
BRANCH  17  20
ATOM     20  C   UNL     1      -1.666   9.154  -3.854  0.00  0.00    +0.069 C 
ATOM     21  C   UNL     1      -0.515   9.057  -4.859  0.00  0.00    +0.017 C 
ATOM     22  C   UNL     1      -2.936   9.608  -4.576  0.00  0.00    +0.017 C 
ENDBRANCH  17  20
ENDBRANCH  15  16
ENDBRANCH  14  15
ENDBRANCH  11  14
ENDBRANCH   1  11
BRANCH   1  24
ATOM     23  C   UNL     1      -0.014   3.105   2.183  0.00  0.00    +0.002 C 
ATOM     24  C   UNL     1       0.781   2.502   1.024  0.00  0.00    -0.015 C 
ENDBRANCH   1  24
TORSDOF 8
