REMARK  Name = ZINC62217544
REMARK  7 active torsions:
REMARK  status: ('A' for Active; 'I' for Inactive)
REMARK    1  A    between atoms: C_1  and  C_2
REMARK    2  A    between atoms: C_5  and  C_8
REMARK    3  A    between atoms: C_9  and  C_10
REMARK    4  A    between atoms: C_11  and  C_22
REMARK    5  A    between atoms: N_14  and  C_15
REMARK    6  A    between atoms: C_18  and  O_21
REMARK    7  A    between atoms: C_22  and  N_23
REMARK                            x       y       z     vdW  Elec       q    Type
REMARK                         _______ _______ _______ _____ _____    ______ ____
ROOT
ATOM      1  C   UNL     1       0.092  -6.393   1.132  0.00  0.00    +0.089 A 
ATOM      2  C   UNL     1       0.947  -7.215   1.836  0.00  0.00    +0.073 A 
ATOM      3  N   UNL     1       0.642  -8.479   1.561  0.00  0.00    -0.136 NA
ATOM      4  N   UNL     1      -0.342  -8.534   0.735  0.00  0.00    -0.060 NA
ATOM      5  N   UNL     1      -0.742  -7.225   0.426  0.00  0.00    -0.213 N 
ENDROOT
BRANCH   5   6
ATOM      6  C   UNL     1      -1.783  -6.843  -0.432  0.00  0.00    +0.068 A 
ATOM      7  C   UNL     1      -2.537  -5.712  -0.149  0.00  0.00    +0.031 A 
ATOM      8  C   UNL     1      -3.561  -5.336  -0.994  0.00  0.00    +0.047 A 
ATOM      9  C   UNL     1      -3.839  -6.089  -2.126  0.00  0.00    +0.117 A 
ATOM     10  C   UNL     1      -3.087  -7.220  -2.409  0.00  0.00    +0.047 A 
ATOM     11  C   UNL     1      -2.058  -7.593  -1.567  0.00  0.00    +0.031 A 
BRANCH   9  12
ATOM     12  O   UNL     1      -4.848  -5.719  -2.958  0.00  0.00    -0.507 OA
ATOM     13  H   UNL     1      -4.574  -5.119  -3.666  0.00  0.00    +0.292 HD
ENDBRANCH   9  12
ENDBRANCH   5   6
BRANCH   1  15
ATOM     14  C   UNL     1       0.058  -4.247  -0.021  0.00  0.00    +0.010 C 
ATOM     15  C   UNL     1       0.073  -4.926   1.140  0.00  0.00    +0.030 C 
BRANCH  14  20
ATOM     16  C   UNL     1      -0.018   1.503   0.010  0.00  0.00    +0.044 C 
ATOM     17  C   UNL     1       0.002  -0.004   0.002  0.00  0.00    -0.050 A 
ATOM     18  C   UNL     1       0.006  -0.686  -1.202  0.00  0.00    +0.004 A 
ATOM     19  C   UNL     1       0.024  -2.065  -1.218  0.00  0.00    +0.008 A 
ATOM     20  C   UNL     1       0.039  -2.774  -0.013  0.00  0.00    -0.025 A 
ATOM     21  C   UNL     1       0.036  -2.078   1.199  0.00  0.00    +0.008 A 
ATOM     22  C   UNL     1       0.023  -0.699   1.199  0.00  0.00    +0.004 A 
ENDBRANCH  14  20
ENDBRANCH   1  15
BRANCH   2  23
ATOM     23  C   UNL     1       2.044  -6.756   2.762  0.00  0.00    -0.026 C 
BRANCH  23  24
ATOM     24  N   UNL     1       1.511  -6.622   4.124  0.00  0.00    +0.382 N 
ATOM     25  H   UNL     1       2.246  -6.315   4.744  0.00  0.00    -0.090 HD
ATOM     26  H   UNL     1       0.763  -5.946   4.128  0.00  0.00    -0.090 HD
ATOM     27  H   UNL     1       1.159  -7.515   4.436  0.00  0.00    -0.090 HD
ENDBRANCH  23  24
ENDBRANCH   2  23
TORSDOF 6
