REMARK  Name = ZINC66682204
REMARK  8 active torsions:
REMARK  status: ('A' for Active; 'I' for Inactive)
REMARK    1  A    between atoms: C_1  and  C_2
REMARK    2  A    between atoms: C_4  and  N_14
REMARK    3  A    between atoms: C_7  and  C_8
REMARK    4  A    between atoms: N_10  and  C_11
REMARK    5  A    between atoms: C_11  and  C_12
REMARK    6  A    between atoms: C_11  and  C_13
REMARK    7  A    between atoms: N_17  and  C_18
REMARK    8  A    between atoms: C_27  and  O_29
REMARK                            x       y       z     vdW  Elec       q    Type
REMARK                         _______ _______ _______ _____ _____    ______ ____
ROOT
ATOM      1  N   UNL     1      -0.182  -2.769  -2.405  0.00  0.00    -0.269 N 
ATOM      2  C   UNL     1       0.307  -2.363  -3.594  0.00  0.00    +0.304 C 
ATOM      3  O   UNL     1       0.831  -1.271  -3.695  0.00  0.00    -0.252 OA
ATOM      4  N   UNL     1       0.215  -3.168  -4.671  0.00  0.00    -0.290 N 
ATOM      5  H   UNL     1      -0.664  -3.608  -2.340  0.00  0.00    +0.156 HD
ATOM      6  H   UNL     1      -0.204  -4.040  -4.590  0.00  0.00    +0.151 HD
ENDROOT
BRANCH   4   7
ATOM      7  C   UNL     1       0.746  -2.728  -5.963  0.00  0.00    +0.134 C 
ATOM      8  C   UNL     1       2.210  -3.096  -6.082  0.00  0.00    -0.021 A 
ATOM      9  C   UNL     1       3.241  -2.983  -5.164  0.00  0.00    +0.006 A 
ATOM     10  C   UNL     1       4.517  -3.389  -5.500  0.00  0.00    +0.000 A 
ATOM     11  C   UNL     1       4.768  -3.910  -6.756  0.00  0.00    +0.000 A 
ATOM     12  C   UNL     1       3.741  -4.023  -7.672  0.00  0.00    +0.004 A 
ATOM     13  C   UNL     1       2.460  -3.616  -7.337  0.00  0.00    -0.040 A 
ATOM     14  C   UNL     1       1.182  -3.634  -8.148  0.00  0.00    +0.069 C 
ATOM     15  C   UNL     1       0.044  -3.477  -7.115  0.00  0.00    +0.143 C 
BRANCH  15  16
ATOM     16  O   UNL     1      -0.425  -4.755  -6.678  0.00  0.00    -0.389 OA
ATOM     17  H   UNL     1      -0.874  -5.265  -7.366  0.00  0.00    +0.210 HD
ENDBRANCH  15  16
ENDBRANCH   4   7
BRANCH   1  21
ATOM     18  C   UNL     1       0.146   1.687  -0.371  0.00  0.00    +0.044 C 
ATOM     19  C   UNL     1       0.168   0.185  -0.255  0.00  0.00    -0.037 A 
ATOM     20  C   UNL     1      -0.016  -0.595  -1.375  0.00  0.00    +0.027 A 
ATOM     21  C   UNL     1       0.005  -1.982  -1.270  0.00  0.00    +0.035 A 
ATOM     22  C   UNL     1       0.210  -2.586  -0.033  0.00  0.00    +0.024 A 
ATOM     23  C   UNL     1       0.395  -1.812   1.091  0.00  0.00    +0.015 A 
ATOM     24  C   UNL     1       0.380  -0.418   0.987  0.00  0.00    +0.040 A 
BRANCH  24  25
ATOM     25  C   UNL     1       0.583   0.414   2.189  0.00  0.00    +0.245 C 
ATOM     26  O   UNL     1       0.502   1.625   2.110  0.00  0.00    -0.270 OA
ATOM     27  N   UNL     1       0.858  -0.167   3.373  0.00  0.00    -0.309 N 
ATOM     28  H   UNL     1       0.922  -1.133   3.436  0.00  0.00    +0.149 HD
BRANCH  27  29
ATOM     29  C   UNL     1       1.059   0.660   4.566  0.00  0.00    +0.067 C 
ATOM     30  C   UNL     1       0.737  -0.162   5.816  0.00  0.00    +0.027 C 
ATOM     31  C   UNL     1       2.515   1.126   4.623  0.00  0.00    +0.027 C 
ENDBRANCH  27  29
ENDBRANCH  24  25
ENDBRANCH   1  21
TORSDOF 5
