REMARK  Name = ZINC66967062
REMARK  10 active torsions:
REMARK  status: ('A' for Active; 'I' for Inactive)
REMARK    1  A    between atoms: C_1  and  C_2
REMARK    2  A    between atoms: C_2  and  C_3
REMARK    3  A    between atoms: C_3  and  C_4
REMARK    4  A    between atoms: C_4  and  N_5
REMARK    5  A    between atoms: C_11  and  N_14
REMARK    6  A    between atoms: N_14  and  C_15
REMARK    7  A    between atoms: C_15  and  C_17
REMARK    8  A    between atoms: C_15  and  C_18
REMARK    9  A    between atoms: N_23  and  C_24
REMARK   10  A    between atoms: C_24  and  C_25
REMARK                            x       y       z     vdW  Elec       q    Type
REMARK                         _______ _______ _______ _____ _____    ______ ____
ROOT
ATOM      1  N   UNL     1       2.386  -6.643  -3.788  0.00  0.00    -0.333 N 
ATOM      2  H   UNL     1       2.540  -6.538  -2.836  0.00  0.00    +0.147 HD
ENDROOT
BRANCH   1   9
ATOM      3  N   UNL     1       1.427  -2.501  -2.474  0.00  0.00    +0.385 N 
ATOM      4  C   UNL     1       0.601  -2.244  -3.676  0.00  0.00    -0.042 C 
ATOM      5  C   UNL     1       0.880  -3.394  -4.617  0.00  0.00    -0.061 A 
ATOM      6  C   UNL     1       0.662  -3.547  -5.973  0.00  0.00    +0.002 A 
ATOM      7  C   UNL     1       1.016  -4.724  -6.606  0.00  0.00    +0.002 A 
ATOM      8  C   UNL     1       1.588  -5.753  -5.884  0.00  0.00    +0.023 A 
ATOM      9  C   UNL     1       1.808  -5.604  -4.521  0.00  0.00    +0.029 A 
ATOM     10  C   UNL     1       1.452  -4.421  -3.888  0.00  0.00    -0.042 A 
ATOM     11  C   UNL     1       1.566  -3.975  -2.448  0.00  0.00    -0.040 C 
ATOM     12  H   UNL     1       2.330  -2.061  -2.562  0.00  0.00    -0.081 HD
BRANCH   3  13
ATOM     13  C   UNL     1       0.739  -2.027  -1.265  0.00  0.00    -0.078 C 
BRANCH  13  14
ATOM     14  C   UNL     1       0.718  -0.497  -1.257  0.00  0.00    -0.019 C 
BRANCH  14  16
ATOM     15  C   UNL     1      -0.019   1.526   0.010  0.00  0.00    +0.004 C 
ATOM     16  C   UNL     1       0.002  -0.004   0.002  0.00  0.00    -0.005 C 
ENDBRANCH  14  16
ENDBRANCH  13  14
ENDBRANCH   3  13
ENDBRANCH   1   9
BRANCH   1  17
ATOM     17  C   UNL     1       2.761  -7.892  -4.457  0.00  0.00    +0.154 C 
ATOM     18  C   UNL     1       1.544  -8.816  -4.529  0.00  0.00    +0.038 C 
BRANCH  17  19
ATOM     19  C   UNL     1       3.860  -8.568  -3.679  0.00  0.00    +0.240 C 
ATOM     20  O   UNL     1       4.288  -8.058  -2.666  0.00  0.00    -0.273 OA
ATOM     21  N   UNL     1       4.367  -9.741  -4.109  0.00  0.00    -0.239 N 
ATOM     22  C   UNL     1       5.350 -10.346  -3.414  0.00  0.00    +0.306 C 
ATOM     23  O   UNL     1       5.779  -9.834  -2.398  0.00  0.00    -0.252 OA
ATOM     24  N   UNL     1       5.857 -11.518  -3.844  0.00  0.00    -0.291 N 
ATOM     25  H   UNL     1       4.024 -10.149  -4.920  0.00  0.00    +0.159 HD
ATOM     26  H   UNL     1       5.514 -11.926  -4.655  0.00  0.00    +0.151 HD
BRANCH  24  27
ATOM     27  C   UNL     1       6.926 -12.175  -3.088  0.00  0.00    +0.219 C 
BRANCH  27  28
ATOM     28  C   UNL     1       7.317 -13.479  -3.787  0.00  0.00    +0.405 C 
ATOM     29  F   UNL     1       7.766 -13.198  -5.081  0.00  0.00    -0.169 F 
ATOM     30  F   UNL     1       8.337 -14.107  -3.065  0.00  0.00    -0.169 F 
ATOM     31  F   UNL     1       6.204 -14.325  -3.853  0.00  0.00    -0.169 F 
ENDBRANCH  27  28
ENDBRANCH  24  27
ENDBRANCH  17  19
ENDBRANCH   1  17
TORSDOF 8
