REMARK  Name = ZINC34757839
REMARK  5 active torsions:
REMARK  status: ('A' for Active; 'I' for Inactive)
REMARK    1  A    between atoms: C_7  and  C_9
REMARK    2  A    between atoms: C_9  and  N_10
REMARK    3  A    between atoms: C_23  and  S_25
REMARK    4  A    between atoms: S_25  and  C_26
REMARK    5  A    between atoms: C_26  and  C_27
REMARK                            x       y       z     vdW  Elec       q    Type
REMARK                         _______ _______ _______ _____ _____    ______ ____
ROOT
ATOM      1  N   UNL     1       5.559  -1.924   1.614  0.00  0.00    +0.387 N 
ATOM      2  C   UNL     1       6.954  -2.364   1.480  0.00  0.00    -0.059 C 
ATOM      3  C   UNL     1       7.020  -3.891   1.590  0.00  0.00    +0.088 C 
ATOM      4  N   UNL     1       6.373  -4.297   2.847  0.00  0.00    -0.318 N 
ATOM      5  C   UNL     1       5.032  -3.767   3.139  0.00  0.00    +0.088 C 
ATOM      6  C   UNL     1       5.060  -2.246   2.957  0.00  0.00    -0.059 C 
ATOM      7  C   UNL     1       7.007  -5.152   3.729  0.00  0.00    +0.134 A 
ATOM      8  C   UNL     1       6.901  -6.562   3.568  0.00  0.00    +0.051 A 
ATOM      9  C   UNL     1       6.167  -7.311   2.534  0.00  0.00    -0.025 A 
ATOM     10  C   UNL     1       6.221  -8.650   2.601  0.00  0.00    -0.004 A 
ATOM     11  S   UNL     1       7.237  -9.002   4.017  0.00  0.00    -0.073 S 
ATOM     12  C   UNL     1       7.585  -7.338   4.520  0.00  0.00    +0.115 A 
ATOM     13  N   UNL     1       8.278  -6.783   5.496  0.00  0.00    -0.214 NA
ATOM     14  C   UNL     1       8.344  -5.462   5.599  0.00  0.00    +0.191 A 
ATOM     15  N   UNL     1       7.725  -4.671   4.730  0.00  0.00    -0.206 NA
ATOM     16  C   UNL     1       5.432  -9.307   1.500  0.00  0.00    +0.043 C 
ATOM     17  C   UNL     1       4.508  -8.191   0.966  0.00  0.00    +0.010 C 
ATOM     18  C   UNL     1       5.307  -6.923   1.327  0.00  0.00    +0.037 C 
ATOM     19  H   UNL     1       4.994  -2.395   0.924  0.00  0.00    -0.081 HD
ENDROOT
BRANCH   1  20
ATOM     20  C   UNL     1       5.483  -0.473   1.400  0.00  0.00    +0.019 C 
BRANCH  20  27
ATOM     21  C   UNL     1       4.869   3.510  -1.580  0.00  0.00    +0.003 C 
ATOM     22  C   UNL     1       5.152   2.290  -2.461  0.00  0.00    +0.019 C 
ATOM     23  C   UNL     1       6.267   1.454  -1.824  0.00  0.00    +0.107 C 
ATOM     24  N   UNL     1       5.883   1.126  -0.445  0.00  0.00    -0.303 N 
ATOM     25  C   UNL     1       5.504   2.218   0.462  0.00  0.00    +0.107 C 
ATOM     26  C   UNL     1       4.397   3.046  -0.200  0.00  0.00    +0.019 C 
ATOM     27  C   UNL     1       5.879  -0.153  -0.018  0.00  0.00    +0.199 C 
ATOM     28  O   UNL     1       6.194  -1.046  -0.776  0.00  0.00    -0.278 OA
ENDBRANCH  20  27
ENDBRANCH   1  20
BRANCH  14  29
ATOM     29  S   UNL     1       9.276  -4.744   6.910  0.00  0.00    -0.077 S 
BRANCH  29  30
ATOM     30  C   UNL     1       9.931  -6.171   7.817  0.00  0.00    +0.173 C 
BRANCH  30  31
ATOM     31  C   UNL     1      10.759  -5.691   8.981  0.00  0.00    +0.226 C 
ATOM     32  O   UNL     1      10.893  -4.502   9.179  0.00  0.00    -0.275 OA
ATOM     33  N   UNL     1      11.349  -6.582   9.802  0.00  0.00    -0.301 N 
ATOM     34  C   UNL     1      11.275  -8.044   9.674  0.00  0.00    +0.108 C 
ATOM     35  C   UNL     1      12.078  -8.648  10.845  0.00  0.00    +0.020 C 
ATOM     36  C   UNL     1      12.088  -7.499  11.888  0.00  0.00    +0.020 C 
ATOM     37  C   UNL     1      12.183  -6.251  10.972  0.00  0.00    +0.108 C 
ENDBRANCH  30  31
ENDBRANCH  29  30
ENDBRANCH  14  29
TORSDOF 5
