REMARK  Name = ZINC16432897
REMARK  14 active torsions:
REMARK  status: ('A' for Active; 'I' for Inactive)
REMARK    1  A    between atoms: C_1  and  C_2
REMARK    2  A    between atoms: C_2  and  C_3
REMARK    3  A    between atoms: C_3  and  C_4
REMARK    4  A    between atoms: C_4  and  N_5
REMARK    5  A    between atoms: N_5  and  C_6
REMARK    6  A    between atoms: C_6  and  C_7
REMARK    7  A    between atoms: N_9  and  C_10
REMARK    8  A    between atoms: C_12  and  C_22
REMARK    9  A    between atoms: N_14  and  C_15
REMARK   10  A    between atoms: C_20  and  C_21
REMARK   11  A    between atoms: C_22  and  C_23
REMARK   12  A    between atoms: C_22  and  C_24
REMARK   13  A    between atoms: C_22  and  C_25
REMARK   14  A    between atoms: N_28  and  C_29
REMARK                            x       y       z     vdW  Elec       q    Type
REMARK                         _______ _______ _______ _____ _____    ______ ____
ROOT
ATOM      1  C   UNL     1       3.948   2.094   1.421  0.00  0.00    +0.236 C 
ATOM      2  O   UNL     1       3.243   1.750   2.346  0.00  0.00    -0.274 OA
ATOM      3  N   UNL     1       5.072   2.800   1.656  0.00  0.00    -0.269 N 
ATOM      4  H   UNL     1       5.636   3.074   0.916  0.00  0.00    +0.156 HD
ENDROOT
BRANCH   3   5
ATOM      5  C   UNL     1       5.424   3.135   2.963  0.00  0.00    +0.129 A 
ATOM      6  C   UNL     1       4.786   2.736   4.097  0.00  0.00    +0.069 A 
ATOM      7  C   UNL     1       5.461   3.290   5.188  0.00  0.00    +0.071 A 
ATOM      8  N   UNL     1       6.462   4.004   4.737  0.00  0.00    -0.169 NA
ATOM      9  N   UNL     1       6.466   3.926   3.338  0.00  0.00    -0.218 N 
BRANCH   9  10
ATOM     10  C   UNL     1       7.379   4.553   2.479  0.00  0.00    +0.070 A 
ATOM     11  C   UNL     1       8.008   3.821   1.480  0.00  0.00    +0.028 A 
ATOM     12  C   UNL     1       8.907   4.441   0.634  0.00  0.00    +0.002 A 
ATOM     13  C   UNL     1       9.181   5.789   0.782  0.00  0.00    +0.000 A 
ATOM     14  C   UNL     1       8.556   6.519   1.776  0.00  0.00    +0.005 A 
ATOM     15  C   UNL     1       7.652   5.906   2.621  0.00  0.00    -0.025 A 
ATOM     16  C   UNL     1       6.967   6.705   3.700  0.00  0.00    +0.046 C 
ENDBRANCH   9  10
BRANCH   7  17
ATOM     17  C   UNL     1       5.096   3.103   6.638  0.00  0.00    +0.006 C 
ATOM     18  C   UNL     1       5.512   1.703   7.092  0.00  0.00    +0.017 C 
ATOM     19  C   UNL     1       5.820   4.151   7.485  0.00  0.00    +0.017 C 
ATOM     20  C   UNL     1       3.584   3.266   6.807  0.00  0.00    +0.017 C 
ENDBRANCH   7  17
ENDBRANCH   3   5
BRANCH   1  21
ATOM     21  C   UNL     1       3.567   1.731   0.009  0.00  0.00    +0.205 C 
BRANCH  21  22
ATOM     22  N   UNL     1       2.315   0.970   0.020  0.00  0.00    -0.277 N 
ATOM     23  C   UNL     1       1.135   1.614  -0.066  0.00  0.00    +0.307 C 
ATOM     24  O   UNL     1       1.108   2.827  -0.154  0.00  0.00    -0.252 OA
ATOM     25  N   UNL     1      -0.017   0.914  -0.055  0.00  0.00    -0.269 N 
ATOM     26  H   UNL     1       0.005  -0.056  -0.050  0.00  0.00    +0.156 HD
BRANCH  25  27
ATOM     27  C   UNL     1      -1.246   1.587  -0.058  0.00  0.00    +0.038 A 
ATOM     28  C   UNL     1      -2.326   1.062   0.638  0.00  0.00    +0.026 A 
ATOM     29  C   UNL     1      -3.536   1.729   0.639  0.00  0.00    +0.043 A 
ATOM     30  C   UNL     1      -3.676   2.914  -0.063  0.00  0.00    +0.159 A 
ATOM     31  C   UNL     1      -2.600   3.437  -0.763  0.00  0.00    +0.160 A 
ATOM     32  C   UNL     1      -1.385   2.775  -0.762  0.00  0.00    +0.064 A 
ATOM     33  F   UNL     1      -2.737   4.594  -1.447  0.00  0.00    -0.202 F 
ATOM     34  F   UNL     1      -4.862   3.562  -0.065  0.00  0.00    -0.202 F 
ENDBRANCH  25  27
BRANCH  22  35
ATOM     35  C   UNL     1       2.347  -0.490   0.126  0.00  0.00    +0.110 C 
BRANCH  35  36
ATOM     36  C   UNL     1       2.408  -1.102  -1.275  0.00  0.00    +0.019 C 
BRANCH  36  38
ATOM     37  C   UNL     1       2.501  -3.239  -2.566  0.00  0.00    +0.004 C 
ATOM     38  C   UNL     1       2.441  -2.628  -1.164  0.00  0.00    -0.002 C 
ENDBRANCH  36  38
ENDBRANCH  35  36
ENDBRANCH  22  35
ENDBRANCH  21  22
ENDBRANCH   1  21
TORSDOF 9
