REMARK  Name = ZINC54681429
REMARK  2 active torsions:
REMARK  status: ('A' for Active; 'I' for Inactive)
REMARK    1  A    between atoms: C_1  and  O_2
REMARK    2  A    between atoms: O_2  and  C_3
REMARK                            x       y       z     vdW  Elec       q    Type
REMARK                         _______ _______ _______ _____ _____    ______ ____
ROOT
ATOM      1  C   UNL     1       0.626  -0.618   1.042  0.00  0.00    +0.122 A 
ATOM      2  C   UNL     1       1.195   0.157   2.038  0.00  0.00    +0.046 A 
ATOM      3  C   UNL     1       1.844  -0.423   3.122  0.00  0.00    +0.013 A 
ATOM      4  C   UNL     1       1.895  -1.800   3.159  0.00  0.00    +0.027 A 
ATOM      5  C   UNL     1       1.325  -2.598   2.159  0.00  0.00    +0.044 A 
ATOM      6  C   UNL     1       0.670  -2.008   1.077  0.00  0.00    +0.069 A 
ATOM      7  N   UNL     1       1.520  -3.938   2.444  0.00  0.00    -0.281 N 
ATOM      8  C   UNL     1       2.202  -4.117   3.596  0.00  0.00    +0.267 C 
ATOM      9  O   UNL     1       2.519  -5.178   4.091  0.00  0.00    -0.271 OA
ATOM     10  C   UNL     1       2.495  -2.744   4.150  0.00  0.00    +0.221 C 
ATOM     11  N   UNL     1       1.877  -2.577   5.472  0.00  0.00    -0.283 N 
ATOM     12  C   UNL     1       2.357  -1.609   6.318  0.00  0.00    +0.183 C 
ATOM     13  N   UNL     1       3.620  -1.224   6.275  0.00  0.00    -0.184 NA
ATOM     14  C   UNL     1       4.437  -1.768   5.342  0.00  0.00    +0.214 A 
ATOM     15  N   UNL     1       3.931  -2.532   4.303  0.00  0.00    -0.276 N 
ATOM     16  C   UNL     1       4.998  -2.984   3.563  0.00  0.00    +0.075 A 
ATOM     17  C   UNL     1       5.128  -3.820   2.461  0.00  0.00    +0.077 A 
ATOM     18  C   UNL     1       6.381  -4.084   1.943  0.00  0.00    +0.164 A 
ATOM     19  C   UNL     1       7.517  -3.515   2.511  0.00  0.00    +0.164 A 
ATOM     20  C   UNL     1       7.406  -2.684   3.607  0.00  0.00    +0.077 A 
ATOM     21  C   UNL     1       6.145  -2.416   4.149  0.00  0.00    +0.069 A 
ATOM     22  N   UNL     1       5.735  -1.678   5.217  0.00  0.00    -0.324 N 
ATOM     23  O   UNL     1       8.745  -3.784   1.980  0.00  0.00    -0.488 OA
ATOM     24  C   UNL     1       9.215  -5.125   2.141  0.00  0.00    +0.232 C 
ATOM     25  C   UNL     1       8.666  -6.024   1.043  0.00  0.00    +0.082 C 
ATOM     26  C   UNL     1       7.153  -6.165   1.113  0.00  0.00    +0.232 C 
ATOM     27  O   UNL     1       6.514  -4.912   0.864  0.00  0.00    -0.488 OA
ATOM     28  N   UNL     1       1.510  -1.030   7.224  0.00  0.00    -0.331 N 
ATOM     29  H   UNL     1       1.204  -4.664   1.883  0.00  0.00    +0.155 HD
ATOM     30  H   UNL     1       1.138  -3.144   5.744  0.00  0.00    +0.152 HD
ATOM     31  H   UNL     1       0.581  -1.306   7.264  0.00  0.00    +0.145 HD
ATOM     32  H   UNL     1       1.839  -0.345   7.827  0.00  0.00    +0.145 HD
ATOM     33  H   UNL     1       6.317  -1.163   5.797  0.00  0.00    +0.169 HD
ENDROOT
BRANCH   1  35
ATOM     34  C   UNL     1      -0.017   1.425   0.010  0.00  0.00    +0.277 C 
ATOM     35  O   UNL     1       0.002  -0.004   0.002  0.00  0.00    -0.495 OA
ENDBRANCH   1  35
TORSDOF 1
