REMARK  Name = ZINC63332525
REMARK  7 active torsions:
REMARK  status: ('A' for Active; 'I' for Inactive)
REMARK    1  A    between atoms: C_6  and  C_7
REMARK    2  A    between atoms: C_7  and  C_8
REMARK    3  A    between atoms: C_7  and  O_25
REMARK    4  A    between atoms: C_8  and  N_9
REMARK    5  A    between atoms: N_12  and  C_13
REMARK    6  A    between atoms: N_16  and  C_19
REMARK    7  A    between atoms: C_19  and  C_20
REMARK                            x       y       z     vdW  Elec       q    Type
REMARK                         _______ _______ _______ _____ _____    ______ ____
ROOT
ATOM      1  N   UNL     1      -2.525  -1.871   1.838  0.00  0.00    -0.297 N 
ATOM      2  C   UNL     1      -3.106  -2.340   2.960  0.00  0.00    +0.300 C 
ATOM      3  O   UNL     1      -2.558  -2.193   4.036  0.00  0.00    -0.253 OA
ATOM      4  N   UNL     1      -4.294  -2.972   2.890  0.00  0.00    -0.297 N 
ATOM      5  H   UNL     1      -2.962  -1.989   0.980  0.00  0.00    +0.150 HD
ATOM      6  H   UNL     1      -4.731  -3.090   2.032  0.00  0.00    +0.151 HD
ENDROOT
BRANCH   4   7
ATOM      7  C   UNL     1      -4.926  -3.481   4.110  0.00  0.00    +0.071 C 
ATOM      8  C   UNL     1      -4.379  -4.877   4.426  0.00  0.00    +0.004 C 
ATOM      9  C   UNL     1      -5.101  -5.435   5.654  0.00  0.00    -0.077 C 
ATOM     10  N   UNL     1      -6.540  -5.522   5.383  0.00  0.00    +0.380 N 
ATOM     11  C   UNL     1      -7.085  -4.179   5.151  0.00  0.00    -0.077 C 
ATOM     12  C   UNL     1      -6.441  -3.572   3.903  0.00  0.00    +0.004 C 
ATOM     13  H   UNL     1      -6.694  -6.093   4.566  0.00  0.00    -0.082 HD
BRANCH  10  14
ATOM     14  C   UNL     1      -7.218  -6.131   6.536  0.00  0.00    -0.075 C 
BRANCH  14  15
ATOM     15  C   UNL     1      -6.770  -7.587   6.681  0.00  0.00    -0.028 C 
ATOM     16  C   UNL     1      -7.275  -8.417   5.482  0.00  0.00    +0.002 C 
ATOM     17  C   UNL     1      -7.645  -9.788   6.100  0.00  0.00    +0.000 C 
ATOM     18  C   UNL     1      -8.260  -9.394   7.465  0.00  0.00    +0.000 C 
ATOM     19  C   UNL     1      -7.396  -8.208   7.941  0.00  0.00    +0.002 C 
ENDBRANCH  14  15
ENDBRANCH  10  14
ENDBRANCH   4   7
BRANCH   1  20
ATOM     20  C   UNL     1      -1.233  -1.184   1.915  0.00  0.00    +0.141 C 
BRANCH  20  21
ATOM     21  C   UNL     1      -0.799  -0.756   0.511  0.00  0.00    +0.162 C 
BRANCH  21  27
ATOM     22  C   UNL     1       0.574   1.329   0.666  0.00  0.00    +0.009 A 
ATOM     23  C   UNL     1       1.792   1.980   0.738  0.00  0.00    +0.041 A 
ATOM     24  C   UNL     1       2.967   1.250   0.733  0.00  0.00    +0.158 A 
ATOM     25  C   UNL     1       2.922  -0.134   0.657  0.00  0.00    +0.159 A 
ATOM     26  C   UNL     1       1.702  -0.782   0.585  0.00  0.00    +0.047 A 
ATOM     27  C   UNL     1       0.529  -0.050   0.589  0.00  0.00    -0.015 A 
ATOM     28  F   UNL     1       4.069  -0.849   0.652  0.00  0.00    -0.202 F 
ATOM     29  F   UNL     1       4.158   1.885   0.803  0.00  0.00    -0.202 F 
ENDBRANCH  21  27
BRANCH  21  30
ATOM     30  O   UNL     1      -0.677  -1.911  -0.322  0.00  0.00    -0.386 OA
ATOM     31  H   UNL     1      -0.029  -2.556  -0.007  0.00  0.00    +0.210 HD
ENDBRANCH  21  30
ENDBRANCH  20  21
ENDBRANCH   1  20
TORSDOF 7
