REMARK  Name = ZINC36017374
REMARK  15 active torsions:
REMARK  status: ('A' for Active; 'I' for Inactive)
REMARK    1  A    between atoms: C_1  and  C_2
REMARK    2  A    between atoms: C_2  and  N_3
REMARK    3  A    between atoms: C_4  and  C_24
REMARK    4  A    between atoms: C_5  and  C_19
REMARK    5  A    between atoms: C_6  and  C_11
REMARK    6  A    between atoms: C_13  and  C_18
REMARK    7  A    between atoms: C_16  and  C_17
REMARK    8  A    between atoms: C_19  and  O_21
REMARK    9  A    between atoms: O_21  and  C_22
REMARK   10  A    between atoms: C_22  and  C_23
REMARK   11  A    between atoms: C_24  and  N_25
REMARK   12  A    between atoms: N_34  and  C_35
REMARK   13  A    between atoms: C_35  and  C_36
REMARK   14  A    between atoms: C_35  and  C_37
REMARK   15  A    between atoms: C_35  and  C_38
REMARK                            x       y       z     vdW  Elec       q    Type
REMARK                         _______ _______ _______ _____ _____    ______ ____
ROOT
ATOM      1  N   UNL     1       0.675  -0.222  -0.964  0.00  0.00    -0.261 N 
ATOM      2  C   UNL     1      -0.139  -0.572  -2.003  0.00  0.00    +0.010 C 
ATOM      3  C   UNL     1       0.346  -1.235  -3.075  0.00  0.00    +0.076 C 
ATOM      4  C   UNL     1       1.823  -1.575  -3.085  0.00  0.00    +0.144 C 
ATOM      5  N   UNL     1       2.613  -1.153  -1.916  0.00  0.00    -0.288 N 
ATOM      6  C   UNL     1       1.985  -0.493  -0.922  0.00  0.00    +0.307 C 
ATOM      7  O   UNL     1       2.629  -0.136   0.045  0.00  0.00    -0.252 OA
ATOM      8  H   UNL     1       3.563  -1.342  -1.864  0.00  0.00    +0.151 HD
ENDROOT
BRANCH   4   9
ATOM      9  C   UNL     1       1.954  -3.071  -3.217  0.00  0.00    -0.019 A 
ATOM     10  C   UNL     1       0.872  -3.886  -2.941  0.00  0.00    +0.009 A 
ATOM     11  C   UNL     1       0.992  -5.258  -3.062  0.00  0.00    -0.050 A 
ATOM     12  C   UNL     1       2.193  -5.814  -3.460  0.00  0.00    +0.003 A 
ATOM     13  C   UNL     1       3.274  -4.999  -3.737  0.00  0.00    +0.004 A 
ATOM     14  C   UNL     1       3.153  -3.627  -3.620  0.00  0.00    -0.045 A 
ATOM     15  C   UNL     1       4.330  -2.738  -3.927  0.00  0.00    +0.044 C 
ATOM     16  C   UNL     1      -0.187  -6.147  -2.760  0.00  0.00    +0.044 C 
ENDBRANCH   4   9
BRANCH   1  18
ATOM     17  C   UNL     1       0.217   2.003  -0.058  0.00  0.00    +0.025 C 
ATOM     18  C   UNL     1       0.081   0.496   0.167  0.00  0.00    +0.111 C 
ENDBRANCH   1  18
BRANCH   3  19
ATOM     19  C   UNL     1      -0.495  -1.599  -4.152  0.00  0.00    +0.339 C 
ATOM     20  O   UNL     1      -1.671  -1.288  -4.138  0.00  0.00    -0.245 OA
BRANCH  19  21
ATOM     21  O   UNL     1       0.007  -2.291  -5.197  0.00  0.00    -0.462 OA
BRANCH  21  22
ATOM     22  C   UNL     1      -0.870  -2.527  -6.300  0.00  0.00    +0.229 C 
ATOM     23  C   UNL     1      -0.171  -3.423  -7.324  0.00  0.00    +0.048 C 
ENDBRANCH  21  22
ENDBRANCH  19  21
ENDBRANCH   3  19
BRANCH   2  24
ATOM     24  C   UNL     1      -1.601  -0.213  -1.953  0.00  0.00    -0.026 C 
BRANCH  24  25
ATOM     25  N   UNL     1      -2.380  -1.389  -1.540  0.00  0.00    +0.384 N 
ATOM     26  C   UNL     1      -3.796  -1.106  -1.766  0.00  0.00    -0.077 C 
ATOM     27  C   UNL     1      -4.523  -2.401  -2.056  0.00  0.00    +0.000 C 
ATOM     28  C   UNL     1      -5.104  -2.966  -0.748  0.00  0.00    +0.107 C 
ATOM     29  N   UNL     1      -4.160  -2.789   0.374  0.00  0.00    -0.287 N 
ATOM     30  C   UNL     1      -2.736  -3.011   0.231  0.00  0.00    +0.091 C 
ATOM     31  C   UNL     1      -2.041  -1.701  -0.205  0.00  0.00    -0.059 C 
ATOM     32  C   UNL     1      -4.640  -2.405   1.573  0.00  0.00    +0.303 C 
ATOM     33  O   UNL     1      -5.839  -2.292   1.740  0.00  0.00    -0.253 OA
ATOM     34  N   UNL     1      -3.791  -2.145   2.587  0.00  0.00    -0.294 N 
ATOM     35  H   UNL     1      -2.833  -2.165   2.435  0.00  0.00    +0.151 HD
ATOM     36  H   UNL     1      -2.115  -2.166  -2.126  0.00  0.00    -0.081 HD
BRANCH  34  37
ATOM     37  C   UNL     1      -4.315  -1.834   3.920  0.00  0.00    +0.028 C 
ATOM     38  C   UNL     1      -5.149  -3.012   4.428  0.00  0.00    +0.031 C 
ATOM     39  C   UNL     1      -3.151  -1.582   4.879  0.00  0.00    +0.031 C 
ATOM     40  C   UNL     1      -5.193  -0.583   3.843  0.00  0.00    +0.031 C 
ENDBRANCH  34  37
ENDBRANCH  24  25
ENDBRANCH   2  24
TORSDOF 8
