REMARK  Name = ZINC05438342
REMARK  10 active torsions:
REMARK  status: ('A' for Active; 'I' for Inactive)
REMARK    1  A    between atoms: C_1  and  O_2
REMARK    2  A    between atoms: O_2  and  C_3
REMARK    3  A    between atoms: C_13  and  O_35
REMARK    4  A    between atoms: C_16  and  O_17
REMARK    5  A    between atoms: C_18  and  O_34
REMARK    6  A    between atoms: C_21  and  C_23
REMARK    7  A    between atoms: C_21  and  O_33
REMARK    8  A    between atoms: C_23  and  C_25
REMARK    9  A    between atoms: C_25  and  O_26
REMARK   10  A    between atoms: O_26  and  C_27
REMARK                            x       y       z     vdW  Elec       q    Type
REMARK                         _______ _______ _______ _____ _____    ______ ____
ROOT
ATOM      1  C   UNL     1       2.397   1.459  -0.007  0.00  0.00    +0.132 A 
ATOM      2  C   UNL     1       1.173   2.121   0.014  0.00  0.00    +0.046 A 
ATOM      3  C   UNL     1      -0.007   1.407   0.025  0.00  0.00    +0.004 A 
ATOM      4  C   UNL     1       0.007   0.020   0.015  0.00  0.00    +0.012 A 
ATOM      5  C   UNL     1       1.218  -0.661  -0.004  0.00  0.00    +0.037 A 
ATOM      6  C   UNL     1       2.427   0.062  -0.016  0.00  0.00    +0.075 A 
ATOM      7  C   UNL     1       3.712  -0.662  -0.036  0.00  0.00    +0.202 C 
ATOM      8  O   UNL     1       4.745  -0.075  -0.297  0.00  0.00    -0.286 OA
ATOM      9  C   UNL     1       3.730  -2.106   0.263  0.00  0.00    +0.078 A 
ATOM     10  C   UNL     1       2.520  -2.832   0.275  0.00  0.00    +0.078 A 
ATOM     11  C   UNL     1       2.542  -4.194   0.560  0.00  0.00    +0.132 A 
ATOM     12  C   UNL     1       3.754  -4.843   0.837  0.00  0.00    +0.007 A 
ATOM     13  C   UNL     1       4.931  -4.138   0.821  0.00  0.00    +0.030 A 
ATOM     14  C   UNL     1       4.925  -2.765   0.536  0.00  0.00    +0.134 A 
ATOM     15  C   UNL     1       6.266  -4.781   1.096  0.00  0.00    +0.152 C 
ATOM     16  C   UNL     1       6.081  -6.124   1.799  0.00  0.00    +0.079 C 
ATOM     17  C   UNL     1       5.074  -6.955   0.995  0.00  0.00    +0.134 C 
ATOM     18  C   UNL     1       3.695  -6.316   1.147  0.00  0.00    +0.082 C 
ATOM     19  C   UNL     1       1.250  -2.139  -0.013  0.00  0.00    +0.198 C 
ATOM     20  O   UNL     1       0.243  -2.776  -0.254  0.00  0.00    -0.286 OA
ENDROOT
BRANCH   1  22
ATOM     21  C   UNL     1       3.445   3.590  -0.009  0.00  0.00    +0.277 C 
ATOM     22  O   UNL     1       3.554   2.166  -0.019  0.00  0.00    -0.494 OA
ENDBRANCH   1  22
BRANCH  14  23
ATOM     23  O   UNL     1       6.092  -2.074   0.525  0.00  0.00    -0.506 OA
ATOM     24  H   UNL     1       6.293  -1.628   1.360  0.00  0.00    +0.292 HD
ENDBRANCH  14  23
BRANCH  17  25
ATOM     25  C   UNL     1       5.041  -8.366   1.524  0.00  0.00    +0.202 C 
ATOM     26  O   UNL     1       5.294  -8.581   2.685  0.00  0.00    -0.291 OA
BRANCH  25  27
ATOM     27  C   UNL     1       4.692  -9.507   0.605  0.00  0.00    +0.306 C 
BRANCH  27  28
ATOM     28  O   UNL     1       4.728 -10.735   1.335  0.00  0.00    -0.484 OA
BRANCH  28  29
ATOM     29  C   UNL     1       4.436 -11.870   0.647  0.00  0.00    +0.121 A 
ATOM     30  C   UNL     1       4.115 -11.803  -0.701  0.00  0.00    +0.045 A 
ATOM     31  C   UNL     1       3.824 -12.960  -1.399  0.00  0.00    +0.004 A 
ATOM     32  C   UNL     1       3.840 -14.181  -0.752  0.00  0.00    +0.000 A 
ATOM     33  C   UNL     1       4.154 -14.250   0.593  0.00  0.00    +0.004 A 
ATOM     34  C   UNL     1       4.452 -13.098   1.294  0.00  0.00    +0.045 A 
ENDBRANCH  28  29
ENDBRANCH  27  28
ENDBRANCH  25  27
ENDBRANCH  17  25
BRANCH  17  35
ATOM     35  O   UNL     1       5.450  -6.966  -0.383  0.00  0.00    -0.381 OA
ATOM     36  H   UNL     1       4.845  -7.461  -0.952  0.00  0.00    +0.211 HD
ENDBRANCH  17  35
BRANCH  15  37
ATOM     37  O   UNL     1       7.043  -3.917   1.926  0.00  0.00    -0.387 OA
ATOM     38  H   UNL     1       7.946  -4.228   2.082  0.00  0.00    +0.210 HD
ENDBRANCH  15  37
BRANCH  11  39
ATOM     39  O   UNL     1       1.383  -4.899   0.572  0.00  0.00    -0.506 OA
ATOM     40  H   UNL     1       0.947  -4.925   1.435  0.00  0.00    +0.292 HD
ENDBRANCH  11  39
TORSDOF 9
