REMARK  Name = ZINC66499876
REMARK  7 active torsions:
REMARK  status: ('A' for Active; 'I' for Inactive)
REMARK    1  A    between atoms: C_1  and  C_2
REMARK    2  A    between atoms: C_2  and  C_3
REMARK    3  A    between atoms: C_2  and  C_4
REMARK    4  A    between atoms: N_11  and  C_12
REMARK    5  A    between atoms: C_12  and  C_13
REMARK    6  A    between atoms: C_13  and  C_14
REMARK    7  A    between atoms: N_16  and  N_17
REMARK                            x       y       z     vdW  Elec       q    Type
REMARK                         _______ _______ _______ _____ _____    ______ ____
ROOT
ATOM      1  C   UNL     1       0.009  -4.281   2.903  0.00  0.00    +0.228 C 
ATOM      2  O   UNL     1       0.520  -3.442   3.615  0.00  0.00    -0.274 OA
ATOM      3  N   UNL     1       0.124  -5.588   3.212  0.00  0.00    -0.224 N 
ATOM      4  H   UNL     1      -0.285  -6.258   2.643  0.00  0.00    +0.174 HD
ENDROOT
BRANCH   3   5
ATOM      5  N   UNL     1       0.833  -5.977   4.356  0.00  0.00    -0.137 N 
ATOM      6  C   UNL     1       2.068  -6.519   4.335  0.00  0.00    +0.263 C 
ATOM      7  O   UNL     1       2.750  -6.752   3.360  0.00  0.00    -0.271 OA
ATOM      8  C   UNL     1       2.423  -6.773   5.782  0.00  0.00    +0.114 C 
ATOM      9  C   UNL     1       2.650  -8.262   6.020  0.00  0.00    +0.035 C 
ATOM     10  C   UNL     1       2.977  -8.500   7.496  0.00  0.00    +0.003 C 
ATOM     11  C   UNL     1       4.232  -7.709   7.873  0.00  0.00    +0.000 C 
ATOM     12  C   UNL     1       3.981  -6.216   7.651  0.00  0.00    +0.003 C 
ATOM     13  C   UNL     1       3.657  -5.969   6.176  0.00  0.00    +0.035 C 
ATOM     14  N   UNL     1       1.246  -6.306   6.525  0.00  0.00    -0.284 N 
ATOM     15  C   UNL     1       0.370  -5.853   5.606  0.00  0.00    +0.326 C 
ATOM     16  O   UNL     1      -0.718  -5.388   5.882  0.00  0.00    -0.251 OA
ATOM     17  H   UNL     1       1.123  -6.318   7.487  0.00  0.00    +0.151 HD
ENDBRANCH   3   5
BRANCH   1  18
ATOM     18  C   UNL     1      -0.753  -3.861   1.673  0.00  0.00    +0.079 C 
BRANCH  18  19
ATOM     19  C   UNL     1      -0.731  -2.336   1.554  0.00  0.00    -0.068 C 
BRANCH  19  26
ATOM     20  C   UNL     1      -1.334  -0.479   0.159  0.00  0.00    +0.022 C 
ATOM     21  C   UNL     1      -2.252  -0.017  -0.937  0.00  0.00    +0.200 C 
ATOM     22  O   UNL     1      -2.039   1.057  -1.459  0.00  0.00    -0.278 OA
ATOM     23  N   UNL     1      -3.293  -0.742  -1.361  0.00  0.00    -0.318 N 
ATOM     24  C   UNL     1      -3.611  -2.058  -0.812  0.00  0.00    +0.085 C 
ATOM     25  C   UNL     1      -2.899  -2.250   0.528  0.00  0.00    -0.059 C 
ATOM     26  N   UNL     1      -1.474  -1.928   0.355  0.00  0.00    +0.389 N 
ATOM     27  H   UNL     1      -3.860  -0.379  -2.059  0.00  0.00    +0.149 HD
ATOM     28  H   UNL     1      -1.112  -2.414  -0.452  0.00  0.00    -0.081 HD
BRANCH  20  30
ATOM     29  C   UNL     1       0.423  -0.753  -1.596  0.00  0.00    +0.006 C 
ATOM     30  C   UNL     1       0.113  -0.157  -0.222  0.00  0.00    -0.022 C 
ATOM     31  C   UNL     1       0.301   1.361  -0.269  0.00  0.00    +0.006 C 
ENDBRANCH  20  30
ENDBRANCH  19  26
ENDBRANCH  18  19
ENDBRANCH   1  18
TORSDOF 5
