REMARK  Name = ZINC40760933
REMARK  10 active torsions:
REMARK  status: ('A' for Active; 'I' for Inactive)
REMARK    1  A    between atoms: C_1  and  C_2
REMARK    2  A    between atoms: C_2  and  C_32
REMARK    3  A    between atoms: C_4  and  N_10
REMARK    4  A    between atoms: C_6  and  C_8
REMARK    5  A    between atoms: C_6  and  C_9
REMARK    6  A    between atoms: C_12  and  N_31
REMARK    7  A    between atoms: C_13  and  N_17
REMARK    8  A    between atoms: N_17  and  C_18
REMARK    9  A    between atoms: C_21  and  O_24
REMARK   10  A    between atoms: O_24  and  C_25
REMARK                            x       y       z     vdW  Elec       q    Type
REMARK                         _______ _______ _______ _____ _____    ______ ____
ROOT
ATOM      1  N   UNL     1       2.631  -1.681  -3.115  0.00  0.00    -0.325 N 
ATOM      2  C   UNL     1       3.723  -0.972  -3.602  0.00  0.00    +0.145 A 
ATOM      3  C   UNL     1       4.691  -1.607  -4.382  0.00  0.00    +0.105 A 
ATOM      4  C   UNL     1       5.767  -0.848  -4.845  0.00  0.00    +0.149 A 
ATOM      5  N   UNL     1       5.829   0.443  -4.527  0.00  0.00    -0.219 NA
ATOM      6  C   UNL     1       4.894   1.004  -3.788  0.00  0.00    +0.225 A 
ATOM      7  N   UNL     1       3.860   0.325  -3.336  0.00  0.00    -0.219 NA
ATOM      8  H   UNL     1       2.539  -2.626  -3.314  0.00  0.00    +0.148 HD
ENDROOT
BRANCH   1  12
ATOM      9  C   UNL     1      -1.241   0.218  -2.221  0.00  0.00    -0.010 C 
ATOM     10  C   UNL     1      -0.775  -1.081  -1.555  0.00  0.00    -0.072 C 
ATOM     11  C   UNL     1       0.290  -1.750  -2.418  0.00  0.00    +0.009 C 
ATOM     12  C   UNL     1       1.617  -0.999  -2.301  0.00  0.00    +0.069 C 
ATOM     13  C   UNL     1       2.050  -1.021  -0.835  0.00  0.00    +0.009 C 
ATOM     14  C   UNL     1       0.997  -0.347   0.039  0.00  0.00    -0.072 C 
ATOM     15  N   UNL     1      -0.346  -0.849  -0.188  0.00  0.00    +0.386 N 
ATOM     16  C   UNL     1       1.063   1.172  -0.148  0.00  0.00    -0.010 C 
ATOM     17  C   UNL     1       1.366  -0.638   1.512  0.00  0.00    -0.010 C 
ATOM     18  C   UNL     1      -1.996  -2.030  -1.511  0.00  0.00    -0.010 C 
ATOM     19  H   UNL     1      -1.009  -0.203   0.252  0.00  0.00    -0.084 HD
ATOM     20  H   UNL     1      -0.453  -1.725   0.334  0.00  0.00    -0.084 HD
ENDBRANCH   1  12
BRANCH   3  21
ATOM     21  N   UNL     1       4.585  -2.973  -4.691  0.00  0.00    -0.353 N 
ATOM     22  H   UNL     1       3.832  -3.488  -4.362  0.00  0.00    +0.143 HD
ATOM     23  H   UNL     1       5.266  -3.401  -5.234  0.00  0.00    +0.143 HD
ENDBRANCH   3  21
BRANCH   4  24
ATOM     24  N   UNL     1       6.759  -1.432  -5.625  0.00  0.00    -0.298 N 
ATOM     25  H   UNL     1       6.779  -2.395  -5.744  0.00  0.00    +0.154 HD
BRANCH  24  26
ATOM     26  C   UNL     1       7.729  -0.631  -6.238  0.00  0.00    +0.033 A 
ATOM     27  C   UNL     1       8.283  -1.017  -7.452  0.00  0.00    +0.027 A 
ATOM     28  C   UNL     1       9.240  -0.226  -8.056  0.00  0.00    +0.048 A 
ATOM     29  C   UNL     1       9.649   0.954  -7.451  0.00  0.00    +0.129 A 
ATOM     30  C   UNL     1       9.097   1.339  -6.238  0.00  0.00    +0.048 A 
ATOM     31  C   UNL     1       8.135   0.553  -5.635  0.00  0.00    +0.027 A 
BRANCH  29  32
ATOM     32  O   UNL     1      10.592   1.732  -8.046  0.00  0.00    -0.456 OA
BRANCH  32  33
ATOM     33  C   UNL     1      10.973   1.416  -9.312  0.00  0.00    +0.128 A 
ATOM     34  C   UNL     1      10.164   1.757 -10.387  0.00  0.00    +0.046 A 
ATOM     35  C   UNL     1      10.555   1.435 -11.672  0.00  0.00    +0.004 A 
ATOM     36  C   UNL     1      11.749   0.774 -11.888  0.00  0.00    +0.000 A 
ATOM     37  C   UNL     1      12.557   0.432 -10.819  0.00  0.00    +0.004 A 
ATOM     38  C   UNL     1      12.174   0.757  -9.532  0.00  0.00    +0.046 A 
ENDBRANCH  32  33
ENDBRANCH  29  32
ENDBRANCH  24  26
ENDBRANCH   4  24
TORSDOF 6
