REMARK  Name = ZINC43976288
REMARK  5 active torsions:
REMARK  status: ('A' for Active; 'I' for Inactive)
REMARK    1  A    between atoms: C_3  and  C_6
REMARK    2  A    between atoms: N_8  and  C_9
REMARK    3  A    between atoms: C_12  and  N_15
REMARK    4  A    between atoms: N_18  and  C_19
REMARK    5  A    between atoms: N_22  and  C_25
REMARK                            x       y       z     vdW  Elec       q    Type
REMARK                         _______ _______ _______ _____ _____    ______ ____
ROOT
ATOM      1  N   UNL     1       9.770  -0.331   0.107  0.00  0.00    -0.269 N 
ATOM      2  C   UNL     1      10.495  -1.457  -0.038  0.00  0.00    +0.304 C 
ATOM      3  O   UNL     1       9.937  -2.535  -0.110  0.00  0.00    -0.253 OA
ATOM      4  N   UNL     1      11.840  -1.389  -0.103  0.00  0.00    -0.296 N 
ATOM      5  H   UNL     1      10.216   0.521   0.232  0.00  0.00    +0.156 HD
ATOM      6  H   UNL     1      12.285  -0.529  -0.046  0.00  0.00    +0.151 HD
ENDROOT
BRANCH   4   7
ATOM      7  C   UNL     1      12.629  -2.613  -0.261  0.00  0.00    +0.071 C 
ATOM      8  C   UNL     1      12.731  -2.969  -1.746  0.00  0.00    +0.004 C 
ATOM      9  C   UNL     1      13.622  -4.202  -1.910  0.00  0.00    -0.077 C 
ATOM     10  N   UNL     1      14.961  -3.917  -1.381  0.00  0.00    +0.382 N 
ATOM     11  C   UNL     1      14.879  -3.645   0.060  0.00  0.00    -0.077 C 
ATOM     12  C   UNL     1      14.037  -2.390   0.299  0.00  0.00    +0.004 C 
ATOM     13  H   UNL     1      15.343  -3.112  -1.853  0.00  0.00    -0.081 HD
BRANCH  10  14
ATOM     14  C   UNL     1      15.834  -5.076  -1.610  0.00  0.00    -0.069 C 
ATOM     15  C   UNL     1      17.181  -4.822  -2.289  0.00  0.00    -0.017 C 
ATOM     16  C   UNL     1      16.056  -5.517  -3.058  0.00  0.00    -0.017 C 
ENDBRANCH  10  14
ENDBRANCH   4   7
BRANCH   1  20
ATOM     17  C   UNL     1       5.604  -0.509   0.020  0.00  0.00    +0.034 A 
ATOM     18  C   UNL     1       6.263   0.589  -0.516  0.00  0.00    +0.025 A 
ATOM     19  C   UNL     1       7.642   0.648  -0.488  0.00  0.00    +0.025 A 
ATOM     20  C   UNL     1       8.370  -0.391   0.078  0.00  0.00    +0.035 A 
ATOM     21  C   UNL     1       7.711  -1.489   0.614  0.00  0.00    +0.025 A 
ATOM     22  C   UNL     1       6.332  -1.545   0.591  0.00  0.00    +0.025 A 
BRANCH  17  25
ATOM     23  C   UNL     1       3.534  -1.134   1.013  0.00  0.00    +0.284 C 
ATOM     24  O   UNL     1       4.144  -1.667   1.921  0.00  0.00    -0.266 OA
ATOM     25  N   UNL     1       4.205  -0.569  -0.009  0.00  0.00    -0.279 N 
ATOM     26  H   UNL     1       3.720  -0.203  -0.765  0.00  0.00    +0.155 HD
BRANCH  23  29
ATOM     27  C   UNL     1      -0.058  -1.385   1.615  0.00  0.00    +0.042 A 
ATOM     28  C   UNL     1       1.267  -1.639   2.001  0.00  0.00    +0.054 A 
ATOM     29  C   UNL     1       2.068  -1.107   1.031  0.00  0.00    +0.189 A 
ATOM     30  O   UNL     1       1.273  -0.551   0.093  0.00  0.00    -0.458 OA
ATOM     31  C   UNL     1      -0.009  -0.717   0.441  0.00  0.00    +0.196 A 
ENDBRANCH  23  29
ENDBRANCH  17  25
ENDBRANCH   1  20
TORSDOF 5
