REMARK  Name = ZINC43853345
REMARK  7 active torsions:
REMARK  status: ('A' for Active; 'I' for Inactive)
REMARK    1  A    between atoms: C_1  and  C_2
REMARK    2  A    between atoms: C_2  and  C_26
REMARK    3  A    between atoms: C_4  and  N_10
REMARK    4  A    between atoms: C_6  and  C_8
REMARK    5  A    between atoms: C_6  and  C_9
REMARK    6  A    between atoms: N_13  and  C_14
REMARK    7  A    between atoms: C_19  and  N_20
REMARK                            x       y       z     vdW  Elec       q    Type
REMARK                         _______ _______ _______ _____ _____    ______ ____
ROOT
ATOM      1  N   UNL     1      -3.537  -0.935   1.018  0.00  0.00    -0.296 N 
ATOM      2  C   UNL     1      -4.545  -0.477   1.787  0.00  0.00    +0.304 C 
ATOM      3  O   UNL     1      -4.333   0.388   2.615  0.00  0.00    -0.253 OA
ATOM      4  N   UNL     1      -5.787  -0.978   1.638  0.00  0.00    -0.268 N 
ATOM      5  H   UNL     1      -3.705  -1.625   0.358  0.00  0.00    +0.151 HD
ATOM      6  H   UNL     1      -5.974  -1.607   0.924  0.00  0.00    +0.156 HD
ENDROOT
BRANCH   1  10
ATOM      7  C   UNL     1      -0.001   1.495   0.022  0.00  0.00    -0.010 C 
ATOM      8  C   UNL     1       0.014  -0.037   0.025  0.00  0.00    -0.072 C 
ATOM      9  C   UNL     1      -1.408  -0.567  -0.125  0.00  0.00    +0.009 C 
ATOM     10  C   UNL     1      -2.183  -0.389   1.181  0.00  0.00    +0.072 C 
ATOM     11  C   UNL     1      -1.455  -1.167   2.277  0.00  0.00    +0.009 C 
ATOM     12  C   UNL     1      -0.033  -0.642   2.445  0.00  0.00    -0.072 C 
ATOM     13  N   UNL     1       0.701  -0.556   1.195  0.00  0.00    +0.386 N 
ATOM     14  C   UNL     1       0.719  -1.632   3.365  0.00  0.00    -0.010 C 
ATOM     15  C   UNL     1      -0.061   0.709   3.168  0.00  0.00    -0.010 C 
ATOM     16  C   UNL     1       0.808  -0.485  -1.224  0.00  0.00    -0.010 C 
ATOM     17  H   UNL     1       1.057  -1.490   0.968  0.00  0.00    -0.084 HD
ATOM     18  H   UNL     1       1.539   0.011   1.353  0.00  0.00    -0.084 HD
ENDBRANCH   1  10
BRANCH   4  19
ATOM     19  C   UNL     1      -6.809  -0.589   2.514  0.00  0.00    +0.056 A 
ATOM     20  C   UNL     1      -6.498  -0.135   3.787  0.00  0.00    +0.025 A 
ATOM     21  C   UNL     1      -7.508   0.248   4.650  0.00  0.00    +0.002 A 
ATOM     22  C   UNL     1      -8.829   0.181   4.248  0.00  0.00    +0.002 A 
ATOM     23  C   UNL     1      -9.148  -0.270   2.981  0.00  0.00    +0.025 A 
ATOM     24  C   UNL     1      -8.141  -0.651   2.106  0.00  0.00    +0.058 A 
BRANCH  24  25
ATOM     25  N   UNL     1      -8.461  -1.102   0.819  0.00  0.00    -0.270 N 
ATOM     26  C   UNL     1      -8.731  -2.503   0.476  0.00  0.00    +0.114 C 
ATOM     27  C   UNL     1      -9.445  -2.462  -0.893  0.00  0.00    +0.029 C 
ATOM     28  C   UNL     1      -8.931  -1.126  -1.477  0.00  0.00    +0.098 C 
ATOM     29  C   UNL     1      -8.567  -0.306  -0.259  0.00  0.00    +0.220 C 
ATOM     30  O   UNL     1      -8.393   0.894  -0.256  0.00  0.00    -0.275 OA
ENDBRANCH  24  25
ENDBRANCH   4  19
TORSDOF 3
