REMARK  Name = ZINC34727789
REMARK  9 active torsions:
REMARK  status: ('A' for Active; 'I' for Inactive)
REMARK    1  A    between atoms: C_1  and  C_2
REMARK    2  A    between atoms: C_7  and  C_9
REMARK    3  A    between atoms: C_7  and  C_10
REMARK    4  A    between atoms: N_11  and  C_13
REMARK    5  A    between atoms: C_13  and  C_14
REMARK    6  A    between atoms: N_16  and  C_17
REMARK    7  A    between atoms: C_19  and  N_25
REMARK    8  A    between atoms: C_22  and  O_23
REMARK    9  A    between atoms: O_23  and  C_24
REMARK                            x       y       z     vdW  Elec       q    Type
REMARK                         _______ _______ _______ _____ _____    ______ ____
ROOT
ATOM      1  C   UNL     1      -3.571  -2.523  -0.500  0.00  0.00    +0.201 C 
ATOM      2  O   UNL     1      -3.942  -1.403  -0.781  0.00  0.00    -0.278 OA
ATOM      3  N   UNL     1      -4.465  -3.446  -0.093  0.00  0.00    -0.284 N 
ATOM      4  H   UNL     1      -4.180  -4.359   0.069  0.00  0.00    +0.155 HD
ENDROOT
BRANCH   3   5
ATOM      5  C   UNL     1      -5.806  -3.087   0.095  0.00  0.00    +0.077 A 
ATOM      6  C   UNL     1      -6.394  -2.140  -0.731  0.00  0.00    +0.049 A 
ATOM      7  C   UNL     1      -7.723  -1.788  -0.542  0.00  0.00    +0.027 A 
ATOM      8  C   UNL     1      -8.463  -2.382   0.472  0.00  0.00    +0.026 A 
ATOM      9  C   UNL     1      -7.878  -3.325   1.295  0.00  0.00    +0.049 A 
ATOM     10  C   UNL     1      -6.553  -3.686   1.107  0.00  0.00    +0.141 A 
BRANCH   7  11
ATOM     11  N   UNL     1      -8.318  -0.832  -1.374  0.00  0.00    -0.358 N 
ATOM     12  H   UNL     1      -7.801  -0.417  -2.082  0.00  0.00    +0.142 HD
ATOM     13  H   UNL     1      -9.247  -0.585  -1.242  0.00  0.00    +0.142 HD
ENDBRANCH   7  11
BRANCH  10  14
ATOM     14  O   UNL     1      -5.980  -4.619   1.914  0.00  0.00    -0.493 OA
ATOM     15  C   UNL     1      -6.805  -5.192   2.931  0.00  0.00    +0.277 C 
ENDBRANCH  10  14
ENDBRANCH   3   5
BRANCH   1  16
ATOM     16  C   UNL     1      -2.112  -2.882  -0.605  0.00  0.00    +0.019 C 
BRANCH  16  26
ATOM     17  C   UNL     1      -0.008   1.523  -0.023  0.00  0.00    +0.009 C 
ATOM     18  C   UNL     1       0.010  -0.013  -0.032  0.00  0.00    -0.048 C 
ATOM     19  C   UNL     1       0.705  -0.589  -1.296  0.00  0.00    -0.011 C 
ATOM     20  C   UNL     1       0.070  -2.008  -1.310  0.00  0.00    -0.067 C 
ATOM     21  C   UNL     1       0.703  -2.808  -0.188  0.00  0.00    -0.009 C 
ATOM     22  C   UNL     1       0.882  -2.111   1.142  0.00  0.00    -0.036 C 
ATOM     23  C   UNL     1       0.743  -0.602   1.173  0.00  0.00    +0.011 C 
ATOM     24  C   UNL     1      -0.077  -2.728   2.177  0.00  0.00    +0.011 C 
ATOM     25  C   UNL     1       2.314  -2.443   1.640  0.00  0.00    +0.011 C 
ATOM     26  N   UNL     1      -1.357  -1.722  -1.063  0.00  0.00    +0.388 N 
ATOM     27  C   UNL     1      -1.412  -0.617  -0.087  0.00  0.00    -0.071 C 
ATOM     28  H   UNL     1      -1.772  -1.389  -1.936  0.00  0.00    -0.081 HD
ENDBRANCH  16  26
ENDBRANCH   1  16
TORSDOF 5
