REMARK  Name = ZINC36660413
REMARK  12 active torsions:
REMARK  status: ('A' for Active; 'I' for Inactive)
REMARK    1  A    between atoms: C_1  and  C_2
REMARK    2  A    between atoms: C_2  and  C_3
REMARK    3  A    between atoms: N_12  and  C_13
REMARK    4  A    between atoms: C_13  and  C_14
REMARK    5  A    between atoms: C_14  and  N_15
REMARK    6  A    between atoms: N_15  and  C_16
REMARK    7  A    between atoms: N_15  and  C_17
REMARK    8  A    between atoms: C_18  and  C_20
REMARK    9  A    between atoms: N_25  and  S_26
REMARK   10  A    between atoms: S_26  and  C_29
REMARK   11  A    between atoms: C_32  and  O_35
REMARK   12  A    between atoms: O_35  and  C_36
REMARK                            x       y       z     vdW  Elec       q    Type
REMARK                         _______ _______ _______ _____ _____    ______ ____
ROOT
ATOM      1  C   UNL     1      -0.728   1.007  -0.328  0.00  0.00    -0.021 A 
ATOM      2  C   UNL     1      -1.170   1.255   0.946  0.00  0.00    +0.006 A 
ATOM      3  C   UNL     1      -2.512   1.472   1.219  0.00  0.00    +0.001 A 
ATOM      4  C   UNL     1      -3.428   1.438   0.183  0.00  0.00    +0.017 A 
ATOM      5  C   UNL     1      -2.996   1.190  -1.095  0.00  0.00    +0.041 A 
ATOM      6  C   UNL     1      -1.635   0.970  -1.412  0.00  0.00    +0.083 A 
ATOM      7  N   UNL     1      -1.367   0.745  -2.716  0.00  0.00    -0.224 NA
ATOM      8  C   UNL     1      -2.302   0.734  -3.637  0.00  0.00    +0.168 A 
ATOM      9  S   UNL     1      -3.780   1.055  -2.684  0.00  0.00    -0.052 S 
ATOM     10  N   UNL     1      -2.177   0.520  -5.000  0.00  0.00    -0.251 N 
ATOM     11  C   UNL     1      -0.954   0.398  -5.553  0.00  0.00    +0.240 C 
ATOM     12  O   UNL     1      -0.845   0.136  -6.732  0.00  0.00    -0.273 OA
ENDROOT
BRANCH  11  13
ATOM     13  C   UNL     1       0.278   0.589  -4.707  0.00  0.00    +0.166 C 
ATOM     14  C   UNL     1       0.675  -0.749  -4.048  0.00  0.00    +0.031 C 
ATOM     15  C   UNL     1       1.774  -1.292  -4.998  0.00  0.00    +0.019 C 
ATOM     16  C   UNL     1       2.486   0.014  -5.430  0.00  0.00    +0.110 C 
ATOM     17  N   UNL     1       1.404   1.013  -5.552  0.00  0.00    -0.165 NA
BRANCH  17  18
ATOM     18  S   UNL     1       1.449   2.381  -6.486  0.00  0.00    +0.062 S 
ATOM     19  O   UNL     1       2.398   2.139  -7.515  0.00  0.00    -0.153 OA
ATOM     20  O   UNL     1       0.099   2.729  -6.761  0.00  0.00    -0.153 OA
BRANCH  18  21
ATOM     21  C   UNL     1       2.109   3.672  -5.486  0.00  0.00    +0.106 A 
ATOM     22  C   UNL     1       1.262   4.459  -4.727  0.00  0.00    +0.032 A 
ATOM     23  C   UNL     1       1.777   5.473  -3.942  0.00  0.00    +0.047 A 
ATOM     24  C   UNL     1       3.145   5.701  -3.916  0.00  0.00    +0.120 A 
ATOM     25  C   UNL     1       3.993   4.910  -4.679  0.00  0.00    +0.047 A 
ATOM     26  C   UNL     1       3.474   3.895  -5.457  0.00  0.00    +0.032 A 
BRANCH  24  27
ATOM     27  O   UNL     1       3.655   6.698  -3.146  0.00  0.00    -0.495 OA
ATOM     28  C   UNL     1       5.072   6.876  -3.168  0.00  0.00    +0.277 C 
ENDBRANCH  24  27
ENDBRANCH  18  21
ENDBRANCH  17  18
ENDBRANCH  11  13
BRANCH   1  30
ATOM     29  C   UNL     1       1.375   2.063  -1.108  0.00  0.00    +0.009 C 
ATOM     30  C   UNL     1       0.740   0.777  -0.576  0.00  0.00    +0.034 C 
ENDBRANCH   1  30
BRANCH  10  31
ATOM     31  C   UNL     1      -3.374   0.425  -5.840  0.00  0.00    +0.097 C 
BRANCH  31  32
ATOM     32  C   UNL     1      -3.701   1.804  -6.418  0.00  0.00    -0.060 C 
BRANCH  32  33
ATOM     33  N   UNL     1      -4.820   1.685  -7.362  0.00  0.00    +0.377 N 
ATOM     34  C   UNL     1      -6.029   1.270  -6.639  0.00  0.00    -0.097 C 
ATOM     35  C   UNL     1      -5.057   2.984  -8.007  0.00  0.00    -0.097 C 
ATOM     36  H   UNL     1      -4.596   0.997  -8.065  0.00  0.00    -0.083 HD
ENDBRANCH  32  33
ENDBRANCH  31  32
ENDBRANCH  10  31
TORSDOF 8
