REMARK  Name = ZINC20527564
REMARK  10 active torsions:
REMARK  status: ('A' for Active; 'I' for Inactive)
REMARK    1  A    between atoms: C_2  and  C_3
REMARK    2  A    between atoms: C_3  and  C_4
REMARK    3  A    between atoms: C_8  and  C_11
REMARK    4  A    between atoms: C_9  and  O_10
REMARK    5  A    between atoms: N_12  and  N_13
REMARK    6  A    between atoms: C_17  and  S_20
REMARK    7  A    between atoms: N_18  and  N_19
REMARK    8  A    between atoms: S_20  and  C_21
REMARK    9  A    between atoms: C_21  and  C_22
REMARK   10  A    between atoms: N_24  and  C_25
REMARK                            x       y       z     vdW  Elec       q    Type
REMARK                         _______ _______ _______ _____ _____    ______ ____
ROOT
ATOM      1  N   UNL     1       4.935   1.635  -4.641  0.00  0.00    -0.204 N 
ATOM      2  C   UNL     1       4.112   1.472  -3.537  0.00  0.00    +0.254 A 
ATOM      3  N   UNL     1       3.599   0.340  -3.118  0.00  0.00    -0.109 NA
ATOM      4  N   UNL     1       2.835   0.607  -1.975  0.00  0.00    -0.119 NA
ATOM      5  C   UNL     1       2.899   1.896  -1.737  0.00  0.00    +0.210 A 
ATOM      6  N   UNL     1       3.692   2.463  -2.694  0.00  0.00    -0.211 N 
ATOM      7  H   UNL     1       5.311   2.635  -4.904  0.00  0.00    +0.177 HD
ENDROOT
BRANCH   6   8
ATOM      8  N   UNL     1       4.010   3.788  -2.791  0.00  0.00    -0.294 N 
ATOM      9  H   UNL     1       3.615   4.504  -2.055  0.00  0.00    +0.163 HD
ATOM     10  H   UNL     1       4.660   4.139  -3.605  0.00  0.00    +0.163 HD
ENDBRANCH   6   8
BRANCH   1  12
ATOM     11  C   UNL     1       6.059   0.680  -6.456  0.00  0.00    +0.142 C 
ATOM     12  N   UNL     1       5.288   0.527  -5.422  0.00  0.00    -0.187 NA
BRANCH  11  17
ATOM     13  C   UNL     1       6.310  -2.851  -7.724  0.00  0.00    -0.002 A 
ATOM     14  C   UNL     1       7.131  -2.679  -8.823  0.00  0.00    +0.007 A 
ATOM     15  C   UNL     1       7.603  -1.421  -9.154  0.00  0.00    +0.001 A 
ATOM     16  C   UNL     1       7.259  -0.326  -8.390  0.00  0.00    +0.013 A 
ATOM     17  C   UNL     1       6.431  -0.486  -7.277  0.00  0.00    +0.036 A 
ATOM     18  C   UNL     1       5.959  -1.763  -6.942  0.00  0.00    +0.129 A 
BRANCH  18  19
ATOM     19  O   UNL     1       5.157  -1.931  -5.859  0.00  0.00    -0.506 OA
ATOM     20  H   UNL     1       4.880  -1.065  -5.240  0.00  0.00    +0.292 HD
ENDBRANCH  18  19
BRANCH  13  21
ATOM     21  C   UNL     1       5.801  -4.225  -7.372  0.00  0.00    +0.065 C 
BRANCH  21  23
ATOM     22  C   UNL     1       4.204  -5.451  -8.754  0.00  0.00    +0.004 C 
ATOM     23  C   UNL     1       4.434  -4.424  -7.973  0.00  0.00    -0.030 C 
ENDBRANCH  21  23
ENDBRANCH  13  21
ENDBRANCH  11  17
ENDBRANCH   1  12
BRANCH   5  24
ATOM     24  S   UNL     1       2.106   2.744  -0.412  0.00  0.00    -0.075 S 
BRANCH  24  25
ATOM     25  C   UNL     1       1.220   1.436   0.480  0.00  0.00    +0.173 C 
BRANCH  25  26
ATOM     26  C   UNL     1       0.489   2.035   1.654  0.00  0.00    +0.228 C 
ATOM     27  O   UNL     1       0.559   3.227   1.868  0.00  0.00    -0.275 OA
ATOM     28  N   UNL     1      -0.242   1.246   2.466  0.00  0.00    -0.280 N 
ATOM     29  H   UNL     1      -0.373   0.181   2.225  0.00  0.00    +0.155 HD
BRANCH  28  30
ATOM     30  C   UNL     1      -0.834   1.783   3.617  0.00  0.00    +0.105 A 
ATOM     31  C   UNL     1      -0.135   1.798   4.818  0.00  0.00    +0.147 A 
ATOM     32  C   UNL     1      -0.722   2.334   5.951  0.00  0.00    +0.040 A 
ATOM     33  C   UNL     1      -2.006   2.844   5.891  0.00  0.00    +0.006 A 
ATOM     34  C   UNL     1      -2.707   2.825   4.700  0.00  0.00    +0.040 A 
ATOM     35  C   UNL     1      -2.125   2.296   3.562  0.00  0.00    +0.147 A 
ATOM     36  F   UNL     1      -2.811   2.277   2.398  0.00  0.00    -0.203 F 
ATOM     37  F   UNL     1       1.117   1.296   4.878  0.00  0.00    -0.203 F 
ENDBRANCH  28  30
ENDBRANCH  25  26
ENDBRANCH  24  25
ENDBRANCH   5  24
TORSDOF 10
