REMARK  Name = ZINC36207928
REMARK  12 active torsions:
REMARK  status: ('A' for Active; 'I' for Inactive)
REMARK    1  A    between atoms: C_1  and  C_2
REMARK    2  A    between atoms: C_2  and  C_3
REMARK    3  A    between atoms: C_2  and  N_4
REMARK    4  A    between atoms: N_4  and  C_5
REMARK    5  A    between atoms: N_4  and  C_24
REMARK    6  A    between atoms: C_5  and  C_6
REMARK    7  A    between atoms: C_12  and  C_17
REMARK    8  A    between atoms: C_24  and  C_25
REMARK    9  A    between atoms: C_25  and  C_27
REMARK   10  A    between atoms: C_25  and  O_30
REMARK   11  A    between atoms: C_27  and  O_28
REMARK   12  A    between atoms: O_28  and  C_29
REMARK                            x       y       z     vdW  Elec       q    Type
REMARK                         _______ _______ _______ _____ _____    ______ ____
ROOT
ATOM      1  C   UNL     1      -2.546   1.390  -0.207  0.00  0.00    +0.094 A 
ATOM      2  N   UNL     1      -3.277   2.187  -1.028  0.00  0.00    -0.312 N 
ATOM      3  H   UNL     1      -3.598   1.834  -1.873  0.00  0.00    +0.170 HD
ATOM      4  C   UNL     1      -3.566   3.459  -0.694  0.00  0.00    +0.260 A 
ATOM      5  O   UNL     1      -4.224   4.161  -1.442  0.00  0.00    -0.267 OA
ATOM      6  C   UNL     1      -3.089   3.973   0.554  0.00  0.00    +0.080 A 
ATOM      7  C   UNL     1      -3.268   5.298   1.135  0.00  0.00    +0.004 A 
ATOM      8  C   UNL     1      -2.718   5.559   2.346  0.00  0.00    +0.056 A 
ATOM      9  S   UNL     1      -1.923   4.023   2.777  0.00  0.00    -0.076 S 
ATOM     10  C   UNL     1      -2.343   3.076   1.336  0.00  0.00    +0.116 A 
ATOM     11  N   UNL     1      -2.102   1.829   0.940  0.00  0.00    -0.229 NA
ENDROOT
BRANCH   7  12
ATOM     12  C   UNL     1      -4.035   6.341   0.414  0.00  0.00    -0.015 A 
ATOM     13  C   UNL     1      -3.753   6.619  -0.924  0.00  0.00    +0.008 A 
ATOM     14  C   UNL     1      -4.470   7.591  -1.590  0.00  0.00    +0.002 A 
ATOM     15  C   UNL     1      -5.468   8.290  -0.935  0.00  0.00    +0.020 A 
ATOM     16  C   UNL     1      -5.753   8.020   0.392  0.00  0.00    +0.042 A 
ATOM     17  C   UNL     1      -5.045   7.045   1.068  0.00  0.00    +0.028 A 
ATOM     18 CL   UNL     1      -7.006   8.903   1.207  0.00  0.00    -0.084 Cl
ENDBRANCH   7  12
BRANCH   1  19
ATOM     19  C   UNL     1      -2.248  -0.027  -0.624  0.00  0.00    -0.003 C 
BRANCH  19  20
ATOM     20  N   UNL     1      -1.303  -0.628   0.327  0.00  0.00    +0.388 N 
ATOM     21  H   UNL     1      -1.513  -0.304   1.259  0.00  0.00    -0.081 HD
BRANCH  20  23
ATOM     22  C   UNL     1       0.428  -0.834  -1.393  0.00  0.00    -0.014 C 
ATOM     23  C   UNL     1       0.067  -0.238  -0.031  0.00  0.00    -0.074 C 
ATOM     24  C   UNL     1       0.161   1.288  -0.101  0.00  0.00    -0.014 C 
ENDBRANCH  20  23
BRANCH  20  25
ATOM     25  C   UNL     1      -1.424  -2.091   0.278  0.00  0.00    -0.044 C 
BRANCH  25  26
ATOM     26  C   UNL     1      -0.591  -2.710   1.403  0.00  0.00    +0.124 C 
BRANCH  26  27
ATOM     27  O   UNL     1       0.798  -2.530   1.120  0.00  0.00    -0.391 OA
ATOM     28  H   UNL     1       1.075  -2.887   0.265  0.00  0.00    +0.210 HD
ENDBRANCH  26  27
BRANCH  26  29
ATOM     29  C   UNL     1      -0.902  -4.204   1.505  0.00  0.00    +0.188 C 
BRANCH  29  30
ATOM     30  O   UNL     1      -0.214  -4.758   2.628  0.00  0.00    -0.381 OA
ATOM     31  C   UNL     1      -0.437  -6.157   2.815  0.00  0.00    +0.194 C 
ENDBRANCH  29  30
ENDBRANCH  26  29
ENDBRANCH  25  26
ENDBRANCH  20  25
ENDBRANCH  19  20
ENDBRANCH   1  19
TORSDOF 9
