REMARK  Name = ZINC40685475
REMARK  6 active torsions:
REMARK  status: ('A' for Active; 'I' for Inactive)
REMARK    1  A    between atoms: C_1  and  C_2
REMARK    2  A    between atoms: C_6  and  N_8
REMARK    3  A    between atoms: C_10  and  N_27
REMARK    4  A    between atoms: C_11  and  N_15
REMARK    5  A    between atoms: N_15  and  C_16
REMARK    6  A    between atoms: C_23  and  C_26
REMARK                            x       y       z     vdW  Elec       q    Type
REMARK                         _______ _______ _______ _____ _____    ______ ____
ROOT
ATOM      1  N   UNL     1      -0.790  -2.655   2.404  0.00  0.00    -0.283 N 
ATOM      2  C   UNL     1      -0.636  -4.036   2.459  0.00  0.00    +0.150 A 
ATOM      3  C   UNL     1      -0.556  -4.692   3.689  0.00  0.00    +0.106 A 
ATOM      4  C   UNL     1      -0.402  -6.080   3.687  0.00  0.00    +0.149 A 
ATOM      5  N   UNL     1      -0.337  -6.720   2.521  0.00  0.00    -0.219 NA
ATOM      6  C   UNL     1      -0.416  -6.062   1.382  0.00  0.00    +0.225 A 
ATOM      7  N   UNL     1      -0.568  -4.753   1.340  0.00  0.00    -0.219 NA
ATOM      8  H   UNL     1      -0.781  -2.133   3.222  0.00  0.00    +0.155 HD
ENDROOT
BRANCH   1  14
ATOM      9  C   UNL     1      -0.858  -2.998  -2.371  0.00  0.00    +0.065 C 
ATOM     10  C   UNL     1      -0.995  -2.158  -1.127  0.00  0.00    +0.040 A 
ATOM     11  C   UNL     1      -1.275  -0.811  -1.241  0.00  0.00    +0.023 A 
ATOM     12  C   UNL     1      -1.400  -0.043  -0.092  0.00  0.00    +0.005 A 
ATOM     13  C   UNL     1      -1.238  -0.660   1.136  0.00  0.00    +0.044 A 
ATOM     14  C   UNL     1      -0.956  -2.021   1.176  0.00  0.00    +0.124 A 
ATOM     15  N   UNL     1      -0.850  -2.721   0.057  0.00  0.00    -0.237 NA
ENDBRANCH   1  14
BRANCH   3  16
ATOM     16  N   UNL     1      -0.629  -3.977   4.894  0.00  0.00    -0.353 N 
ATOM     17  H   UNL     1      -0.736  -3.013   4.880  0.00  0.00    +0.143 HD
ATOM     18  H   UNL     1      -0.572  -4.446   5.741  0.00  0.00    +0.143 HD
ENDBRANCH   3  16
BRANCH   4  19
ATOM     19  N   UNL     1      -0.317  -6.783   4.883  0.00  0.00    -0.296 N 
ATOM     20  H   UNL     1      -0.273  -6.303   5.725  0.00  0.00    +0.154 HD
BRANCH  19  21
ATOM     21  C   UNL     1      -0.295  -8.177   4.873  0.00  0.00    +0.059 A 
ATOM     22  C   UNL     1      -0.876  -8.873   3.834  0.00  0.00    +0.025 A 
ATOM     23  C   UNL     1      -0.861 -10.264   3.812  0.00  0.00    +0.003 A 
ATOM     24  C   UNL     1      -0.273 -10.975   4.814  0.00  0.00    +0.010 A 
ATOM     25  C   UNL     1       0.330 -10.303   5.889  0.00  0.00    +0.002 A 
ATOM     26  C   UNL     1       0.328  -8.887   5.923  0.00  0.00    +0.092 A 
ATOM     27  N   UNL     1       0.904  -8.244   6.942  0.00  0.00    -0.250 NA
ATOM     28  C   UNL     1       1.484  -8.898   7.920  0.00  0.00    +0.039 A 
ATOM     29  C   UNL     1       1.527 -10.290   7.946  0.00  0.00    +0.023 A 
ATOM     30  C   UNL     1       0.946 -11.009   6.941  0.00  0.00    +0.012 A 
ATOM     31  C   UNL     1       2.120  -8.122   9.044  0.00  0.00    +0.065 C 
ENDBRANCH  19  21
ENDBRANCH   4  19
TORSDOF 4
