REMARK  Name = ZINC09319331
REMARK  3 active torsions:
REMARK  status: ('A' for Active; 'I' for Inactive)
REMARK    1  A    between atoms: C_1  and  C_2
REMARK    2  A    between atoms: C_5  and  N_8
REMARK    3  A    between atoms: C_9  and  C_11
REMARK                            x       y       z     vdW  Elec       q    Type
REMARK                         _______ _______ _______ _____ _____    ______ ____
ROOT
ATOM      1  C   UNL     1       3.579   4.054  -0.017  0.00  0.00    +0.097 A 
ATOM      2  C   UNL     1       2.391   4.759  -0.011  0.00  0.00    +0.030 A 
ATOM      3  C   UNL     1       1.137   4.003  -0.011  0.00  0.00    +0.020 A 
ATOM      4  C   UNL     1      -0.093   4.672  -0.006  0.00  0.00    +0.027 A 
ATOM      5  C   UNL     1      -1.264   3.948  -0.007  0.00  0.00    +0.020 A 
ATOM      6  C   UNL     1      -1.229   2.560  -0.017  0.00  0.00    +0.034 A 
ATOM      7  C   UNL     1      -0.024   1.887  -0.016  0.00  0.00    +0.062 A 
ATOM      8  C   UNL     1       1.171   2.598  -0.017  0.00  0.00    +0.151 A 
ATOM      9  O   UNL     1       2.349   1.935  -0.022  0.00  0.00    -0.438 OA
ATOM     10  C   UNL     1       3.530   2.582  -0.022  0.00  0.00    +0.205 A 
ATOM     11  N   UNL     1       4.642   1.898  -0.028  0.00  0.00    -0.369 N 
ATOM     12 BR   UNL     1       0.001  -0.003  -0.024  0.00  0.00    -0.046 Br
ATOM     13 BR   UNL     1      -2.928   4.847  -0.001  0.00  0.00    -0.050 Br
ATOM     14  H   UNL     1       4.611   0.798  -0.032  0.00  0.00    +0.159 HD
ATOM     15  H   UNL     1       5.610   2.421  -0.029  0.00  0.00    +0.159 HD
ENDROOT
BRANCH   1  17
ATOM     16  N   UNL     1       4.900   6.108  -0.013  0.00  0.00    -0.281 N 
ATOM     17  C   UNL     1       4.870   4.761  -0.018  0.00  0.00    +0.253 C 
ATOM     18  O   UNL     1       5.909   4.129  -0.022  0.00  0.00    -0.270 OA
ATOM     19  H   UNL     1       3.963   6.680  -0.085  0.00  0.00    +0.155 HD
BRANCH  16  24
ATOM     20  C   UNL     1       9.860   8.833   0.381  0.00  0.00    +0.044 C 
ATOM     21  C   UNL     1       8.542   8.109   0.277  0.00  0.00    -0.050 A 
ATOM     22  C   UNL     1       8.463   6.918  -0.422  0.00  0.00    +0.005 A 
ATOM     23  C   UNL     1       7.257   6.253  -0.520  0.00  0.00    +0.023 A 
ATOM     24  C   UNL     1       6.123   6.780   0.085  0.00  0.00    +0.034 A 
ATOM     25  C   UNL     1       6.205   7.978   0.782  0.00  0.00    +0.023 A 
ATOM     26  C   UNL     1       7.416   8.636   0.881  0.00  0.00    +0.005 A 
ENDBRANCH  16  24
ENDBRANCH   1  17
TORSDOF 2
