REMARK  Name = ZINC57577654
REMARK  8 active torsions:
REMARK  status: ('A' for Active; 'I' for Inactive)
REMARK    1  A    between atoms: C_1  and  C_2
REMARK    2  A    between atoms: C_4  and  S_24
REMARK    3  A    between atoms: C_6  and  N_9
REMARK    4  A    between atoms: C_7  and  C_8
REMARK    5  A    between atoms: C_10  and  C_12
REMARK    6  A    between atoms: C_18  and  C_23
REMARK    7  A    between atoms: C_19  and  C_22
REMARK    8  A    between atoms: S_24  and  N_27
REMARK                            x       y       z     vdW  Elec       q    Type
REMARK                         _______ _______ _______ _____ _____    ______ ____
ROOT
ATOM      1  N   UNL     1       0.052  -2.797   2.392  0.00  0.00    -0.281 N 
ATOM      2  C   UNL     1      -0.032  -4.142   2.385  0.00  0.00    +0.248 C 
ATOM      3  O   UNL     1      -0.029  -4.746   1.329  0.00  0.00    -0.270 OA
ATOM      4  H   UNL     1       0.130  -2.321   3.233  0.00  0.00    +0.155 HD
ENDROOT
BRANCH   2   5
ATOM      5  C   UNL     1      -0.127  -4.883   3.658  0.00  0.00    +0.038 A 
ATOM      6  C   UNL     1      -0.136  -4.186   4.875  0.00  0.00    +0.015 A 
ATOM      7  C   UNL     1      -0.224  -4.855   6.059  0.00  0.00    +0.027 A 
ATOM      8  C   UNL     1      -0.306  -6.247   6.074  0.00  0.00    +0.047 A 
ATOM      9  C   UNL     1      -0.298  -6.958   4.859  0.00  0.00    +0.004 A 
ATOM     10  C   UNL     1      -0.213  -6.272   3.650  0.00  0.00    +0.023 A 
ATOM     11  C   UNL     1      -0.395  -8.376   5.219  0.00  0.00    -0.022 A 
ATOM     12  C   UNL     1      -0.454  -8.435   6.558  0.00  0.00    +0.017 A 
ATOM     13  N   UNL     1      -0.402  -7.173   7.085  0.00  0.00    -0.358 N 
ATOM     14  H   UNL     1      -0.428  -6.963   8.031  0.00  0.00    +0.166 HD
ATOM     15  C   UNL     1      -0.561  -9.704   7.364  0.00  0.00    +0.063 C 
ATOM     16  C   UNL     1      -0.424  -9.544   4.267  0.00  0.00    +0.046 C 
ENDBRANCH   2   5
BRANCH   1  22
ATOM     17  C   UNL     1       1.206   1.235  -0.172  0.00  0.00    +0.044 C 
ATOM     18  C   UNL     1       0.577  -0.131  -0.084  0.00  0.00    -0.044 A 
ATOM     19  C   UNL     1      -0.027  -0.686  -1.198  0.00  0.00    +0.032 A 
ATOM     20  C   UNL     1      -0.605  -1.940  -1.122  0.00  0.00    +0.107 A 
ATOM     21  C   UNL     1      -0.581  -2.642   0.067  0.00  0.00    +0.052 A 
ATOM     22  C   UNL     1       0.026  -2.088   1.187  0.00  0.00    +0.039 A 
ATOM     23  C   UNL     1       0.610  -0.831   1.106  0.00  0.00    -0.026 A 
ATOM     24  C   UNL     1       1.274  -0.228   2.317  0.00  0.00    +0.046 C 
BRANCH  20  25
ATOM     25  S   UNL     1      -1.375  -2.641  -2.543  0.00  0.00    +0.056 S 
ATOM     26  O   UNL     1      -2.318  -3.591  -2.067  0.00  0.00    -0.153 OA
ATOM     27  O   UNL     1      -1.744  -1.556  -3.383  0.00  0.00    -0.153 OA
BRANCH  25  28
ATOM     28  N   UNL     1      -0.213  -3.496  -3.358  0.00  0.00    -0.204 NA
ATOM     29  H   UNL     1       0.694  -3.530  -3.014  0.00  0.00    +0.144 HD
ATOM     30  H   UNL     1      -0.439  -3.962  -4.178  0.00  0.00    +0.144 HD
ENDBRANCH  25  28
ENDBRANCH  20  25
ENDBRANCH   1  22
TORSDOF 4
