REMARK  Name = ZINC35465905
REMARK  11 active torsions:
REMARK  status: ('A' for Active; 'I' for Inactive)
REMARK    1  A    between atoms: C_1  and  C_2
REMARK    2  A    between atoms: C_2  and  O_33
REMARK    3  A    between atoms: C_4  and  O_32
REMARK    4  A    between atoms: C_6  and  O_31
REMARK    5  A    between atoms: C_9  and  O_14
REMARK    6  A    between atoms: O_14  and  C_15
REMARK    7  A    between atoms: C_17  and  O_30
REMARK    8  A    between atoms: C_19  and  O_29
REMARK    9  A    between atoms: C_21  and  O_28
REMARK   10  A    between atoms: C_23  and  C_26
REMARK   11  A    between atoms: C_26  and  O_27
REMARK                            x       y       z     vdW  Elec       q    Type
REMARK                         _______ _______ _______ _____ _____    ______ ____
ROOT
ATOM      1  C   UNL     1      -0.019   1.526   0.010  0.00  0.00    +0.042 C 
ATOM      2  C   UNL     1       0.002  -0.004   0.002  0.00  0.00    +0.077 C 
ATOM      3  C   UNL     1      -1.411  -0.577   0.310  0.00  0.00    +0.069 C 
ATOM      4  C   UNL     1      -1.451  -0.839   1.839  0.00  0.00    +0.153 C 
ATOM      5  C   UNL     1      -0.125  -0.315   2.362  0.00  0.00    +0.124 C 
ATOM      6  C   UNL     1       0.840  -0.541   1.162  0.00  0.00    +0.127 C 
ATOM      7  C   UNL     1       2.112   0.206   1.513  0.00  0.00    +0.318 C 
ATOM      8  O   UNL     1       2.648  -0.445   2.681  0.00  0.00    -0.471 OA
ATOM      9  C   UNL     1       1.823  -0.967   3.611  0.00  0.00    +0.189 C 
ATOM     10  C   UNL     1       0.501  -0.966   3.543  0.00  0.00    +0.048 C 
ENDROOT
BRANCH   5  11
ATOM     11  O   UNL     1      -0.234   1.090   2.600  0.00  0.00    -0.381 OA
ATOM     12  H   UNL     1      -0.897   1.326   3.263  0.00  0.00    +0.211 HD
ENDBRANCH   5  11
BRANCH   4  13
ATOM     13  O   UNL     1      -1.571  -2.239   2.100  0.00  0.00    -0.389 OA
ATOM     14  H   UNL     1      -2.379  -2.637   1.747  0.00  0.00    +0.210 HD
ENDBRANCH   4  13
BRANCH   2  15
ATOM     15  O   UNL     1       0.491  -0.495  -1.247  0.00  0.00    -0.388 OA
ATOM     16  H   UNL     1      -0.030  -0.215  -2.012  0.00  0.00    +0.210 HD
ENDBRANCH   2  15
BRANCH   7  17
ATOM     17  O   UNL     1       3.044   0.126   0.432  0.00  0.00    -0.309 OA
BRANCH  17  18
ATOM     18  C   UNL     1       4.230   0.898   0.629  0.00  0.00    +0.286 C 
ATOM     19  C   UNL     1       5.204   0.641  -0.525  0.00  0.00    +0.201 C 
ATOM     20  C   UNL     1       6.446   1.517  -0.338  0.00  0.00    +0.179 C 
ATOM     21  C   UNL     1       6.016   2.985  -0.257  0.00  0.00    +0.177 C 
ATOM     22  C   UNL     1       5.011   3.151   0.887  0.00  0.00    +0.178 C 
ATOM     23  O   UNL     1       3.894   2.286   0.667  0.00  0.00    -0.340 OA
BRANCH  21  24
ATOM     24  O   UNL     1       7.160   3.805  -0.011  0.00  0.00    -0.386 OA
ATOM     25  H   UNL     1       7.840   3.746  -0.696  0.00  0.00    +0.210 HD
ENDBRANCH  21  24
BRANCH  20  26
ATOM     26  O   UNL     1       7.329   1.337  -1.448  0.00  0.00    -0.386 OA
ATOM     27  H   UNL     1       7.636   0.427  -1.562  0.00  0.00    +0.210 HD
ENDBRANCH  20  26
BRANCH  19  28
ATOM     28  O   UNL     1       5.585  -0.736  -0.530  0.00  0.00    -0.384 OA
ATOM     29  H   UNL     1       4.845  -1.348  -0.640  0.00  0.00    +0.210 HD
ENDBRANCH  19  28
BRANCH  22  30
ATOM     30  C   UNL     1       4.531   4.603   0.937  0.00  0.00    +0.190 C 
BRANCH  30  31
ATOM     31  O   UNL     1       3.684   4.785   2.073  0.00  0.00    -0.392 OA
ATOM     32  H   UNL     1       3.341   5.684   2.168  0.00  0.00    +0.210 HD
ENDBRANCH  30  31
ENDBRANCH  22  30
ENDBRANCH  17  18
ENDBRANCH   7  17
TORSDOF 10
