REMARK  Name = ZINC39534161
REMARK  10 active torsions:
REMARK  status: ('A' for Active; 'I' for Inactive)
REMARK    1  A    between atoms: C_1  and  C_2
REMARK    2  A    between atoms: C_2  and  O_3
REMARK    3  A    between atoms: O_3  and  C_4
REMARK    4  A    between atoms: N_7  and  C_11
REMARK    5  A    between atoms: C_11  and  C_13
REMARK    6  A    between atoms: C_11  and  C_16
REMARK    7  A    between atoms: C_13  and  N_14
REMARK    8  A    between atoms: N_14  and  O_15
REMARK    9  A    between atoms: C_19  and  C_22
REMARK   10  A    between atoms: C_27  and  O_28
REMARK                            x       y       z     vdW  Elec       q    Type
REMARK                         _______ _______ _______ _____ _____    ______ ____
ROOT
ATOM      1  C   UNL     1       1.653  -4.159   4.120  0.00  0.00    -0.021 C 
ENDROOT
BRANCH   1   4
ATOM      2  C   UNL     1       0.616  -2.214   1.082  0.00  0.00    +0.169 C 
ATOM      3  C   UNL     1       1.121  -2.468   2.504  0.00  0.00    -0.030 C 
ATOM      4  N   UNL     1       1.185  -3.915   2.749  0.00  0.00    +0.388 N 
ATOM      5  C   UNL     1       2.117  -4.534   1.797  0.00  0.00    -0.062 C 
ATOM      6  C   UNL     1       1.620  -4.296   0.369  0.00  0.00    +0.065 C 
ATOM      7  N   UNL     1       1.526  -2.851   0.120  0.00  0.00    -0.295 NA
ATOM      8  H   UNL     1       1.237  -2.666  -0.829  0.00  0.00    +0.124 HD
ATOM      9  H   UNL     1       0.267  -4.317   2.631  0.00  0.00    -0.081 HD
BRANCH   2  10
ATOM     10  O   UNL     1       0.572  -0.806   0.837  0.00  0.00    -0.364 OA
BRANCH  10  12
ATOM     11  C   UNL     1      -0.168   1.080  -0.480  0.00  0.00    +0.034 C 
ATOM     12  C   UNL     1      -0.190  -0.441  -0.315  0.00  0.00    +0.158 C 
ENDBRANCH  10  12
ENDBRANCH   2  10
ENDBRANCH   1   4
BRANCH   1  13
ATOM     13  C   UNL     1       1.752  -5.644   4.361  0.00  0.00    -0.060 A 
ATOM     14  C   UNL     1       0.782  -6.490   3.855  0.00  0.00    +0.002 A 
ATOM     15  C   UNL     1       0.868  -7.850   4.072  0.00  0.00    +0.009 A 
ATOM     16  C   UNL     1       1.935  -8.370   4.802  0.00  0.00    -0.014 A 
ATOM     17  C   UNL     1       2.910  -7.513   5.309  0.00  0.00    +0.009 A 
ATOM     18  C   UNL     1       2.817  -6.155   5.081  0.00  0.00    +0.002 A 
BRANCH  16  19
ATOM     19  C   UNL     1       2.032  -9.831   5.040  0.00  0.00    +0.024 A 
ATOM     20  C   UNL     1       0.934 -10.536   5.528  0.00  0.00    +0.012 A 
ATOM     21  C   UNL     1       1.030 -11.895   5.747  0.00  0.00    +0.001 A 
ATOM     22  C   UNL     1       2.213 -12.562   5.483  0.00  0.00    +0.004 A 
ATOM     23  C   UNL     1       3.309 -11.873   4.999  0.00  0.00    +0.046 A 
ATOM     24  C   UNL     1       3.225 -10.509   4.769  0.00  0.00    +0.125 A 
BRANCH  24  25
ATOM     25  O   UNL     1       4.299  -9.831   4.287  0.00  0.00    -0.506 OA
ATOM     26  H   UNL     1       4.885  -9.483   4.974  0.00  0.00    +0.292 HD
ENDBRANCH  24  25
ENDBRANCH  16  19
ENDBRANCH   1  13
BRANCH   1  27
ATOM     27  C   UNL     1       0.663  -3.547   5.113  0.00  0.00    +0.100 C 
BRANCH  27  28
ATOM     28  N   UNL     1       1.167  -3.727   6.481  0.00  0.00    -0.205 NA
ATOM     29  H   UNL     1       2.052  -3.258   6.605  0.00  0.00    +0.153 HD
BRANCH  28  30
ATOM     30  O   UNL     1       0.187  -3.267   7.466  0.00  0.00    -0.315 OA
ATOM     31  H   UNL     1       0.476  -3.366   8.383  0.00  0.00    +0.236 HD
ENDBRANCH  28  30
ENDBRANCH  27  28
ENDBRANCH   1  27
TORSDOF 9
