REMARK  Name = ZINC65742948
REMARK  19 active torsions:
REMARK  status: ('A' for Active; 'I' for Inactive)
REMARK    1  A    between atoms: C_1  and  C_2
REMARK    2  A    between atoms: C_2  and  C_3
REMARK    3  A    between atoms: C_2  and  N_4
REMARK    4  A    between atoms: N_4  and  C_5
REMARK    5  A    between atoms: N_4  and  C_41
REMARK    6  A    between atoms: C_5  and  C_6
REMARK    7  A    between atoms: C_6  and  C_7
REMARK    8  A    between atoms: C_7  and  C_9
REMARK    9  A    between atoms: C_7  and  C_15
REMARK   10  A    between atoms: C_17  and  C_39
REMARK   11  A    between atoms: C_20  and  O_21
REMARK   12  A    between atoms: O_21  and  C_22
REMARK   13  A    between atoms: C_24  and  O_38
REMARK   14  A    between atoms: C_26  and  O_37
REMARK   15  A    between atoms: C_28  and  O_36
REMARK   16  A    between atoms: C_30  and  C_33
REMARK   17  A    between atoms: C_39  and  O_40
REMARK   18  A    between atoms: C_41  and  C_42
REMARK   19  A    between atoms: C_41  and  C_43
REMARK                            x       y       z     vdW  Elec       q    Type
REMARK                         _______ _______ _______ _____ _____    ______ ____
ROOT
ATOM      1  C   UNL     1      -5.152   1.746  -0.124  0.00  0.00    +0.002 A 
ATOM      2  C   UNL     1      -4.507   2.575   0.773  0.00  0.00    +0.013 A 
ATOM      3  C   UNL     1      -5.156   2.993   1.920  0.00  0.00    -0.022 A 
ATOM      4  C   UNL     1      -6.452   2.582   2.173  0.00  0.00    +0.009 A 
ATOM      5  C   UNL     1      -7.102   1.753   1.279  0.00  0.00    +0.046 A 
ATOM      6  C   UNL     1      -6.454   1.337   0.124  0.00  0.00    +0.128 A 
ENDROOT
BRANCH   1   7
ATOM      7  C   UNL     1      -4.444   1.290  -1.374  0.00  0.00    +0.051 C 
BRANCH   7   8
ATOM      8  C   UNL     1      -4.077   2.490  -2.208  0.00  0.00    -0.040 A 
ATOM      9  C   UNL     1      -4.709   2.710  -3.418  0.00  0.00    +0.004 A 
ATOM     10  C   UNL     1      -4.373   3.810  -4.184  0.00  0.00    +0.000 A 
ATOM     11  C   UNL     1      -3.405   4.692  -3.740  0.00  0.00    +0.000 A 
ATOM     12  C   UNL     1      -2.773   4.473  -2.530  0.00  0.00    +0.000 A 
ATOM     13  C   UNL     1      -3.113   3.374  -1.762  0.00  0.00    +0.004 A 
ENDBRANCH   7   8
BRANCH   7  14
ATOM     14  C   UNL     1      -3.174   0.528  -0.991  0.00  0.00    -0.006 C 
BRANCH  14  15
ATOM     15  C   UNL     1      -2.521  -0.041  -2.253  0.00  0.00    -0.077 C 
BRANCH  15  16
ATOM     16  N   UNL     1      -1.289  -0.753  -1.888  0.00  0.00    +0.383 N 
ATOM     17  H   UNL     1      -0.687  -0.136  -1.364  0.00  0.00    -0.081 HD
BRANCH  16  19
ATOM     18  C   UNL     1      -0.276   0.023  -3.978  0.00  0.00    -0.014 C 
ATOM     19  C   UNL     1      -0.599  -1.193  -3.107  0.00  0.00    -0.075 C 
ATOM     20  C   UNL     1       0.700  -1.908  -2.729  0.00  0.00    -0.014 C 
ENDBRANCH  16  19
BRANCH  16  21
ATOM     21  C   UNL     1      -1.625  -1.924  -1.066  0.00  0.00    -0.075 C 
ATOM     22  C   UNL     1      -2.003  -3.094  -1.976  0.00  0.00    -0.014 C 
ATOM     23  C   UNL     1      -0.416  -2.311  -0.212  0.00  0.00    -0.014 C 
ENDBRANCH  16  21
ENDBRANCH  15  16
ENDBRANCH  14  15
ENDBRANCH   7  14
ENDBRANCH   1   7
BRANCH   6  24
ATOM     24  O   UNL     1      -7.093   0.526  -0.759  0.00  0.00    -0.461 OA
BRANCH  24  25
ATOM     25  C   UNL     1      -8.433   0.145  -0.439  0.00  0.00    +0.340 C 
ATOM     26  C   UNL     1      -9.026  -0.658  -1.599  0.00  0.00    +0.214 C 
ATOM     27  C   UNL     1      -8.211  -1.941  -1.792  0.00  0.00    +0.180 C 
ATOM     28  C   UNL     1      -8.207  -2.732  -0.480  0.00  0.00    +0.186 C 
ATOM     29  C   UNL     1      -7.645  -1.848   0.637  0.00  0.00    +0.266 C 
ATOM     30  O   UNL     1      -8.430  -0.658   0.743  0.00  0.00    -0.322 OA
BRANCH  29  31
ATOM     31  C   UNL     1      -7.692  -2.599   1.943  0.00  0.00    +0.387 C 
ATOM     32  O   UNL     1      -7.014  -3.600   2.096  0.00  0.00    -0.243 OA
ATOM     33  O   UNL     1      -8.409  -2.204   2.848  0.00  0.00    -0.243 OA
ENDBRANCH  29  31
BRANCH  28  34
ATOM     34  O   UNL     1      -9.542  -3.124  -0.154  0.00  0.00    -0.386 OA
ATOM     35  H   UNL     1      -9.614  -3.629   0.667  0.00  0.00    +0.210 HD
ENDBRANCH  28  34
BRANCH  27  36
ATOM     36  O   UNL     1      -8.801  -2.732  -2.826  0.00  0.00    -0.386 OA
ATOM     37  H   UNL     1      -8.335  -3.561  -3.001  0.00  0.00    +0.210 HD
ENDBRANCH  27  36
BRANCH  26  38
ATOM     38  O   UNL     1      -8.978   0.123  -2.795  0.00  0.00    -0.383 OA
ATOM     39  H   UNL     1      -9.471   0.953  -2.742  0.00  0.00    +0.210 HD
ENDBRANCH  26  38
ENDBRANCH  24  25
ENDBRANCH   6  24
BRANCH   3  40
ATOM     40  C   UNL     1      -4.450   3.897   2.898  0.00  0.00    +0.191 C 
BRANCH  40  41
ATOM     41  O   UNL     1      -4.696   5.260   2.549  0.00  0.00    -0.390 OA
ATOM     42  H   UNL     1      -4.270   5.899   3.136  0.00  0.00    +0.210 HD
ENDBRANCH  40  41
ENDBRANCH   3  40
TORSDOF 15
