REMARK  Name = ZINC20568967
REMARK  4 active torsions:
REMARK  status: ('A' for Active; 'I' for Inactive)
REMARK    1  A    between atoms: C_1  and  C_2
REMARK    2  A    between atoms: C_3  and  C_21
REMARK    3  A    between atoms: C_21  and  O_23
REMARK    4  A    between atoms: O_23  and  C_24
REMARK                            x       y       z     vdW  Elec       q    Type
REMARK                         _______ _______ _______ _____ _____    ______ ____
ROOT
ATOM      1  C   UNL     1      -5.717   4.299   1.591  0.00  0.00    +0.061 C 
ATOM      2  C   UNL     1      -4.495   4.539   0.743  0.00  0.00    +0.019 C 
ATOM      3  C   UNL     1      -3.264   4.770   1.244  0.00  0.00    +0.079 C 
ATOM      4  C   UNL     1      -2.363   4.951   0.049  0.00  0.00    +0.151 C 
ATOM      5  C   UNL     1      -1.255   3.938   0.034  0.00  0.00    -0.010 A 
ATOM      6  C   UNL     1      -1.233   2.562   0.022  0.00  0.00    +0.021 A 
ATOM      7  C   UNL     1      -0.024   1.887   0.012  0.00  0.00    +0.018 A 
ATOM      8  C   UNL     1       1.167   2.594   0.005  0.00  0.00    +0.016 A 
ATOM      9  C   UNL     1       1.157   3.972   0.012  0.00  0.00    +0.013 A 
ATOM     10  C   UNL     1      -0.059   4.662   0.027  0.00  0.00    +0.024 A 
ATOM     11  C   UNL     1      -0.366   6.106   0.039  0.00  0.00    +0.162 A 
ATOM     12  C   UNL     1      -1.707   6.303   0.053  0.00  0.00    +0.113 A 
ATOM     13  N   UNL     1      -1.928   7.627   0.065  0.00  0.00    -0.198 NA
ATOM     14  C   UNL     1      -0.773   8.248   0.058  0.00  0.00    +0.286 A 
ATOM     15  O   UNL     1       0.210   7.335   0.042  0.00  0.00    -0.424 OA
ATOM     16  N   UNL     1      -0.597   9.616   0.066  0.00  0.00    -0.313 N 
ATOM     17 BR   UNL     1       0.002  -0.004   0.002  0.00  0.00    -0.050 Br
ATOM     18  C   UNL     1      -3.280   4.786  -1.137  0.00  0.00    +0.238 C 
ATOM     19  O   UNL     1      -2.980   4.852  -2.309  0.00  0.00    -0.274 OA
ATOM     20  N   UNL     1      -4.504   4.548  -0.621  0.00  0.00    -0.288 N 
ATOM     21  H   UNL     1       0.418  10.040   0.059  0.00  0.00    +0.147 HD
ATOM     22  H   UNL     1      -1.472  10.283   0.080  0.00  0.00    +0.147 HD
ATOM     23  H   UNL     1      -5.444   4.374  -1.166  0.00  0.00    +0.155 HD
ENDROOT
BRANCH   3  24
ATOM     24  C   UNL     1      -2.895   4.828   2.609  0.00  0.00    +0.338 C 
ATOM     25  O   UNL     1      -3.734   4.662   3.474  0.00  0.00    -0.245 OA
BRANCH  24  26
ATOM     26  O   UNL     1      -1.612   5.069   2.951  0.00  0.00    -0.465 OA
ATOM     27  C   UNL     1      -1.311   5.115   4.348  0.00  0.00    +0.280 C 
ENDBRANCH  24  26
ENDBRANCH   3  24
TORSDOF 2
