REMARK  Name = ZINC08767226
REMARK  10 active torsions:
REMARK  status: ('A' for Active; 'I' for Inactive)
REMARK    1  A    between atoms: C_1  and  C_2
REMARK    2  A    between atoms: C_2  and  C_3
REMARK    3  A    between atoms: C_3  and  N_4
REMARK    4  A    between atoms: C_7  and  C_13
REMARK    5  A    between atoms: C_8  and  O_12
REMARK    6  A    between atoms: C_10  and  O_11
REMARK    7  A    between atoms: C_17  and  O_25
REMARK    8  A    between atoms: C_18  and  O_23
REMARK    9  A    between atoms: O_23  and  C_24
REMARK   10  A    between atoms: O_25  and  C_26
REMARK                            x       y       z     vdW  Elec       q    Type
REMARK                         _______ _______ _______ _____ _____    ______ ____
ROOT
ATOM      1  C   UNL     1       1.500   0.042   6.164  0.00  0.00    +0.001 C 
ATOM      2  C   UNL     1       0.945   0.430   4.818  0.00  0.00    -0.050 A 
ATOM      3  C   UNL     1      -0.197   1.218   4.779  0.00  0.00    +0.052 A 
ATOM      4  C   UNL     1      -0.744   1.599   3.568  0.00  0.00    +0.162 A 
ATOM      5  C   UNL     1      -0.148   1.182   2.380  0.00  0.00    +0.162 A 
ATOM      6  C   UNL     1       0.991   0.399   2.424  0.00  0.00    +0.053 A 
ATOM      7  C   UNL     1       1.538   0.024   3.642  0.00  0.00    -0.044 A 
ATOM      8  C   UNL     1       2.784  -0.826   3.637  0.00  0.00    +0.016 C 
ATOM      9  C   UNL     1       2.984  -1.467   5.011  0.00  0.00    -0.077 C 
ATOM     10  N   UNL     1       2.892  -0.413   6.038  0.00  0.00    +0.387 N 
ATOM     11  H   UNL     1       3.211  -0.787   6.939  0.00  0.00    -0.085 HD
ATOM     12  H   UNL     1       3.486   0.379   5.767  0.00  0.00    -0.085 HD
ENDROOT
BRANCH   1  16
ATOM     13  N   UNL     1       2.169   3.410   7.680  0.00  0.00    -0.263 N 
ATOM     14  C   UNL     1       2.241   2.364   6.832  0.00  0.00    +0.262 A 
ATOM     15  O   UNL     1       2.981   2.401   5.861  0.00  0.00    -0.267 OA
ATOM     16  C   UNL     1       1.453   1.234   7.085  0.00  0.00    +0.069 A 
ATOM     17  C   UNL     1       0.625   1.237   8.193  0.00  0.00    +0.224 A 
ATOM     18  N   UNL     1       0.600   2.303   9.000  0.00  0.00    -0.161 NA
ATOM     19  C   UNL     1       1.343   3.359   8.757  0.00  0.00    +0.302 A 
BRANCH  19  20
ATOM     20  O   UNL     1       1.284   4.414   9.595  0.00  0.00    -0.479 OA
ATOM     21  H   UNL     1       0.685   4.342  10.351  0.00  0.00    +0.295 HD
ENDBRANCH  19  20
BRANCH  17  22
ATOM     22  O   UNL     1      -0.154   0.163   8.462  0.00  0.00    -0.492 OA
ATOM     23  H   UNL     1      -0.697   0.260   9.257  0.00  0.00    +0.294 HD
ENDBRANCH  17  22
BRANCH  13  24
ATOM     24  C   UNL     1       2.983   4.605   7.439  0.00  0.00    +0.129 C 
BRANCH  24  26
ATOM     25  C   UNL     1       3.050   6.834   6.314  0.00  0.00    +0.005 C 
ATOM     26  C   UNL     1       2.200   5.587   6.566  0.00  0.00    +0.018 C 
ENDBRANCH  24  26
ENDBRANCH  13  24
ENDBRANCH   1  16
BRANCH   5  27
ATOM     27  O   UNL     1      -0.682   1.547   1.184  0.00  0.00    -0.491 OA
ATOM     28  C   UNL     1      -0.013   1.086   0.008  0.00  0.00    +0.277 C 
ENDBRANCH   5  27
BRANCH   4  29
ATOM     29  O   UNL     1      -1.860   2.374   3.536  0.00  0.00    -0.491 OA
ATOM     30  C   UNL     1      -2.415   2.764   4.794  0.00  0.00    +0.277 C 
ENDBRANCH   4  29
TORSDOF 7
