REMARK  Name = ZINC61952010
REMARK  3 active torsions:
REMARK  status: ('A' for Active; 'I' for Inactive)
REMARK    1  A    between atoms: C_1  and  N_2
REMARK    2  A    between atoms: N_2  and  C_3
REMARK    3  A    between atoms: C_6  and  C_9
REMARK                            x       y       z     vdW  Elec       q    Type
REMARK                         _______ _______ _______ _____ _____    ______ ____
ROOT
ATOM      1  C   UNL     1      -0.098  -0.723   1.190  0.00  0.00    +0.035 A 
ATOM      2  C   UNL     1      -0.244  -2.106   1.155  0.00  0.00    +0.024 A 
ATOM      3  C   UNL     1      -0.343  -2.819   2.328  0.00  0.00    +0.013 A 
ATOM      4  C   UNL     1      -0.297  -2.153   3.555  0.00  0.00    +0.012 A 
ATOM      5  C   UNL     1      -0.150  -0.764   3.588  0.00  0.00    +0.013 A 
ATOM      6  C   UNL     1      -0.046  -0.057   2.411  0.00  0.00    +0.024 A 
ENDROOT
BRANCH   1   8
ATOM      7  C   UNL     1       1.263   0.651  -0.354  0.00  0.00    +0.137 C 
ATOM      8  N   UNL     1       0.002  -0.004   0.002  0.00  0.00    -0.287 N 
ATOM      9  C   UNL     1      -1.096   0.092  -0.847  0.00  0.00    +0.148 A 
ATOM     10  C   UNL     1      -0.951   0.643  -2.120  0.00  0.00    +0.047 A 
ATOM     11  C   UNL     1      -2.075   0.716  -2.928  0.00  0.00    +0.025 A 
ATOM     12  C   UNL     1      -3.275   0.235  -2.421  0.00  0.00    +0.135 A 
ATOM     13  N   UNL     1      -3.321  -0.271  -1.204  0.00  0.00    -0.156 NA
ATOM     14  N   UNL     1      -2.283  -0.345  -0.453  0.00  0.00    -0.134 NA
ENDBRANCH   1   8
BRANCH   4  15
ATOM     15  C   UNL     1      -0.404  -2.915   4.816  0.00  0.00    +0.094 C 
ATOM     16  N   UNL     1      -0.359  -2.278   5.986  0.00  0.00    -0.387 N 
ATOM     17  N   UNL     1      -0.545  -4.240   4.784  0.00  0.00    -0.345 N 
ATOM     18  H   UNL     1      -0.257  -1.314   6.009  0.00  0.00    +0.157 HD
ATOM     19  H   UNL     1      -0.577  -4.704   3.932  0.00  0.00    +0.144 HD
ATOM     20  H   UNL     1      -0.615  -4.740   5.611  0.00  0.00    +0.144 HD
ATOM     21  H   UNL     1      -0.430  -2.778   6.813  0.00  0.00    +0.157 HD
ENDBRANCH   4  15
TORSDOF 2
