REMARK  Name = ZINC57077108
REMARK  6 active torsions:
REMARK  status: ('A' for Active; 'I' for Inactive)
REMARK    1  A    between atoms: C_1  and  O_2
REMARK    2  A    between atoms: O_2  and  C_3
REMARK    3  A    between atoms: C_6  and  N_9
REMARK    4  A    between atoms: C_17  and  C_26
REMARK    5  A    between atoms: C_17  and  C_30
REMARK    6  A    between atoms: C_19  and  C_21
REMARK                            x       y       z     vdW  Elec       q    Type
REMARK                         _______ _______ _______ _____ _____    ______ ____
ROOT
ATOM      1  N   UNL     1      -4.247  -2.984  -0.799  0.00  0.00    -0.248 N 
ATOM      2  C   UNL     1      -4.563  -4.299  -0.514  0.00  0.00    +0.132 A 
ATOM      3  C   UNL     1      -5.899  -4.668  -0.455  0.00  0.00    +0.099 A 
ATOM      4  C   UNL     1      -6.886  -3.713  -0.711  0.00  0.00    +0.262 A 
ATOM      5  N   UNL     1      -6.523  -2.448  -1.003  0.00  0.00    -0.274 N 
ATOM      6  C   UNL     1      -5.227  -2.091  -1.034  0.00  0.00    +0.335 A 
ATOM      7  O   UNL     1      -4.934  -0.938  -1.286  0.00  0.00    -0.246 OA
ATOM      8  O   UNL     1      -8.065  -4.022  -0.671  0.00  0.00    -0.267 OA
ATOM      9  C   UNL     1      -6.266  -6.086  -0.099  0.00  0.00    +0.258 C 
ATOM     10  N   UNL     1      -5.138  -6.952  -0.479  0.00  0.00    -0.305 N 
ATOM     11  C   UNL     1      -3.859  -6.495  -0.249  0.00  0.00    +0.113 C 
ATOM     12  N   UNL     1      -3.599  -5.199  -0.289  0.00  0.00    -0.328 N 
ATOM     13  H   UNL     1      -2.689  -4.894  -0.152  0.00  0.00    +0.169 HD
ATOM     14  H   UNL     1      -7.206  -1.785  -1.189  0.00  0.00    +0.173 HD
ATOM     15  H   UNL     1      -5.291  -7.822  -0.881  0.00  0.00    +0.149 HD
ENDROOT
BRANCH   1  19
ATOM     16  C   UNL     1      -0.256  -1.778  -0.915  0.00  0.00    +0.120 A 
ATOM     17  C   UNL     1      -0.969  -1.702   0.273  0.00  0.00    +0.047 A 
ATOM     18  C   UNL     1      -2.290  -2.102   0.312  0.00  0.00    +0.030 A 
ATOM     19  C   UNL     1      -2.906  -2.578  -0.838  0.00  0.00    +0.053 A 
ATOM     20  C   UNL     1      -2.192  -2.652  -2.027  0.00  0.00    +0.030 A 
ATOM     21  C   UNL     1      -0.872  -2.248  -2.066  0.00  0.00    +0.047 A 
BRANCH  16  23
ATOM     22  C   UNL     1       1.615  -0.910   0.269  0.00  0.00    +0.277 C 
ATOM     23  O   UNL     1       1.045  -1.384  -0.953  0.00  0.00    -0.495 OA
ENDBRANCH  16  23
ENDBRANCH   1  19
BRANCH  11  24
ATOM     24  C   UNL     1      -2.785  -7.447   0.042  0.00  0.00    +0.050 A 
ATOM     25  C   UNL     1      -1.428  -7.345  -0.233  0.00  0.00    +0.019 A 
ATOM     26  C   UNL     1      -0.657  -8.411   0.165  0.00  0.00    +0.008 A 
ATOM     27  C   UNL     1      -1.254  -9.462   0.780  0.00  0.00    +0.046 A 
ATOM     28  S   UNL     1      -2.877  -9.035   0.846  0.00  0.00    -0.094 S 
ENDBRANCH  11  24
BRANCH   9  29
ATOM     29  C   UNL     1      -7.521  -6.505  -0.866  0.00  0.00    +0.424 C 
ATOM     30  F   UNL     1      -7.417  -6.084  -2.196  0.00  0.00    -0.168 F 
ATOM     31  F   UNL     1      -7.650  -7.897  -0.826  0.00  0.00    -0.168 F 
ATOM     32  F   UNL     1      -8.646  -5.916  -0.277  0.00  0.00    -0.168 F 
ENDBRANCH   9  29
BRANCH   9  33
ATOM     33  C   UNL     1      -6.517  -6.194   1.407  0.00  0.00    +0.424 C 
ATOM     34  F   UNL     1      -7.566  -5.341   1.766  0.00  0.00    -0.168 F 
ATOM     35  F   UNL     1      -6.856  -7.512   1.729  0.00  0.00    -0.168 F 
ATOM     36  F   UNL     1      -5.359  -5.827   2.100  0.00  0.00    -0.168 F 
ENDBRANCH   9  33
TORSDOF 5
