REMARK  Name = ZINC15021599
REMARK  5 active torsions:
REMARK  status: ('A' for Active; 'I' for Inactive)
REMARK    1  A    between atoms: C_1  and  C_2
REMARK    2  A    between atoms: C_7  and  C_34
REMARK    3  A    between atoms: C_12  and  O_33
REMARK    4  A    between atoms: C_13  and  O_32
REMARK    5  A    between atoms: C_20  and  C_26
REMARK                            x       y       z     vdW  Elec       q    Type
REMARK                         _______ _______ _______ _____ _____    ______ ____
ROOT
ATOM      1  C   UNL     1      -1.276   1.944  -4.782  0.00  0.00    +0.007 C 
ATOM      2  C   UNL     1      -1.736   1.588  -3.367  0.00  0.00    -0.013 C 
ATOM      3  C   UNL     1      -2.535   2.762  -2.781  0.00  0.00    +0.013 C 
ATOM      4  C   UNL     1      -1.600   3.735  -2.116  0.00  0.00    +0.064 C 
ATOM      5  C   UNL     1      -2.126   5.113  -1.777  0.00  0.00    +0.061 C 
ATOM      6  C   UNL     1      -0.985   5.864  -1.111  0.00  0.00    +0.006 A 
ATOM      7  C   UNL     1      -1.087   7.240  -0.991  0.00  0.00    +0.011 A 
ATOM      8  C   UNL     1      -0.072   7.967  -0.401  0.00  0.00    +0.050 A 
ATOM      9  C   UNL     1       1.058   7.319   0.074  0.00  0.00    +0.162 A 
ATOM     10  C   UNL     1       1.163   5.940  -0.040  0.00  0.00    +0.201 A 
ATOM     11  C   UNL     1       0.135   5.206  -0.631  0.00  0.00    +0.172 A 
ATOM     12  O   UNL     1       0.280   3.844  -0.692  0.00  0.00    -0.464 OA
ATOM     13  C   UNL     1      -0.953   3.145  -0.873  0.00  0.00    +0.186 C 
ATOM     14  C   UNL     1      -0.810   1.648  -1.071  0.00  0.00    +0.077 C 
ATOM     15  C   UNL     1      -0.507   1.285  -2.493  0.00  0.00    +0.014 C 
ATOM     16  C   UNL     1      -0.004   1.044   0.051  0.00  0.00    +0.111 C 
ATOM     17  N   UNL     1      -0.674   1.431   1.309  0.00  0.00    -0.319 N 
ATOM     18  C   UNL     1      -1.520   2.474   1.368  0.00  0.00    +0.134 C 
ATOM     19  S   UNL     1      -2.360   2.739   2.836  0.00  0.00    -0.019 S 
ATOM     20  N   UNL     1      -1.749   3.329   0.346  0.00  0.00    -0.289 N 
ATOM     21  H   UNL     1      -0.501   0.917   2.113  0.00  0.00    +0.148 HD
ATOM     22  H   UNL     1      -2.412   4.034   0.415  0.00  0.00    +0.151 HD
ENDROOT
BRANCH  16  23
ATOM     23  C   UNL     1       1.402   1.587   0.027  0.00  0.00    -0.027 A 
ATOM     24  C   UNL     1       2.270   1.213  -0.982  0.00  0.00    +0.005 A 
ATOM     25  C   UNL     1       3.558   1.715  -1.006  0.00  0.00    +0.000 A 
ATOM     26  C   UNL     1       3.981   2.582  -0.017  0.00  0.00    +0.000 A 
ATOM     27  C   UNL     1       3.114   2.953   0.995  0.00  0.00    +0.000 A 
ATOM     28  C   UNL     1       1.825   2.455   1.016  0.00  0.00    +0.005 A 
ENDBRANCH  16  23
BRANCH   5  29
ATOM     29  C   UNL     1      -2.548   5.827  -3.035  0.00  0.00    -0.039 A 
ATOM     30  C   UNL     1      -1.624   6.073  -4.034  0.00  0.00    +0.004 A 
ATOM     31  C   UNL     1      -2.013   6.724  -5.190  0.00  0.00    +0.000 A 
ATOM     32  C   UNL     1      -3.322   7.139  -5.343  0.00  0.00    +0.000 A 
ATOM     33  C   UNL     1      -4.245   6.898  -4.342  0.00  0.00    +0.000 A 
ATOM     34  C   UNL     1      -3.857   6.243  -3.188  0.00  0.00    +0.004 A 
ENDBRANCH   5  29
BRANCH  10  35
ATOM     35  O   UNL     1       2.272   5.302   0.424  0.00  0.00    -0.501 OA
ATOM     36  H   UNL     1       3.007   5.284  -0.203  0.00  0.00    +0.292 HD
ENDBRANCH  10  35
BRANCH   9  37
ATOM     37  O   UNL     1       2.061   8.033   0.650  0.00  0.00    -0.503 OA
ATOM     38  H   UNL     1       2.737   8.334   0.028  0.00  0.00    +0.292 HD
ENDBRANCH   9  37
TORSDOF 4
