REMARK  Name = ZINC63375769
REMARK  9 active torsions:
REMARK  status: ('A' for Active; 'I' for Inactive)
REMARK    1  A    between atoms: C_1  and  O_2
REMARK    2  A    between atoms: O_2  and  C_3
REMARK    3  A    between atoms: C_3  and  C_4
REMARK    4  A    between atoms: C_4  and  N_5
REMARK    5  A    between atoms: C_6  and  C_8
REMARK    6  A    between atoms: C_13  and  N_14
REMARK    7  A    between atoms: C_30  and  C_35
REMARK    8  A    between atoms: C_38  and  O_41
REMARK    9  A    between atoms: O_41  and  C_42
REMARK                            x       y       z     vdW  Elec       q    Type
REMARK                         _______ _______ _______ _____ _____    ______ ____
ROOT
ATOM      1  N   UNL     1       0.227  -6.627   1.980  0.00  0.00    -0.192 N 
ATOM      2  C   UNL     1       1.032  -7.048   0.982  0.00  0.00    +0.248 C 
ATOM      3  O   UNL     1       2.157  -6.669   0.740  0.00  0.00    -0.273 OA
ATOM      4  C   UNL     1       0.237  -8.092   0.228  0.00  0.00    +0.169 C 
ATOM      5  C   UNL     1       0.070  -7.662  -1.240  0.00  0.00    +0.065 C 
ATOM      6  C   UNL     1      -1.170  -8.357  -1.751  0.00  0.00    -0.034 C 
ATOM      7  C   UNL     1      -1.828  -8.224  -2.898  0.00  0.00    -0.001 A 
ATOM      8  C   UNL     1      -1.539  -7.432  -4.105  0.00  0.00    +0.010 A 
ATOM      9  C   UNL     1      -2.450  -7.518  -5.110  0.00  0.00    +0.001 A 
ATOM     10  C   UNL     1      -3.606  -8.302  -5.035  0.00  0.00    +0.002 A 
ATOM     11  C   UNL     1      -3.947  -9.066  -3.968  0.00  0.00    +0.026 A 
ATOM     12  C   UNL     1      -3.062  -9.064  -2.850  0.00  0.00    +0.043 A 
ATOM     13  N   UNL     1      -3.131  -9.706  -1.722  0.00  0.00    -0.375 N 
ATOM     14  C   UNL     1      -1.931  -9.398  -0.940  0.00  0.00    +0.131 C 
ATOM     15  C   UNL     1      -2.286  -8.751   0.405  0.00  0.00    +0.135 C 
ATOM     16  N   UNL     1      -1.083  -8.056   0.890  0.00  0.00    -0.264 N 
ATOM     17  C   UNL     1      -0.968  -7.233   1.940  0.00  0.00    +0.317 C 
ATOM     18  O   UNL     1      -1.846  -7.054   2.761  0.00  0.00    -0.252 OA
ATOM     19  H   UNL     1      -3.854 -10.290  -1.444  0.00  0.00    +0.160 HD
ENDROOT
BRANCH   1  25
ATOM     20  C   UNL     1       0.356  -4.318   2.712  0.00  0.00    +0.059 A 
ATOM     21  C   UNL     1       0.724  -3.382   3.680  0.00  0.00    +0.015 A 
ATOM     22  C   UNL     1       1.324  -3.802   4.848  0.00  0.00    +0.001 A 
ATOM     23  C   UNL     1       1.564  -5.149   5.067  0.00  0.00    +0.002 A 
ATOM     24  C   UNL     1       1.205  -6.085   4.118  0.00  0.00    +0.025 A 
ATOM     25  C   UNL     1       0.595  -5.681   2.938  0.00  0.00    +0.058 A 
BRANCH  20  27
ATOM     26  N   UNL     1      -0.515  -2.565   1.245  0.00  0.00    -0.309 N 
ATOM     27  C   UNL     1      -0.287  -3.876   1.459  0.00  0.00    +0.246 C 
ATOM     28  O   UNL     1      -0.611  -4.695   0.620  0.00  0.00    -0.270 OA
ATOM     29  H   UNL     1      -0.257  -1.913   1.914  0.00  0.00    +0.149 HD
BRANCH  26  30
ATOM     30  C   UNL     1      -1.154  -2.126   0.002  0.00  0.00    +0.132 C 
BRANCH  30  31
ATOM     31  C   UNL     1      -1.295  -0.603   0.011  0.00  0.00    +0.178 C 
BRANCH  31  33
ATOM     32  C   UNL     1      -0.017   1.425   0.010  0.00  0.00    +0.194 C 
ATOM     33  O   UNL     1       0.002  -0.004   0.002  0.00  0.00    -0.381 OA
ENDBRANCH  31  33
ENDBRANCH  30  31
ENDBRANCH  26  30
ENDBRANCH  20  27
ENDBRANCH   1  25
BRANCH  15  34
ATOM     34  C   UNL     1      -2.675  -9.815   1.399  0.00  0.00    -0.024 A 
ATOM     35  C   UNL     1      -1.696 -10.537   2.056  0.00  0.00    +0.009 A 
ATOM     36  C   UNL     1      -2.050 -11.513   2.967  0.00  0.00    +0.046 A 
ATOM     37  C   UNL     1      -3.389 -11.768   3.224  0.00  0.00    +0.120 A 
ATOM     38  C   UNL     1      -4.370 -11.042   2.564  0.00  0.00    +0.046 A 
ATOM     39  C   UNL     1      -4.011 -10.063   1.657  0.00  0.00    +0.009 A 
BRANCH  37  40
ATOM     40  O   UNL     1      -3.740 -12.728   4.120  0.00  0.00    -0.495 OA
ATOM     41  C   UNL     1      -5.137 -12.936   4.334  0.00  0.00    +0.277 C 
ENDBRANCH  37  40
ENDBRANCH  15  34
TORSDOF 7
