REMARK  Name = ZINC63383930
REMARK  11 active torsions:
REMARK  status: ('A' for Active; 'I' for Inactive)
REMARK    1  A    between atoms: C_1  and  C_2
REMARK    2  A    between atoms: C_2  and  C_3
REMARK    3  A    between atoms: C_3  and  C_5
REMARK    4  A    between atoms: C_3  and  C_6
REMARK    5  A    between atoms: C_6  and  C_8
REMARK    6  A    between atoms: C_6  and  N_15
REMARK    7  A    between atoms: N_10  and  C_11
REMARK    8  A    between atoms: C_11  and  C_12
REMARK    9  A    between atoms: C_12  and  C_13
REMARK   10  A    between atoms: C_12  and  C_14
REMARK   11  A    between atoms: C_16  and  C_18
REMARK                            x       y       z     vdW  Elec       q    Type
REMARK                         _______ _______ _______ _____ _____    ______ ____
ROOT
ATOM      1  C   UNL     1      -1.686   3.529  -2.413  0.00  0.00    +0.167 C 
ATOM      2  C   UNL     1      -2.954   3.733  -3.266  0.00  0.00    +0.065 C 
ATOM      3  C   UNL     1      -2.573   3.466  -4.701  0.00  0.00    -0.034 C 
ATOM      4  C   UNL     1      -3.112   2.656  -5.606  0.00  0.00    -0.001 A 
ATOM      5  C   UNL     1      -4.317   1.811  -5.569  0.00  0.00    +0.010 A 
ATOM      6  C   UNL     1      -4.571   1.081  -6.687  0.00  0.00    +0.001 A 
ATOM      7  C   UNL     1      -3.759   1.107  -7.825  0.00  0.00    +0.002 A 
ATOM      8  C   UNL     1      -2.638   1.861  -7.949  0.00  0.00    +0.026 A 
ATOM      9  C   UNL     1      -2.270   2.678  -6.841  0.00  0.00    +0.043 A 
ATOM     10  N   UNL     1      -1.274   3.500  -6.696  0.00  0.00    -0.375 N 
ATOM     11  C   UNL     1      -1.387   4.139  -5.384  0.00  0.00    +0.131 C 
ATOM     12  C   UNL     1      -0.162   3.852  -4.508  0.00  0.00    +0.134 C 
ATOM     13  N   UNL     1      -0.549   4.147  -3.107  0.00  0.00    -0.276 N 
ATOM     14  C   UNL     1       0.295   5.067  -2.606  0.00  0.00    +0.248 C 
ATOM     15  O   UNL     1       0.289   5.464  -1.457  0.00  0.00    -0.270 OA
ATOM     16  C   UNL     1       1.222   5.521  -3.644  0.00  0.00    +0.042 A 
ATOM     17  C   UNL     1       0.959   4.781  -4.840  0.00  0.00    -0.013 A 
ATOM     18  C   UNL     1       1.671   4.982  -6.002  0.00  0.00    +0.006 A 
ATOM     19  C   UNL     1       2.677   5.944  -5.969  0.00  0.00    +0.000 A 
ATOM     20  C   UNL     1       2.954   6.667  -4.826  0.00  0.00    +0.001 A 
ATOM     21  C   UNL     1       2.231   6.487  -3.608  0.00  0.00    +0.013 A 
ATOM     22  H   UNL     1      -0.574   3.663  -7.348  0.00  0.00    +0.160 HD
ENDROOT
BRANCH   1  24
ATOM     23  N   UNL     1      -2.348   1.280  -1.624  0.00  0.00    -0.302 N 
ATOM     24  C   UNL     1      -1.429   2.055  -2.233  0.00  0.00    +0.235 C 
ATOM     25  O   UNL     1      -0.395   1.566  -2.636  0.00  0.00    -0.274 OA
ATOM     26  H   UNL     1      -3.206   1.654  -1.370  0.00  0.00    +0.150 HD
BRANCH  23  27
ATOM     27  C   UNL     1      -2.052  -0.128  -1.346  0.00  0.00    +0.162 C 
BRANCH  27  28
ATOM     28  C   UNL     1      -3.321  -0.935  -1.432  0.00  0.00    +0.234 C 
ATOM     29  O   UNL     1      -4.369  -0.390  -1.708  0.00  0.00    -0.274 OA
ATOM     30  N   UNL     1      -3.293  -2.263  -1.202  0.00  0.00    -0.314 N 
ATOM     31  H   UNL     1      -2.470  -2.687  -0.910  0.00  0.00    +0.149 HD
BRANCH  30  32
ATOM     32  C   UNL     1      -4.503  -3.065  -1.392  0.00  0.00    +0.107 C 
BRANCH  32  33
ATOM     33  C   UNL     1      -4.201  -4.529  -1.066  0.00  0.00    -0.000 C 
ATOM     34  C   UNL     1      -3.857  -4.660   0.419  0.00  0.00    +0.009 C 
ATOM     35  C   UNL     1      -5.428  -5.386  -1.383  0.00  0.00    +0.009 C 
ENDBRANCH  32  33
ENDBRANCH  30  32
ENDBRANCH  27  28
BRANCH  27  36
ATOM     36  C   UNL     1      -1.459  -0.256   0.058  0.00  0.00    +0.015 C 
ATOM     37  C   UNL     1      -0.089   0.423   0.098  0.00  0.00    +0.010 C 
BRANCH  36  39
ATOM     38  C   UNL     1      -3.687  -0.390   1.182  0.00  0.00    +0.004 C 
ATOM     39  C   UNL     1      -2.391   0.416   1.069  0.00  0.00    +0.002 C 
ENDBRANCH  36  39
ENDBRANCH  27  36
ENDBRANCH  23  27
ENDBRANCH   1  24
TORSDOF 7
