REMARK  Name = ZINC04090333
REMARK  6 active torsions:
REMARK  status: ('A' for Active; 'I' for Inactive)
REMARK    1  A    between atoms: C_1  and  C_2
REMARK    2  A    between atoms: C_5  and  C_8
REMARK    3  A    between atoms: C_14  and  C_15
REMARK    4  A    between atoms: C_17  and  C_31
REMARK    5  A    between atoms: N_18  and  C_21
REMARK    6  A    between atoms: C_19  and  C_20
REMARK                            x       y       z     vdW  Elec       q    Type
REMARK                         _______ _______ _______ _____ _____    ______ ____
ROOT
ATOM      1  C   UNL     1      -1.514  -5.159  -0.573  0.00  0.00    +0.130 C 
ATOM      2  N   UNL     1      -0.897  -5.633   0.482  0.00  0.00    -0.164 NA
ATOM      3  N   UNL     1      -0.851  -6.989   0.728  0.00  0.00    -0.152 N 
ATOM      4  C   UNL     1      -0.299  -7.601   1.874  0.00  0.00    +0.153 C 
ATOM      5  N   UNL     1      -0.145  -6.981   3.015  0.00  0.00    -0.283 NA
ATOM      6  C   UNL     1       0.091  -9.021   1.655  0.00  0.00    +0.081 C 
ATOM      7  C   UNL     1       1.173  -9.586   2.300  0.00  0.00    +0.026 C 
ATOM      8  C   UNL     1      -0.746  -9.797   0.709  0.00  0.00    +0.273 C 
ATOM      9  O   UNL     1      -0.822 -11.013   0.789  0.00  0.00    -0.268 OA
ATOM     10  N   UNL     1      -1.422  -9.122  -0.242  0.00  0.00    -0.152 NA
ATOM     11  C   UNL     1      -1.421  -7.813  -0.220  0.00  0.00    +0.181 C 
ATOM     12  S   UNL     1      -2.112  -6.646  -1.363  0.00  0.00    -0.033 S 
ATOM     13  H   UNL     1      -0.416  -6.054   3.104  0.00  0.00    +0.188 HD
ENDROOT
BRANCH   1  18
ATOM     14  C   UNL     1      -2.155   0.318  -2.224  0.00  0.00    +0.044 C 
ATOM     15  C   UNL     1      -1.987  -1.116  -1.791  0.00  0.00    -0.050 A 
ATOM     16  C   UNL     1      -2.533  -2.134  -2.553  0.00  0.00    +0.004 A 
ATOM     17  C   UNL     1      -2.383  -3.448  -2.163  0.00  0.00    +0.011 A 
ATOM     18  C   UNL     1      -1.679  -3.751  -0.997  0.00  0.00    +0.009 A 
ATOM     19  C   UNL     1      -1.131  -2.720  -0.233  0.00  0.00    +0.011 A 
ATOM     20  C   UNL     1      -1.284  -1.410  -0.637  0.00  0.00    +0.004 A 
ENDBRANCH   1  18
BRANCH   7  21
ATOM     21  C   UNL     1       1.615 -10.884   1.939  0.00  0.00    -0.003 A 
ATOM     22  C   UNL     1       1.585 -11.489   0.600  0.00  0.00    +0.031 A 
ATOM     23  C   UNL     1       2.101 -12.723   0.728  0.00  0.00    +0.022 A 
ATOM     24  N   UNL     1       2.448 -12.931   2.035  0.00  0.00    -0.317 N 
ATOM     25  C   UNL     1       2.169 -11.839   2.775  0.00  0.00    +0.028 A 
ATOM     26  C   UNL     1       2.414 -11.686   4.254  0.00  0.00    +0.064 C 
ATOM     27  C   UNL     1       2.271 -13.719  -0.390  0.00  0.00    +0.064 C 
BRANCH  24  28
ATOM     28  C   UNL     1       3.015 -14.109   2.532  0.00  0.00    +0.054 A 
ATOM     29  C   UNL     1       4.385 -14.261   2.565  0.00  0.00    +0.027 A 
ATOM     30  C   UNL     1       4.960 -15.428   3.058  0.00  0.00    +0.003 A 
ATOM     31  C   UNL     1       4.188 -16.451   3.520  0.00  0.00    +0.008 A 
ATOM     32  C   UNL     1       2.788 -16.336   3.504  0.00  0.00    -0.016 A 
ATOM     33  C   UNL     1       2.191 -15.150   3.009  0.00  0.00    +0.006 A 
ATOM     34  C   UNL     1       0.792 -15.034   2.998  0.00  0.00    +0.010 A 
ATOM     35  C   UNL     1       0.028 -16.059   3.466  0.00  0.00    +0.001 A 
ATOM     36  C   UNL     1       0.614 -17.224   3.958  0.00  0.00    +0.001 A 
ATOM     37  C   UNL     1       1.966 -17.375   3.974  0.00  0.00    +0.008 A 
ENDBRANCH  24  28
ENDBRANCH   7  21
TORSDOF 3
