REMARK  Name = ZINC20877123
REMARK  12 active torsions:
REMARK  status: ('A' for Active; 'I' for Inactive)
REMARK    1  A    between atoms: C_1  and  C_2
REMARK    2  A    between atoms: C_2  and  C_4
REMARK    3  A    between atoms: C_2  and  N_10
REMARK    4  A    between atoms: N_10  and  C_11
REMARK    5  A    between atoms: C_11  and  C_12
REMARK    6  A    between atoms: C_14  and  O_34
REMARK    7  A    between atoms: C_15  and  O_19
REMARK    8  A    between atoms: O_19  and  C_20
REMARK    9  A    between atoms: C_20  and  C_21
REMARK   10  A    between atoms: C_21  and  C_23
REMARK   11  A    between atoms: C_21  and  O_33
REMARK   12  A    between atoms: O_34  and  C_35
REMARK                            x       y       z     vdW  Elec       q    Type
REMARK                         _______ _______ _______ _____ _____    ______ ____
ROOT
ATOM      1  C   UNL     1      -7.138  -2.470  -5.094  0.00  0.00    -0.060 A 
ATOM      2  C   UNL     1      -7.534  -1.385  -4.335  0.00  0.00    +0.051 A 
ATOM      3  C   UNL     1      -6.947  -1.150  -3.102  0.00  0.00    +0.163 A 
ATOM      4  C   UNL     1      -5.951  -2.003  -2.636  0.00  0.00    +0.176 A 
ATOM      5  C   UNL     1      -5.558  -3.089  -3.402  0.00  0.00    +0.063 A 
ATOM      6  C   UNL     1      -6.153  -3.321  -4.629  0.00  0.00    +0.021 A 
ATOM      7 BR   UNL     1      -4.209  -4.254  -2.770  0.00  0.00    -0.046 Br
ENDROOT
BRANCH   3   8
ATOM      8  O   UNL     1      -7.339  -0.086  -2.352  0.00  0.00    -0.491 OA
ATOM      9  C   UNL     1      -8.367   0.746  -2.894  0.00  0.00    +0.277 C 
ENDBRANCH   3   8
BRANCH   1  10
ATOM     10  C   UNL     1      -7.782  -2.727  -6.433  0.00  0.00    -0.046 C 
BRANCH  10  11
ATOM     11  N   UNL     1      -8.956  -3.592  -6.254  0.00  0.00    +0.386 N 
ATOM     12  H   UNL     1      -9.665  -3.089  -5.580  0.00  0.00    -0.085 HD
ATOM     13  H   UNL     1      -8.629  -4.540  -5.801  0.00  0.00    -0.085 HD
BRANCH  11  15
ATOM     14  C   UNL     1     -10.581  -2.727  -7.869  0.00  0.00    -0.009 C 
ATOM     15  C   UNL     1      -9.611  -3.864  -7.540  0.00  0.00    -0.044 C 
BRANCH  15  16
ATOM     16  C   UNL     1     -10.370  -5.162  -7.453  0.00  0.00    -0.062 A 
ATOM     17  C   UNL     1     -11.068  -5.479  -6.303  0.00  0.00    +0.002 A 
ATOM     18  C   UNL     1     -11.768  -6.668  -6.224  0.00  0.00    +0.000 A 
ATOM     19  C   UNL     1     -11.762  -7.545  -7.293  0.00  0.00    +0.000 A 
ATOM     20  C   UNL     1     -11.060  -7.231  -8.441  0.00  0.00    +0.000 A 
ATOM     21  C   UNL     1     -10.363  -6.040  -8.521  0.00  0.00    +0.002 A 
ENDBRANCH  15  16
ENDBRANCH  11  15
ENDBRANCH  10  11
ENDBRANCH   1  10
BRANCH   4  22
ATOM     22  O   UNL     1      -5.367  -1.774  -1.429  0.00  0.00    -0.484 OA
BRANCH  22  23
ATOM     23  C   UNL     1      -4.203  -0.946  -1.418  0.00  0.00    +0.265 C 
BRANCH  23  24
ATOM     24  C   UNL     1      -3.692  -0.803   0.018  0.00  0.00    +0.182 C 
BRANCH  24  25
ATOM     25  C   UNL     1      -2.397  -0.033   0.016  0.00  0.00    -0.012 A 
ATOM     26  C   UNL     1      -2.415   1.349   0.025  0.00  0.00    +0.010 A 
ATOM     27  C   UNL     1      -1.229   2.059   0.019  0.00  0.00    +0.050 A 
ATOM     28  C   UNL     1      -0.017   1.385   0.010  0.00  0.00    +0.162 A 
ATOM     29  C   UNL     1       0.002  -0.004   0.002  0.00  0.00    +0.162 A 
ATOM     30  C   UNL     1      -1.192  -0.710   0.004  0.00  0.00    +0.055 A 
ATOM     31  O   UNL     1       1.181  -0.685  -0.007  0.00  0.00    -0.485 OA
ATOM     32  C   UNL     1       2.347   0.053  -0.387  0.00  0.00    +0.270 C 
ATOM     33  C   UNL     1       2.334   1.392   0.364  0.00  0.00    +0.270 C 
ATOM     34  O   UNL     1       1.143   2.098   0.002  0.00  0.00    -0.485 OA
ENDBRANCH  24  25
BRANCH  24  35
ATOM     35  O   UNL     1      -4.661  -0.103   0.801  0.00  0.00    -0.384 OA
ATOM     36  H   UNL     1      -4.468   0.095   1.865  0.00  0.00    +0.210 HD
ENDBRANCH  24  35
ENDBRANCH  23  24
ENDBRANCH  22  23
ENDBRANCH   4  22
TORSDOF 10
