REMARK  Name = ZINC36645748
REMARK  14 active torsions:
REMARK  status: ('A' for Active; 'I' for Inactive)
REMARK    1  A    between atoms: C_1  and  C_2
REMARK    2  A    between atoms: C_4  and  O_45
REMARK    3  A    between atoms: C_6  and  O_44
REMARK    4  A    between atoms: C_8  and  O_43
REMARK    5  A    between atoms: C_10  and  O_13
REMARK    6  A    between atoms: O_13  and  C_14
REMARK    7  A    between atoms: C_16  and  O_42
REMARK    8  A    between atoms: C_18  and  O_41
REMARK    9  A    between atoms: C_20  and  C_39
REMARK   10  A    between atoms: C_23  and  O_25
REMARK   11  A    between atoms: O_25  and  C_26
REMARK   12  A    between atoms: C_36  and  O_37
REMARK   13  A    between atoms: O_37  and  C_38
REMARK   14  A    between atoms: C_39  and  O_40
REMARK                            x       y       z     vdW  Elec       q    Type
REMARK                         _______ _______ _______ _____ _____    ______ ____
ROOT
ATOM      1  C   UNL     1      -1.171  -2.122   2.631  0.00  0.00    +0.221 C 
ATOM      2  C   UNL     1      -2.009  -3.297   3.143  0.00  0.00    +0.180 C 
ATOM      3  C   UNL     1      -3.030  -3.688   2.071  0.00  0.00    +0.177 C 
ATOM      4  C   UNL     1      -3.890  -2.469   1.727  0.00  0.00    +0.179 C 
ATOM      5  O   UNL     1      -3.047  -1.402   1.287  0.00  0.00    -0.331 OA
ATOM      6  C   UNL     1      -2.102  -0.962   2.266  0.00  0.00    +0.340 C 
ENDROOT
BRANCH   3   7
ATOM      7  O   UNL     1      -2.345  -4.136   0.899  0.00  0.00    -0.386 OA
ATOM      8  H   UNL     1      -2.932  -4.401   0.177  0.00  0.00    +0.210 HD
ENDBRANCH   3   7
BRANCH   2   9
ATOM      9  O   UNL     1      -1.154  -4.409   3.419  0.00  0.00    -0.386 OA
ATOM     10  H   UNL     1      -1.619  -5.190   3.748  0.00  0.00    +0.210 HD
ENDBRANCH   2   9
BRANCH   1  11
ATOM     11  O   UNL     1      -0.437  -2.527   1.474  0.00  0.00    -0.337 OA
BRANCH  11  17
ATOM     12  C   UNL     1       2.681   0.278   1.625  0.00  0.00    +0.041 C 
ATOM     13  C   UNL     1       1.801  -0.866   1.117  0.00  0.00    +0.149 C 
ATOM     14  C   UNL     1       2.418  -1.460  -0.152  0.00  0.00    +0.174 C 
ATOM     15  C   UNL     1       1.564  -2.643  -0.620  0.00  0.00    +0.179 C 
ATOM     16  C   UNL     1       1.466  -3.668   0.514  0.00  0.00    +0.201 C 
ATOM     17  C   UNL     1       0.885  -2.989   1.756  0.00  0.00    +0.282 C 
ATOM     18  O   UNL     1       1.710  -1.879   2.120  0.00  0.00    -0.343 OA
BRANCH  16  19
ATOM     19  O   UNL     1       0.613  -4.742   0.113  0.00  0.00    -0.384 OA
ATOM     20  H   UNL     1       0.505  -5.430   0.784  0.00  0.00    +0.210 HD
ENDBRANCH  16  19
BRANCH  15  21
ATOM     21  O   UNL     1       0.257  -2.181  -0.965  0.00  0.00    -0.386 OA
ATOM     22  H   UNL     1      -0.339  -2.879  -1.270  0.00  0.00    +0.210 HD
ENDBRANCH  15  21
BRANCH  14  23
ATOM     23  O   UNL     1       2.458  -0.464  -1.175  0.00  0.00    -0.387 OA
ATOM     24  H   UNL     1       2.980   0.317  -0.943  0.00  0.00    +0.210 HD
ENDBRANCH  14  23
ENDBRANCH  11  17
ENDBRANCH   1  11
BRANCH   6  25
ATOM     25  O   UNL     1      -1.331   0.118   1.735  0.00  0.00    -0.457 OA
BRANCH  25  26
ATOM     26  C   UNL     1      -1.975   1.298   1.540  0.00  0.00    +0.169 A 
ATOM     27  C   UNL     1      -3.287   1.441   1.956  0.00  0.00    +0.096 A 
ATOM     28  C   UNL     1      -3.950   2.643   1.760  0.00  0.00    +0.143 A 
ATOM     29  C   UNL     1      -3.280   3.712   1.135  0.00  0.00    +0.021 A 
ATOM     30  C   UNL     1      -3.992   4.975   0.934  0.00  0.00    +0.018 A 
ATOM     31  C   UNL     1      -5.279   5.062   1.361  0.00  0.00    +0.092 A 
ATOM     32  C   UNL     1      -5.889   3.951   1.979  0.00  0.00    +0.337 A 
ATOM     33  O   UNL     1      -7.043   4.043   2.358  0.00  0.00    -0.245 OA
ATOM     34  O   UNL     1      -5.231   2.796   2.161  0.00  0.00    -0.422 OA
ATOM     35  C   UNL     1      -1.953   3.559   0.716  0.00  0.00    +0.061 A 
ATOM     36  C   UNL     1      -1.306   2.360   0.924  0.00  0.00    +0.162 A 
BRANCH  36  37
ATOM     37  O   UNL     1      -0.015   2.207   0.524  0.00  0.00    -0.491 OA
ATOM     38  C   UNL     1       0.642   3.362  -0.002  0.00  0.00    +0.277 C 
ENDBRANCH  36  37
ENDBRANCH  25  26
ENDBRANCH   6  25
BRANCH   4  39
ATOM     39  C   UNL     1      -4.873  -2.835   0.614  0.00  0.00    +0.190 C 
BRANCH  39  40
ATOM     40  O   UNL     1      -5.753  -1.734   0.374  0.00  0.00    -0.392 OA
ATOM     41  H   UNL     1      -6.405  -1.896  -0.322  0.00  0.00    +0.210 HD
ENDBRANCH  39  40
ENDBRANCH   4  39
TORSDOF 12
