REMARK  Name = ZINC43740210
REMARK  7 active torsions:
REMARK  status: ('A' for Active; 'I' for Inactive)
REMARK    1  A    between atoms: C_1  and  C_2
REMARK    2  A    between atoms: C_19  and  C_21
REMARK    3  A    between atoms: C_21  and  N_22
REMARK    4  A    between atoms: N_25  and  C_28
REMARK    5  A    between atoms: C_28  and  C_29
REMARK    6  A    between atoms: C_28  and  C_35
REMARK    7  A    between atoms: C_28  and  O_41
REMARK                            x       y       z     vdW  Elec       q    Type
REMARK                         _______ _______ _______ _____ _____    ______ ____
ROOT
ATOM      1  N   UNL     1      -2.594  -3.759   4.358  0.00  0.00    +0.382 N 
ATOM      2  C   UNL     1      -1.209  -4.131   4.040  0.00  0.00    -0.063 C 
ATOM      3  C   UNL     1      -1.028  -5.638   4.234  0.00  0.00    +0.069 C 
ATOM      4  N   UNL     1      -1.341  -5.991   5.626  0.00  0.00    -0.271 NA
ATOM      5  C   UNL     1      -2.717  -5.601   5.966  0.00  0.00    +0.069 C 
ATOM      6  C   UNL     1      -2.884  -4.095   5.758  0.00  0.00    -0.063 C 
ATOM      7  H   UNL     1      -3.225  -4.263   3.753  0.00  0.00    -0.082 HD
ENDROOT
BRANCH   1   8
ATOM      8  C   UNL     1      -2.772  -2.315   4.154  0.00  0.00    -0.064 C 
BRANCH   8  24
ATOM      9  C   UNL     1      -1.607   1.492  -0.124  0.00  0.00    +0.012 C 
ATOM     10  C   UNL     1      -1.299  -0.007  -0.106  0.00  0.00    -0.022 C 
ATOM     11  C   UNL     1      -0.478  -0.376  -1.340  0.00  0.00    +0.007 C 
ATOM     12  C   UNL     1       0.790   0.479  -1.391  0.00  0.00    +0.005 C 
ATOM     13  C   UNL     1       1.667   0.171  -0.173  0.00  0.00    +0.030 C 
ATOM     14  C   UNL     1       0.837   0.351   1.080  0.00  0.00    -0.073 C 
ATOM     15  C   UNL     1       1.265   1.096   2.070  0.00  0.00    +0.008 C 
ATOM     16  C   UNL     1      -0.498  -0.353   1.158  0.00  0.00    +0.021 C 
ATOM     17  C   UNL     1      -1.281   0.169   2.361  0.00  0.00    +0.016 C 
ATOM     18  C   UNL     1      -2.649  -0.460   2.443  0.00  0.00    +0.042 C 
ATOM     19  C   UNL     1      -3.450  -0.390   1.129  0.00  0.00    +0.181 C 
ATOM     20  C   UNL     1      -2.604  -0.796  -0.068  0.00  0.00    +0.052 C 
ATOM     21  O   UNL     1      -4.420  -1.456   1.331  0.00  0.00    -0.461 OA
ATOM     22  C   UNL     1      -3.766  -2.505   1.873  0.00  0.00    +0.309 C 
ATOM     23  O   UNL     1      -4.064  -3.668   1.736  0.00  0.00    -0.251 OA
ATOM     24  C   UNL     1      -2.592  -1.983   2.671  0.00  0.00    +0.088 C 
ENDBRANCH   8  24
ENDBRANCH   1   8
BRANCH   4  25
ATOM     25  C   UNL     1      -1.125  -7.423   5.867  0.00  0.00    +0.172 C 
BRANCH  25  26
ATOM     26  C   UNL     1       0.302  -7.779   5.536  0.00  0.00    +0.003 A 
ATOM     27  C   UNL     1       1.312  -6.861   5.759  0.00  0.00    +0.008 A 
ATOM     28  C   UNL     1       2.621  -7.187   5.455  0.00  0.00    +0.000 A 
ATOM     29  C   UNL     1       2.920  -8.430   4.930  0.00  0.00    +0.000 A 
ATOM     30  C   UNL     1       1.910  -9.348   4.708  0.00  0.00    +0.000 A 
ATOM     31  C   UNL     1       0.602  -9.024   5.015  0.00  0.00    +0.008 A 
ENDBRANCH  25  26
BRANCH  25  32
ATOM     32  C   UNL     1      -1.397  -7.736   7.316  0.00  0.00    +0.003 A 
ATOM     33  C   UNL     1      -1.140  -6.787   8.287  0.00  0.00    +0.008 A 
ATOM     34  C   UNL     1      -1.390  -7.073   9.617  0.00  0.00    +0.000 A 
ATOM     35  C   UNL     1      -1.897  -8.308   9.974  0.00  0.00    +0.000 A 
ATOM     36  C   UNL     1      -2.155  -9.257   9.002  0.00  0.00    +0.000 A 
ATOM     37  C   UNL     1      -1.909  -8.969   7.673  0.00  0.00    +0.008 A 
ENDBRANCH  25  32
BRANCH  25  38
ATOM     38  O   UNL     1      -2.009  -8.185   5.042  0.00  0.00    -0.366 OA
ATOM     39  H   UNL     1      -1.889  -8.034   4.094  0.00  0.00    +0.212 HD
ENDBRANCH  25  38
ENDBRANCH   4  25
TORSDOF 6
