REMARK  Name = ZINC45698238
REMARK  7 active torsions:
REMARK  status: ('A' for Active; 'I' for Inactive)
REMARK    1  A    between atoms: C_1  and  C_2
REMARK    2  A    between atoms: C_3  and  C_21
REMARK    3  A    between atoms: C_5  and  S_7
REMARK    4  A    between atoms: S_7  and  C_8
REMARK    5  A    between atoms: C_8  and  C_9
REMARK    6  A    between atoms: N_14  and  C_15
REMARK    7  A    between atoms: C_21  and  C_22
REMARK                            x       y       z     vdW  Elec       q    Type
REMARK                         _______ _______ _______ _____ _____    ______ ____
ROOT
ATOM      1  C   UNL     1       0.063  -2.041   3.926  0.00  0.00    +0.172 C 
ENDROOT
BRANCH   1   2
ATOM      2  C   UNL     1       0.073  -2.877   5.180  0.00  0.00    +0.231 C 
ATOM      3  O   UNL     1       0.081  -4.086   5.102  0.00  0.00    -0.274 OA
ATOM      4  N   UNL     1       0.072  -2.279   6.388  0.00  0.00    -0.239 N 
ATOM      5  C   UNL     1       0.081  -3.027   7.509  0.00  0.00    +0.310 C 
ATOM      6  O   UNL     1       0.089  -4.240   7.431  0.00  0.00    -0.252 OA
ATOM      7  N   UNL     1       0.081  -2.429   8.718  0.00  0.00    -0.269 N 
ATOM      8  H   UNL     1       0.066  -1.311   6.451  0.00  0.00    +0.159 HD
ATOM      9  H   UNL     1       0.142  -1.464   8.781  0.00  0.00    +0.156 HD
BRANCH   7  10
ATOM     10  C   UNL     1      -0.008  -3.203   9.880  0.00  0.00    +0.035 A 
ATOM     11  C   UNL     1      -0.711  -2.728  10.980  0.00  0.00    +0.023 A 
ATOM     12  C   UNL     1      -0.796  -3.493  12.126  0.00  0.00    +0.002 A 
ATOM     13  C   UNL     1      -0.184  -4.732  12.180  0.00  0.00    +0.000 A 
ATOM     14  C   UNL     1       0.516  -5.208  11.086  0.00  0.00    +0.002 A 
ATOM     15  C   UNL     1       0.601  -4.450   9.935  0.00  0.00    +0.023 A 
ENDBRANCH   7  10
ENDBRANCH   1   2
BRANCH   1  16
ATOM     16  S   UNL     1       0.066  -3.128   2.474  0.00  0.00    -0.089 S 
BRANCH  16  21
ATOM     17  C   UNL     1       0.028   1.504   0.011  0.00  0.00    +0.066 C 
ATOM     18  C   UNL     1       0.038  -0.003   0.002  0.00  0.00    +0.050 A 
ATOM     19  C   UNL     1       0.039  -0.704  -1.157  0.00  0.00    +0.022 A 
ATOM     20  S   UNL     1       0.052  -2.377  -0.536  0.00  0.00    -0.065 S 
ATOM     21  C   UNL     1       0.054  -2.015   1.108  0.00  0.00    +0.135 A 
ATOM     22  N   UNL     1       0.051  -0.699   1.125  0.00  0.00    -0.238 NA
BRANCH  19  23
ATOM     23  C   UNL     1       0.031  -0.207  -2.580  0.00  0.00    +0.139 C 
BRANCH  23  24
ATOM     24  C   UNL     1       1.449  -0.032  -3.059  0.00  0.00    +0.215 C 
ATOM     25  O   UNL     1       2.375  -0.285  -2.318  0.00  0.00    -0.276 OA
ATOM     26  N   UNL     1       1.688   0.407  -4.311  0.00  0.00    -0.329 N 
ATOM     27  H   UNL     1       0.947   0.609  -4.904  0.00  0.00    +0.145 HD
ATOM     28  H   UNL     1       2.601   0.520  -4.619  0.00  0.00    +0.145 HD
ENDBRANCH  23  24
ENDBRANCH  19  23
ENDBRANCH  16  21
ENDBRANCH   1  16
TORSDOF 6
