REMARK  Name = ZINC60804566
REMARK  6 active torsions:
REMARK  status: ('A' for Active; 'I' for Inactive)
REMARK    1  A    between atoms: C_1  and  N_2
REMARK    2  A    between atoms: C_3  and  N_23
REMARK    3  A    between atoms: C_4  and  C_11
REMARK    4  A    between atoms: C_11  and  C_13
REMARK    5  A    between atoms: C_13  and  O_14
REMARK    6  A    between atoms: O_14  and  C_15
REMARK                            x       y       z     vdW  Elec       q    Type
REMARK                         _______ _______ _______ _____ _____    ______ ____
ROOT
ATOM      1  C   UNL     1       0.265   1.450   0.033  0.00  0.00    +0.155 C 
ATOM      2  N   UNL     1       0.138  -0.010   0.013  0.00  0.00    -0.285 N 
ATOM      3  C   UNL     1      -1.106  -0.574   0.028  0.00  0.00    +0.116 A 
ATOM      4  C   UNL     1      -1.218  -1.975   0.008  0.00  0.00    +0.123 A 
ATOM      5  C   UNL     1       0.022  -2.762  -0.028  0.00  0.00    +0.266 A 
ATOM      6  O   UNL     1      -0.015  -3.978  -0.047  0.00  0.00    -0.267 OA
ATOM      7  N   UNL     1       1.202  -2.108  -0.040  0.00  0.00    -0.274 N 
ATOM      8  H   UNL     1       2.029  -2.614  -0.064  0.00  0.00    +0.173 HD
ATOM      9  C   UNL     1       1.246  -0.766  -0.025  0.00  0.00    +0.330 A 
ATOM     10  O   UNL     1       2.330  -0.215  -0.042  0.00  0.00    -0.246 OA
ENDROOT
BRANCH   3  11
ATOM     11  N   UNL     1      -2.219   0.208   0.062  0.00  0.00    -0.344 N 
ATOM     12  H   UNL     1      -2.134   1.169   0.156  0.00  0.00    +0.144 HD
ATOM     13  H   UNL     1      -3.098  -0.196  -0.009  0.00  0.00    +0.144 HD
ENDBRANCH   3  11
BRANCH   4  14
ATOM     14  C   UNL     1      -2.480  -2.605   0.022  0.00  0.00    +0.209 C 
ATOM     15  O   UNL     1      -3.493  -1.939  -0.055  0.00  0.00    -0.288 OA
BRANCH  14  16
ATOM     16  C   UNL     1      -2.572  -4.105   0.134  0.00  0.00    +0.308 C 
BRANCH  16  17
ATOM     17  O   UNL     1      -3.945  -4.500   0.128  0.00  0.00    -0.484 OA
BRANCH  17  18
ATOM     18  C   UNL     1      -4.205  -5.831   0.222  0.00  0.00    +0.124 A 
ATOM     19  C   UNL     1      -3.160  -6.737   0.325  0.00  0.00    +0.065 A 
ATOM     20  C   UNL     1      -3.426  -8.090   0.421  0.00  0.00    +0.046 A 
ATOM     21  C   UNL     1      -4.735  -8.541   0.414  0.00  0.00    +0.040 A 
ATOM     22  C   UNL     1      -5.779  -7.638   0.311  0.00  0.00    +0.046 A 
ATOM     23  C   UNL     1      -5.516  -6.284   0.222  0.00  0.00    +0.065 A 
ATOM     24 CL   UNL     1      -7.419  -8.207   0.303  0.00  0.00    -0.083 Cl
ATOM     25 CL   UNL     1      -2.119  -9.225   0.549  0.00  0.00    -0.083 Cl
ENDBRANCH  17  18
ENDBRANCH  16  17
ENDBRANCH  14  16
ENDBRANCH   4  14
TORSDOF 5
