REMARK  Name = ZINC40154187
REMARK  9 active torsions:
REMARK  status: ('A' for Active; 'I' for Inactive)
REMARK    1  A    between atoms: C_1  and  C_2
REMARK    2  A    between atoms: C_3  and  N_9
REMARK    3  A    between atoms: C_4  and  C_8
REMARK    4  A    between atoms: N_5  and  C_7
REMARK    5  A    between atoms: C_10  and  C_12
REMARK    6  A    between atoms: C_12  and  C_14
REMARK    7  A    between atoms: C_12  and  N_15
REMARK    8  A    between atoms: C_18  and  N_21
REMARK    9  A    between atoms: N_24  and  C_25
REMARK                            x       y       z     vdW  Elec       q    Type
REMARK                         _______ _______ _______ _____ _____    ______ ____
ROOT
ATOM      1  N   UNL     1       0.313   2.820  -4.158  0.00  0.00    +0.387 N 
ATOM      2  C   UNL     1      -0.042   3.318  -5.493  0.00  0.00    -0.076 C 
ATOM      3  C   UNL     1       0.387   4.781  -5.627  0.00  0.00    +0.004 C 
ATOM      4  C   UNL     1      -0.329   5.616  -4.561  0.00  0.00    +0.071 C 
ATOM      5  C   UNL     1      -0.011   5.042  -3.178  0.00  0.00    +0.004 C 
ATOM      6  C   UNL     1      -0.424   3.570  -3.134  0.00  0.00    -0.076 C 
ATOM      7  H   UNL     1       1.304   2.938  -4.011  0.00  0.00    -0.081 HD
ENDROOT
BRANCH   4   8
ATOM      8  N   UNL     1       0.134   7.004  -4.634  0.00  0.00    -0.296 N 
ATOM      9  C   UNL     1      -0.655   8.002  -4.190  0.00  0.00    +0.304 C 
ATOM     10  O   UNL     1      -1.752   7.751  -3.729  0.00  0.00    -0.253 OA
ATOM     11  N   UNL     1      -0.229   9.279  -4.258  0.00  0.00    -0.269 N 
ATOM     12  H   UNL     1       1.009   7.205  -5.002  0.00  0.00    +0.151 HD
ATOM     13  H   UNL     1       0.609   9.488  -4.699  0.00  0.00    +0.156 HD
BRANCH  11  14
ATOM     14  C   UNL     1      -0.997  10.304  -3.691  0.00  0.00    +0.035 A 
ATOM     15  C   UNL     1      -1.023  11.561  -4.281  0.00  0.00    +0.026 A 
ATOM     16  C   UNL     1      -1.781  12.570  -3.720  0.00  0.00    +0.040 A 
ATOM     17  C   UNL     1      -2.515  12.330  -2.571  0.00  0.00    +0.124 A 
ATOM     18  C   UNL     1      -2.489  11.078  -1.980  0.00  0.00    +0.040 A 
ATOM     19  C   UNL     1      -1.737  10.064  -2.541  0.00  0.00    +0.026 A 
ATOM     20  F   UNL     1      -3.255  13.319  -2.024  0.00  0.00    -0.205 F 
ENDBRANCH  11  14
ENDBRANCH   4   8
BRANCH   1  21
ATOM     21  C   UNL     1      -0.029   1.395  -4.062  0.00  0.00    +0.016 C 
ATOM     22  C   UNL     1       0.635   0.632  -5.210  0.00  0.00    -0.004 C 
BRANCH  21  24
ATOM     23  N   UNL     1       0.025  -0.350  -2.309  0.00  0.00    -0.284 N 
ATOM     24  C   UNL     1       0.461   0.849  -2.745  0.00  0.00    +0.203 C 
ATOM     25  O   UNL     1       1.247   1.488  -2.078  0.00  0.00    -0.277 OA
ATOM     26  H   UNL     1      -0.573  -0.878  -2.860  0.00  0.00    +0.155 HD
BRANCH  23  29
ATOM     27  C   UNL     1       0.534   1.433   0.194  0.00  0.00    +0.069 C 
ATOM     28  C   UNL     1       0.678  -0.063   0.092  0.00  0.00    +0.081 A 
ATOM     29  C   UNL     1       0.440  -0.835  -1.054  0.00  0.00    +0.077 A 
ATOM     30  C   UNL     1       0.680  -2.134  -0.739  0.00  0.00    +0.057 A 
ATOM     31  N   UNL     1       1.057  -2.175   0.565  0.00  0.00    -0.270 N 
ATOM     32  N   UNL     1       1.051  -0.864   1.057  0.00  0.00    -0.175 NA
ATOM     33  C   UNL     1       1.411  -3.379   1.322  0.00  0.00    +0.172 C 
ATOM     34  C   UNL     1       0.551  -3.314  -1.667  0.00  0.00    +0.067 C 
ENDBRANCH  23  29
ENDBRANCH  21  24
ENDBRANCH   1  21
TORSDOF 5
