REMARK  Name = ZINC44832811
REMARK  6 active torsions:
REMARK  status: ('A' for Active; 'I' for Inactive)
REMARK    1  A    between atoms: C_1  and  C_2
REMARK    2  A    between atoms: C_7  and  C_18
REMARK    3  A    between atoms: C_10  and  C_12
REMARK    4  A    between atoms: C_12  and  C_14
REMARK    5  A    between atoms: C_12  and  C_15
REMARK    6  A    between atoms: C_15  and  N_17
REMARK                            x       y       z     vdW  Elec       q    Type
REMARK                         _______ _______ _______ _____ _____    ______ ____
ROOT
ATOM      1  C   UNL     1      -0.081  -0.191  -0.387  0.00  0.00    +0.028 C 
ATOM      2  C   UNL     1       0.526  -1.555  -0.050  0.00  0.00    +0.073 C 
ATOM      3  C   UNL     1      -0.594  -2.579   0.153  0.00  0.00    +0.022 C 
ATOM      4  C   UNL     1       0.010  -3.904   0.624  0.00  0.00    +0.004 C 
ATOM      5  C   UNL     1       0.721  -3.694   1.963  0.00  0.00    +0.022 C 
ATOM      6  C   UNL     1       1.857  -2.682   1.781  0.00  0.00    +0.073 C 
ATOM      7  N   UNL     1       1.308  -1.454   1.190  0.00  0.00    -0.295 N 
ATOM      8  C   UNL     1       1.516  -0.257   1.775  0.00  0.00    +0.225 C 
ATOM      9  O   UNL     1       0.981   0.736   1.330  0.00  0.00    -0.275 OA
ATOM     10  C   UNL     1       2.921  -3.268   0.851  0.00  0.00    +0.028 C 
ENDROOT
BRANCH   8  11
ATOM     11  C   UNL     1       2.412  -0.154   2.982  0.00  0.00    +0.123 C 
ATOM     12  C   UNL     1       3.089   1.217   2.999  0.00  0.00    +0.024 C 
BRANCH  11  13
ATOM     13  C   UNL     1       1.590  -0.324   4.234  0.00  0.00    +0.058 C 
ATOM     14  S   UNL     1       0.005  -0.114   4.184  0.00  0.00    -0.040 S 
BRANCH  13  15
ATOM     15  N   UNL     1       2.190  -0.652   5.395  0.00  0.00    -0.355 N 
ATOM     16  H   UNL     1       3.151  -0.779   5.425  0.00  0.00    +0.143 HD
ATOM     17  H   UNL     1       1.661  -0.762   6.201  0.00  0.00    +0.143 HD
ENDBRANCH  13  15
ENDBRANCH  11  13
ENDBRANCH   8  11
TORSDOF 3
