REMARK  Name = ZINC04587400
REMARK  2 active torsions:
REMARK  status: ('A' for Active; 'I' for Inactive)
REMARK    1  A    between atoms: N_15  and  N_16
REMARK    2  A    between atoms: N_16  and  C_17
REMARK                            x       y       z     vdW  Elec       q    Type
REMARK                         _______ _______ _______ _____ _____    ______ ____
ROOT
ATOM      1  C   UNL     1       0.104   1.411   0.137  0.00  0.00    +0.001 A 
ATOM      2  C   UNL     1       1.280   2.095   0.400  0.00  0.00    +0.002 A 
ATOM      3  C   UNL     1       2.468   1.412   0.556  0.00  0.00    +0.026 A 
ATOM      4  C   UNL     1       2.494   0.025   0.450  0.00  0.00    +0.050 A 
ATOM      5  C   UNL     1       1.302  -0.665   0.183  0.00  0.00    +0.029 A 
ATOM      6  C   UNL     1       0.109   0.037   0.028  0.00  0.00    +0.012 A 
ATOM      7  C   UNL     1       1.653  -2.095   0.131  0.00  0.00    +0.137 A 
ATOM      8  C   UNL     1       3.041  -2.171   0.371  0.00  0.00    +0.163 A 
ATOM      9  N   UNL     1       3.520  -0.898   0.558  0.00  0.00    -0.338 N 
ATOM     10  H   UNL     1       4.447  -0.677   0.740  0.00  0.00    +0.167 HD
ATOM     11  N   UNL     1       3.615  -3.370   0.377  0.00  0.00    -0.193 NA
ATOM     12  C   UNL     1       2.872  -4.447   0.160  0.00  0.00    +0.253 A 
ATOM     13  N   UNL     1       1.566  -4.350  -0.063  0.00  0.00    -0.111 NA
ATOM     14  N   UNL     1       0.967  -3.208  -0.079  0.00  0.00    -0.142 NA
ATOM     15  N   UNL     1       3.469  -5.696   0.166  0.00  0.00    -0.233 N 
ATOM     16  H   UNL     1       4.422  -5.777   0.328  0.00  0.00    +0.173 HD
ENDROOT
BRANCH  15  17
ATOM     17  N   UNL     1       2.697  -6.842  -0.062  0.00  0.00    -0.259 N 
ATOM     18  H   UNL     1       1.732  -6.770  -0.137  0.00  0.00    +0.170 HD
BRANCH  17  19
ATOM     19  C   UNL     1       3.288  -8.034  -0.175  0.00  0.00    +0.116 C 
ATOM     20  C   UNL     1       4.677  -8.307  -0.208  0.00  0.00    +0.025 A 
ATOM     21  C   UNL     1       5.816  -7.495  -0.139  0.00  0.00    +0.027 A 
ATOM     22  C   UNL     1       7.071  -8.070  -0.199  0.00  0.00    +0.019 A 
ATOM     23  C   UNL     1       7.206  -9.444  -0.327  0.00  0.00    +0.017 A 
ATOM     24  C   UNL     1       6.091 -10.264  -0.396  0.00  0.00    +0.025 A 
ATOM     25  C   UNL     1       4.813  -9.714  -0.338  0.00  0.00    +0.043 A 
ATOM     26  N   UNL     1       3.577 -10.288  -0.384  0.00  0.00    -0.280 N 
ATOM     27  C   UNL     1       2.623  -9.379  -0.290  0.00  0.00    +0.264 C 
ATOM     28  O   UNL     1       1.424  -9.591  -0.298  0.00  0.00    -0.268 OA
ATOM     29 BR   UNL     1       8.612  -6.978  -0.107  0.00  0.00    -0.050 Br
ATOM     30  H   UNL     1       3.418 -11.241  -0.471  0.00  0.00    +0.155 HD
ENDBRANCH  17  19
ENDBRANCH  15  17
TORSDOF 2
