REMARK  Name = ZINC04391286
REMARK  6 active torsions:
REMARK  status: ('A' for Active; 'I' for Inactive)
REMARK    1  A    between atoms: C_1  and  C_2
REMARK    2  A    between atoms: C_2  and  C_36
REMARK    3  A    between atoms: C_6  and  N_28
REMARK    4  A    between atoms: C_12  and  S_16
REMARK    5  A    between atoms: S_16  and  C_17
REMARK    6  A    between atoms: C_17  and  C_18
REMARK                            x       y       z     vdW  Elec       q    Type
REMARK                         _______ _______ _______ _____ _____    ______ ____
ROOT
ATOM      1  C   UNL     1      14.663   3.260  -1.340  0.00  0.00    +0.041 C 
ATOM      2  C   UNL     1      13.839   2.878  -2.571  0.00  0.00    +0.068 C 
ATOM      3  C   UNL     1      12.358   3.160  -2.308  0.00  0.00    +0.070 C 
ATOM      4  C   UNL     1      11.586   3.060  -3.596  0.00  0.00    -0.024 A 
ATOM      5  C   UNL     1      12.199   3.094  -4.809  0.00  0.00    +0.020 A 
ATOM      6  C   UNL     1      11.436   3.006  -5.978  0.00  0.00    +0.105 A 
ATOM      7  C   UNL     1       9.495   2.848  -4.754  0.00  0.00    +0.089 A 
ATOM      8  C   UNL     1      10.177   2.932  -3.529  0.00  0.00    +0.035 A 
ATOM      9  C   UNL     1       9.337   2.876  -2.318  0.00  0.00    +0.092 A 
ATOM     10  C   UNL     1       7.960   2.739  -2.534  0.00  0.00    +0.072 A 
ATOM     11  S   UNL     1       7.785   2.698  -4.296  0.00  0.00    -0.066 S 
ATOM     12  C   UNL     1       7.074   2.680  -1.467  0.00  0.00    +0.115 A 
ATOM     13  N   UNL     1       7.568   2.748  -0.230  0.00  0.00    -0.228 NA
ATOM     14  C   UNL     1       8.869   2.873  -0.044  0.00  0.00    +0.223 A 
ATOM     15  N   UNL     1       9.733   2.936  -1.026  0.00  0.00    -0.234 NA
ATOM     16  C   UNL     1      13.696   3.221  -4.930  0.00  0.00    +0.199 C 
ATOM     17  O   UNL     1      14.256   3.664  -3.694  0.00  0.00    -0.369 OA
ATOM     18  C   UNL     1      14.033   1.393  -2.882  0.00  0.00    +0.041 C 
ATOM     19  N   UNL     1      10.079   2.883  -5.977  0.00  0.00    -0.337 N 
ATOM     20  H   UNL     1       9.535   2.820  -6.845  0.00  0.00    +0.168 HD
ENDROOT
BRANCH   6  21
ATOM     21  N   UNL     1      12.064   3.045  -7.215  0.00  0.00    -0.312 N 
ATOM     22  C   UNL     1      11.613   4.204  -7.999  0.00  0.00    +0.134 C 
ATOM     23  C   UNL     1      12.372   4.242  -9.328  0.00  0.00    +0.178 C 
ATOM     24  O   UNL     1      12.171   3.008 -10.021  0.00  0.00    -0.377 OA
ATOM     25  C   UNL     1      12.600   1.858  -9.287  0.00  0.00    +0.178 C 
ATOM     26  C   UNL     1      11.843   1.796  -7.958  0.00  0.00    +0.134 C 
ENDBRANCH   6  21
BRANCH  12  27
ATOM     27  S   UNL     1       5.341   2.514  -1.740  0.00  0.00    -0.097 S 
BRANCH  27  28
ATOM     28  C   UNL     1       4.754   2.489  -0.029  0.00  0.00    +0.150 C 
BRANCH  28  29
ATOM     29  C   UNL     1       3.254   2.349  -0.014  0.00  0.00    +0.118 A 
ATOM     30  N   UNL     1       2.581   1.167   0.013  0.00  0.00    -0.341 N 
ATOM     31  H   UNL     1       2.989   0.254   0.027  0.00  0.00    +0.167 HD
ATOM     32  C   UNL     1       1.233   1.462   0.018  0.00  0.00    +0.066 A 
ATOM     33  C   UNL     1       0.076   0.695   0.041  0.00  0.00    +0.028 A 
ATOM     34  C   UNL     1      -1.155   1.315   0.033  0.00  0.00    +0.002 A 
ATOM     35  C   UNL     1      -1.244   2.700   0.014  0.00  0.00    +0.002 A 
ATOM     36  C   UNL     1      -0.117   3.471  -0.009  0.00  0.00    +0.030 A 
ATOM     37  C   UNL     1       1.142   2.863  -0.007  0.00  0.00    +0.089 A 
ATOM     38  N   UNL     1       2.412   3.342  -0.026  0.00  0.00    -0.232 NA
ENDBRANCH  28  29
ENDBRANCH  27  28
ENDBRANCH  12  27
TORSDOF 4
