REMARK  Name = ZINC15224235
REMARK  8 active torsions:
REMARK  status: ('A' for Active; 'I' for Inactive)
REMARK    1  A    between atoms: C_1  and  C_2
REMARK    2  A    between atoms: C_5  and  C_8
REMARK    3  A    between atoms: N_10  and  C1*_20
REMARK    4  A    between atoms: N_13  and  C_14
REMARK    5  A    between atoms: C2*_22  and  O2*_32
REMARK    6  A    between atoms: C3*_24  and  O3*_31
REMARK    7  A    between atoms: C4*_26  and  C5*_29
REMARK    8  A    between atoms: C5*_29  and  O5*_30
REMARK                            x       y       z     vdW  Elec       q    Type
REMARK                         _______ _______ _______ _____ _____    ______ ____
ROOT
ATOM      1  C   UNL     1      -0.563   6.052  -0.978  0.00  0.00    +0.167 A 
ATOM      2  N   UNL     1      -0.412   7.296  -0.620  0.00  0.00    -0.148 NA
ATOM      3  N   UNL     1       0.192   7.315   0.645  0.00  0.00    -0.208 N 
ATOM      4  C   UNL     1       0.386   6.034   1.021  0.00  0.00    +0.185 A 
ATOM      5  S   UNL     1       1.087   5.508   2.492  0.00  0.00    -0.011 S 
ATOM      6  N   UNL     1      -0.069   5.243   0.029  0.00  0.00    -0.271 N 
ENDROOT
BRANCH   1  11
ATOM      7  C   UNL     1      -2.893   4.231  -5.916  0.00  0.00    +0.044 C 
ATOM      8  C   UNL     1      -2.282   4.708  -4.623  0.00  0.00    -0.050 A 
ATOM      9  C   UNL     1      -2.457   6.020  -4.222  0.00  0.00    +0.004 A 
ATOM     10  C   UNL     1      -1.901   6.463  -3.039  0.00  0.00    +0.012 A 
ATOM     11  C   UNL     1      -1.162   5.584  -2.247  0.00  0.00    +0.020 A 
ATOM     12  C   UNL     1      -0.986   4.263  -2.660  0.00  0.00    +0.012 A 
ATOM     13  C   UNL     1      -1.551   3.831  -3.842  0.00  0.00    +0.004 A 
ENDBRANCH   1  11
BRANCH   6  14
ATOM     14  C   UNL     1      -0.050   3.842   0.022  0.00  0.00    +0.050 A 
ATOM     15  C   UNL     1       1.161   3.163   0.007  0.00  0.00    +0.026 A 
ATOM     16  C   UNL     1       1.176   1.782   0.000  0.00  0.00    +0.002 A 
ATOM     17  C   UNL     1      -0.013   1.076   0.008  0.00  0.00    +0.000 A 
ATOM     18  C   UNL     1      -1.220   1.749   0.017  0.00  0.00    +0.002 A 
ATOM     19  C   UNL     1      -1.242   3.130   0.030  0.00  0.00    +0.026 A 
ENDBRANCH   6  14
BRANCH   3  20
ATOM     20  C1* UNL     1       0.543   8.508   1.419  0.00  0.00    +0.271 C 
ATOM     21  C2* UNL     1       1.800   9.183   0.827  0.00  0.00    +0.196 C 
ATOM     22  C3* UNL     1       1.234  10.268  -0.116  0.00  0.00    +0.178 C 
ATOM     23  C4* UNL     1      -0.298  10.120   0.018  0.00  0.00    +0.177 C 
ATOM     24  O4* UNL     1      -0.498   9.503   1.309  0.00  0.00    -0.344 OA
BRANCH  22  25
ATOM     25  O3* UNL     1       1.653  11.567   0.307  0.00  0.00    -0.386 OA
ATOM     26  H3* UNL     1       1.326  12.287  -0.250  0.00  0.00    +0.210 HD
ENDBRANCH  22  25
BRANCH  21  27
ATOM     27  O2* UNL     1       2.577   8.236   0.091  0.00  0.00    -0.385 OA
ATOM     28  H2* UNL     1       3.378   8.607  -0.303  0.00  0.00    +0.210 HD
ENDBRANCH  21  27
BRANCH  23  29
ATOM     29  C5* UNL     1      -0.972  11.493  -0.025  0.00  0.00    +0.190 C 
BRANCH  29  30
ATOM     30  O5* UNL     1      -2.391  11.328  -0.017  0.00  0.00    -0.392 OA
ATOM     31  H5* UNL     1      -2.884  12.160  -0.043  0.00  0.00    +0.210 HD
ENDBRANCH  29  30
ENDBRANCH  23  29
ENDBRANCH   3  20
TORSDOF 7
