REMARK  Name = ZINC34747328
REMARK  8 active torsions:
REMARK  status: ('A' for Active; 'I' for Inactive)
REMARK    1  A    between atoms: C_1  and  C_2
REMARK    2  A    between atoms: C_5  and  C_9
REMARK    3  A    between atoms: C_6  and  C_8
REMARK    4  A    between atoms: C_9  and  N_10
REMARK    5  A    between atoms: N_29  and  C_30
REMARK    6  A    between atoms: C_30  and  C_31
REMARK    7  A    between atoms: C_33  and  C_38
REMARK    8  A    between atoms: C_36  and  C_37
REMARK                            x       y       z     vdW  Elec       q    Type
REMARK                         _______ _______ _______ _____ _____    ______ ____
ROOT
ATOM      1  N   UNL     1      -2.615  -4.207   1.761  0.00  0.00    +0.384 N 
ATOM      2  C   UNL     1      -3.507  -5.250   2.282  0.00  0.00    -0.059 C 
ATOM      3  C   UNL     1      -3.316  -6.536   1.472  0.00  0.00    +0.089 C 
ATOM      4  N   UNL     1      -3.514  -6.224   0.048  0.00  0.00    -0.304 N 
ATOM      5  C   UNL     1      -2.779  -5.084  -0.521  0.00  0.00    +0.089 C 
ATOM      6  C   UNL     1      -2.995  -3.866   0.384  0.00  0.00    -0.059 C 
ATOM      7  C   UNL     1      -4.361  -6.976  -0.728  0.00  0.00    +0.202 A 
ATOM      8  N   UNL     1      -5.212  -6.372  -1.533  0.00  0.00    -0.208 NA
ATOM      9  C   UNL     1      -6.042  -7.075  -2.295  0.00  0.00    +0.117 A 
ATOM     10  C   UNL     1      -6.058  -8.480  -2.284  0.00  0.00    +0.076 A 
ATOM     11  C   UNL     1      -7.029  -9.115  -3.177  0.00  0.00    -0.023 A 
ATOM     12  C   UNL     1      -7.806  -8.297  -3.917  0.00  0.00    -0.004 A 
ATOM     13  S   UNL     1      -7.300  -6.657  -3.476  0.00  0.00    -0.073 S 
ATOM     14  C   UNL     1      -8.867  -8.696  -4.898  0.00  0.00    +0.043 C 
ATOM     15  C   UNL     1      -8.694 -10.187  -5.219  0.00  0.00    +0.005 C 
ATOM     16  C   UNL     1      -8.528 -10.957  -3.906  0.00  0.00    +0.005 C 
ATOM     17  C   UNL     1      -7.172 -10.631  -3.280  0.00  0.00    +0.037 C 
ATOM     18  C   UNL     1      -5.123  -9.107  -1.401  0.00  0.00    +0.264 A 
ATOM     19  O   UNL     1      -5.064 -10.322  -1.325  0.00  0.00    -0.267 OA
ATOM     20  N   UNL     1      -4.306  -8.336  -0.660  0.00  0.00    -0.276 N 
ATOM     21  H   UNL     1      -1.665  -4.544   1.772  0.00  0.00    -0.081 HD
ENDROOT
BRANCH   1  22
ATOM     22  C   UNL     1      -2.719  -3.009   2.605  0.00  0.00    -0.043 C 
BRANCH  22  27
ATOM     23  C   UNL     1      -0.779  -4.226   7.911  0.00  0.00    +0.044 C 
ATOM     24  C   UNL     1      -1.285  -3.909   6.527  0.00  0.00    -0.050 A 
ATOM     25  C   UNL     1      -2.644  -3.889   6.276  0.00  0.00    +0.003 A 
ATOM     26  C   UNL     1      -3.108  -3.598   5.007  0.00  0.00    +0.002 A 
ATOM     27  C   UNL     1      -2.213  -3.326   3.989  0.00  0.00    -0.061 A 
ATOM     28  C   UNL     1      -0.854  -3.344   4.241  0.00  0.00    -0.049 A 
ATOM     29  C   UNL     1      -0.390  -3.631   5.511  0.00  0.00    +0.007 A 
ATOM     30  C   UNL     1       0.122  -3.048   3.131  0.00  0.00    +0.044 C 
ENDBRANCH  22  27
ENDBRANCH   1  22
BRANCH  20  31
ATOM     31  C   UNL     1      -3.343  -8.972   0.243  0.00  0.00    +0.163 C 
BRANCH  31  32
ATOM     32  C   UNL     1      -2.382  -9.812  -0.558  0.00  0.00    -0.024 A 
ATOM     33  C   UNL     1      -2.550 -11.183  -0.623  0.00  0.00    +0.009 A 
ATOM     34  C   UNL     1      -1.669 -11.953  -1.358  0.00  0.00    -0.050 A 
ATOM     35  C   UNL     1      -0.619 -11.353  -2.029  0.00  0.00    +0.003 A 
ATOM     36  C   UNL     1      -0.452  -9.982  -1.966  0.00  0.00    +0.004 A 
ATOM     37  C   UNL     1      -1.336  -9.211  -1.234  0.00  0.00    -0.046 A 
ATOM     38  C   UNL     1      -1.157  -7.716  -1.169  0.00  0.00    +0.044 C 
ATOM     39  C   UNL     1      -1.851 -13.447  -1.427  0.00  0.00    +0.044 C 
ENDBRANCH  31  32
ENDBRANCH  20  31
TORSDOF 4
