REMARK  Name = ZINC63289604
REMARK  9 active torsions:
REMARK  status: ('A' for Active; 'I' for Inactive)
REMARK    1  A    between atoms: C_2  and  C_3
REMARK    2  A    between atoms: C_3  and  N_4
REMARK    3  A    between atoms: C_5  and  C_23
REMARK    4  A    between atoms: C_9  and  S_11
REMARK    5  A    between atoms: S_11  and  C_12
REMARK    6  A    between atoms: C_12  and  C_13
REMARK    7  A    between atoms: N_15  and  C_16
REMARK    8  A    between atoms: C_16  and  C_17
REMARK    9  A    between atoms: C_23  and  C_24
REMARK                            x       y       z     vdW  Elec       q    Type
REMARK                         _______ _______ _______ _____ _____    ______ ____
ROOT
ATOM      1  N   UNL     1      -1.318  -1.702  -1.129  0.00  0.00    -0.257 NA
ATOM      2  C   UNL     1      -2.483  -2.607  -1.050  0.00  0.00    +0.145 C 
ATOM      3  N   UNL     1      -3.274  -2.385  -2.282  0.00  0.00    -0.237 NA
ATOM      4  N   UNL     1      -2.305  -1.845  -3.248  0.00  0.00    -0.229 NA
ATOM      5  C   UNL     1      -1.447  -0.967  -2.409  0.00  0.00    +0.200 C 
ATOM      6  H   UNL     1      -4.024  -1.730  -2.117  0.00  0.00    +0.142 HD
ATOM      7  H   UNL     1      -1.763  -2.584  -3.669  0.00  0.00    +0.143 HD
ENDROOT
BRANCH   1   8
ATOM      8  C   UNL     1      -1.293  -0.775   0.010  0.00  0.00    +0.115 C 
BRANCH   8  10
ATOM      9  C   UNL     1      -0.016   1.306   0.009  0.00  0.00    +0.005 C 
ATOM     10  C   UNL     1       0.002  -0.004   0.002  0.00  0.00    -0.019 C 
ENDBRANCH   8  10
ENDBRANCH   1   8
BRANCH   5  11
ATOM     11  S   UNL     1       0.179  -0.744  -3.180  0.00  0.00    -0.116 S 
BRANCH  11  12
ATOM     12  C   UNL     1       0.780  -2.436  -3.436  0.00  0.00    +0.167 C 
BRANCH  12  13
ATOM     13  C   UNL     1       2.142  -2.394  -4.080  0.00  0.00    +0.223 C 
ATOM     14  O   UNL     1       2.657  -1.327  -4.340  0.00  0.00    -0.275 OA
ATOM     15  N   UNL     1       2.788  -3.542  -4.366  0.00  0.00    -0.311 N 
ATOM     16  H   UNL     1       2.376  -4.395  -4.158  0.00  0.00    +0.149 HD
BRANCH  15  17
ATOM     17  C   UNL     1       4.112  -3.501  -4.992  0.00  0.00    +0.139 C 
BRANCH  17  18
ATOM     18  C   UNL     1       4.611  -4.907  -5.205  0.00  0.00    -0.030 A 
ATOM     19  C   UNL     1       5.345  -5.536  -4.218  0.00  0.00    +0.005 A 
ATOM     20  C   UNL     1       5.803  -6.826  -4.413  0.00  0.00    +0.000 A 
ATOM     21  C   UNL     1       5.525  -7.486  -5.595  0.00  0.00    +0.000 A 
ATOM     22  C   UNL     1       4.790  -6.857  -6.582  0.00  0.00    +0.000 A 
ATOM     23  C   UNL     1       4.328  -5.569  -6.385  0.00  0.00    +0.005 A 
ENDBRANCH  17  18
ENDBRANCH  15  17
ENDBRANCH  12  13
ENDBRANCH  11  12
ENDBRANCH   5  11
BRANCH   2  24
ATOM     24  C   UNL     1      -2.014  -4.062  -0.982  0.00  0.00    +0.069 C 
BRANCH  24  25
ATOM     25  C   UNL     1      -3.211  -4.973  -0.902  0.00  0.00    -0.039 C 
ATOM     26  C   UNL     1      -3.824  -5.603  -1.930  0.00  0.00    -0.001 A 
ATOM     27  C   UNL     1      -3.571  -5.626  -3.375  0.00  0.00    +0.010 A 
ATOM     28  C   UNL     1      -4.375  -6.367  -4.171  0.00  0.00    +0.001 A 
ATOM     29  C   UNL     1      -5.443  -7.111  -3.651  0.00  0.00    +0.002 A 
ATOM     30  C   UNL     1      -5.739  -7.140  -2.334  0.00  0.00    +0.026 A 
ATOM     31  C   UNL     1      -4.958  -6.397  -1.406  0.00  0.00    +0.043 A 
ATOM     32  N   UNL     1      -5.042  -6.264  -0.104  0.00  0.00    -0.380 N 
ATOM     33  C   UNL     1      -3.967  -5.374   0.345  0.00  0.00    +0.144 C 
ATOM     34  H   UNL     1      -5.703  -6.687   0.466  0.00  0.00    +0.160 HD
ENDBRANCH  24  25
ENDBRANCH   2  24
TORSDOF 9
