REMARK  Name = ZINC42789861
REMARK  7 active torsions:
REMARK  status: ('A' for Active; 'I' for Inactive)
REMARK    1  A    between atoms: C_6  and  C_10
REMARK    2  A    between atoms: C_10  and  S_11
REMARK    3  A    between atoms: S_11  and  C_12
REMARK    4  A    between atoms: C_15  and  C_18
REMARK    5  A    between atoms: N_20  and  C_21
REMARK    6  A    between atoms: C_21  and  C_22
REMARK    7  A    between atoms: C_21  and  C_25
REMARK                            x       y       z     vdW  Elec       q    Type
REMARK                         _______ _______ _______ _____ _____    ______ ____
ROOT
ATOM      1  C   UNL     1       5.838  -6.460  -1.987  0.00  0.00    +0.008 A 
ATOM      2  C   UNL     1       6.299  -7.541  -2.736  0.00  0.00    +0.015 A 
ATOM      3  C   UNL     1       6.845  -8.630  -2.107  0.00  0.00    +0.014 A 
ATOM      4  C   UNL     1       6.938  -8.656  -0.712  0.00  0.00    +0.037 A 
ATOM      5  C   UNL     1       6.474  -7.570   0.037  0.00  0.00    +0.014 A 
ATOM      6  C   UNL     1       5.934  -6.481  -0.598  0.00  0.00    +0.015 A 
ENDROOT
BRANCH   4   7
ATOM      7  C   UNL     1       7.523  -9.826  -0.032  0.00  0.00    +0.245 C 
ATOM      8  O   UNL     1       7.926 -10.770  -0.685  0.00  0.00    -0.270 OA
ATOM      9  N   UNL     1       7.612  -9.850   1.313  0.00  0.00    -0.293 N 
ATOM     10  H   UNL     1       7.291  -9.097   1.833  0.00  0.00    +0.150 HD
BRANCH   9  11
ATOM     11  C   UNL     1       8.194 -11.012   1.988  0.00  0.00    +0.245 C 
BRANCH  11  12
ATOM     12  C   UNL     1       8.740 -10.593   3.329  0.00  0.00    +0.240 C 
ATOM     13  O   UNL     1       8.273  -9.630   3.899  0.00  0.00    -0.273 OA
ATOM     14  N   UNL     1       9.746 -11.289   3.894  0.00  0.00    -0.327 N 
ATOM     15  H   UNL     1      10.168 -12.015   3.407  0.00  0.00    +0.145 HD
ATOM     16  H   UNL     1      10.049 -11.064   4.787  0.00  0.00    +0.145 HD
ENDBRANCH  11  12
BRANCH  11  17
ATOM     17  C   UNL     1       7.132 -12.063   2.184  0.00  0.00    +0.240 C 
ATOM     18  O   UNL     1       5.962 -11.744   2.217  0.00  0.00    -0.273 OA
ATOM     19  N   UNL     1       7.481 -13.357   2.322  0.00  0.00    -0.327 N 
ATOM     20  H   UNL     1       8.409 -13.622   2.225  0.00  0.00    +0.145 HD
ATOM     21  H   UNL     1       6.805 -14.024   2.519  0.00  0.00    +0.145 HD
ENDBRANCH  11  17
ENDBRANCH   9  11
ENDBRANCH   4   7
BRANCH   1  22
ATOM     22  S   UNL     1       5.139  -5.062  -2.799  0.00  0.00    -0.119 S 
BRANCH  22  23
ATOM     23  C   UNL     1       5.227  -5.488  -4.561  0.00  0.00    +0.131 C 
BRANCH  23  29
ATOM     24  C   UNL     1       2.268  -1.363  -7.750  0.00  0.00    +0.005 A 
ATOM     25  C   UNL     1       3.538  -0.770  -7.832  0.00  0.00    +0.018 A 
ATOM     26  C   UNL     1       4.601  -1.351  -7.237  0.00  0.00    +0.092 A 
ATOM     27  N   UNL     1       4.458  -2.522  -6.550  0.00  0.00    -0.306 N 
ATOM     28  C   UNL     1       5.346  -3.310  -5.869  0.00  0.00    +0.116 A 
ATOM     29  C   UNL     1       4.652  -4.361  -5.379  0.00  0.00    +0.070 A 
ATOM     30  N   UNL     1       3.373  -4.234  -5.742  0.00  0.00    -0.232 NA
ATOM     31  C   UNL     1       3.231  -3.125  -6.454  0.00  0.00    +0.138 A 
ATOM     32  C   UNL     1       2.111  -2.530  -7.069  0.00  0.00    +0.047 A 
ENDBRANCH  23  29
ENDBRANCH  22  23
ENDBRANCH   1  22
TORSDOF 7
