REMARK  Name = ZINC15441634
REMARK  11 active torsions:
REMARK  status: ('A' for Active; 'I' for Inactive)
REMARK    1  A    between atoms: C_1  and  C_2
REMARK    2  A    between atoms: C_2  and  C_3
REMARK    3  A    between atoms: C_3  and  C_30
REMARK    4  A    between atoms: N_6  and  N_10
REMARK    5  A    between atoms: C_11  and  C_13
REMARK    6  A    between atoms: C_13  and  N_52
REMARK    7  A    between atoms: C_14  and  N_52
REMARK    8  A    between atoms: C_15  and  C_16
REMARK    9  A    between atoms: C_15  and  N_52
REMARK   10  A    between atoms: N_18  and  C_19
REMARK   11  A    between atoms: C_23  and  C_25
REMARK                            x       y       z     vdW  Elec       q    Type
REMARK                         _______ _______ _______ _____ _____    ______ ____
ROOT
ATOM      1  C   UNL     1      -5.304   4.356  -2.644  0.00  0.00    -0.095 C 
ATOM      2  N   UNL     1      -4.325   5.435  -2.395  0.00  0.00    +0.389 N 
ATOM      3  H   UNL     1      -3.585   5.384  -3.106  0.00  0.00    -0.081 HD
ENDROOT
BRANCH   2   4
ATOM      4  C   UNL     1      -3.717   5.267  -1.058  0.00  0.00    +0.020 C 
BRANCH   4   6
ATOM      5  N   UNL     1      -2.188   3.666   0.046  0.00  0.00    -0.225 N 
ATOM      6  C   UNL     1      -2.865   4.024  -1.063  0.00  0.00    +0.213 C 
ATOM      7  O   UNL     1      -2.788   3.346  -2.066  0.00  0.00    -0.276 OA
ATOM      8  H   UNL     1      -2.249   4.208   0.848  0.00  0.00    +0.173 HD
BRANCH   5  12
ATOM      9  C   UNL     1       0.367   1.059   0.000  0.00  0.00    +0.111 C 
ATOM     10  C   UNL     1      -0.049   2.516  -0.016  0.00  0.00    +0.263 C 
ATOM     11  O   UNL     1       0.677   3.485  -0.069  0.00  0.00    -0.271 OA
ATOM     12  N   UNL     1      -1.396   2.510   0.040  0.00  0.00    -0.137 N 
ATOM     13  C   UNL     1      -1.883   1.265   0.085  0.00  0.00    +0.326 C 
ATOM     14  O   UNL     1      -3.069   1.005   0.135  0.00  0.00    -0.251 OA
ATOM     15  N   UNL     1      -0.913   0.333   0.071  0.00  0.00    -0.284 N 
ATOM     16  C   UNL     1       1.120   0.699  -1.282  0.00  0.00    +0.041 C 
ATOM     17  H   UNL     1      -1.033  -0.629   0.098  0.00  0.00    +0.151 HD
BRANCH   9  19
ATOM     18  C   UNL     1       1.541  -0.742   1.275  0.00  0.00    +0.006 C 
ATOM     19  C   UNL     1       1.227   0.755   1.230  0.00  0.00    +0.032 C 
ENDBRANCH   9  19
ENDBRANCH   5  12
ENDBRANCH   4   6
ENDBRANCH   2   4
BRANCH   2  20
ATOM     20  C   UNL     1      -4.989   6.752  -2.486  0.00  0.00    +0.019 C 
BRANCH  20  21
ATOM     21  C   UNL     1      -5.405   6.989  -3.915  0.00  0.00    +0.201 C 
ATOM     22  O   UNL     1      -5.186   6.145  -4.758  0.00  0.00    -0.278 OA
ATOM     23  N   UNL     1      -6.020   8.138  -4.256  0.00  0.00    -0.287 N 
ATOM     24  H   UNL     1      -6.263   8.780  -3.571  0.00  0.00    +0.155 HD
BRANCH  23  25
ATOM     25  C   UNL     1      -6.306   8.407  -5.600  0.00  0.00    +0.034 A 
ATOM     26  C   UNL     1      -5.450   7.958  -6.597  0.00  0.00    +0.025 A 
ATOM     27  C   UNL     1      -5.738   8.220  -7.922  0.00  0.00    +0.022 A 
ATOM     28  C   UNL     1      -6.873   8.938  -8.256  0.00  0.00    +0.053 A 
ATOM     29  C   UNL     1      -7.725   9.390  -7.264  0.00  0.00    +0.075 A 
ATOM     30  C   UNL     1      -7.445   9.127  -5.937  0.00  0.00    +0.037 A 
ATOM     31 CL   UNL     1      -7.228   9.271  -9.922  0.00  0.00    -0.083 Cl
BRANCH  29  32
ATOM     32  C   UNL     1      -8.961  10.171  -7.631  0.00  0.00    +0.419 C 
ATOM     33  F   UNL     1      -9.658  10.516  -6.468  0.00  0.00    -0.166 F 
ATOM     34  F   UNL     1      -8.591  11.334  -8.316  0.00  0.00    -0.166 F 
ATOM     35  F   UNL     1      -9.780   9.388  -8.451  0.00  0.00    -0.166 F 
ENDBRANCH  29  32
ENDBRANCH  23  25
ENDBRANCH  20  21
ENDBRANCH   2  20
TORSDOF 8
