REMARK  Name = ZINC19499318
REMARK  10 active torsions:
REMARK  status: ('A' for Active; 'I' for Inactive)
REMARK    1  A    between atoms: C_1  and  C_2
REMARK    2  A    between atoms: C_2  and  C_3
REMARK    3  A    between atoms: N_5  and  C_6
REMARK    4  A    between atoms: C_9  and  C_12
REMARK    5  A    between atoms: C_12  and  C_14
REMARK    6  A    between atoms: C_12  and  O_34
REMARK    7  A    between atoms: C_14  and  N_15
REMARK    8  A    between atoms: C_22  and  O_33
REMARK    9  A    between atoms: C_26  and  C_32
REMARK   10  A    between atoms: C_27  and  C_31
REMARK                            x       y       z     vdW  Elec       q    Type
REMARK                         _______ _______ _______ _____ _____    ______ ____
ROOT
ATOM      1  N   UNL     1      -6.491   5.370   1.383  0.00  0.00    +0.382 N 
ATOM      2  C   UNL     1      -7.535   4.470   0.878  0.00  0.00    -0.075 C 
ATOM      3  C   UNL     1      -8.888   5.184   0.916  0.00  0.00    +0.029 C 
ATOM      4  C   UNL     1      -9.198   5.606   2.353  0.00  0.00    +0.110 C 
ATOM      5  C   UNL     1      -8.071   6.498   2.876  0.00  0.00    +0.029 C 
ATOM      6  C   UNL     1      -6.742   5.744   2.781  0.00  0.00    -0.075 C 
ATOM      7  C   UNL     1     -10.520   6.381   2.385  0.00  0.00    +0.084 C 
ATOM      8  C   UNL     1     -11.607   5.504   1.757  0.00  0.00    +0.152 C 
ATOM      9  C   UNL     1     -11.549   4.120   2.352  0.00  0.00    +0.023 A 
ATOM     10  C   UNL     1     -12.649   3.290   2.216  0.00  0.00    +0.013 A 
ATOM     11  C   UNL     1     -12.628   2.014   2.743  0.00  0.00    -0.047 A 
ATOM     12  C   UNL     1     -11.505   1.559   3.410  0.00  0.00    -0.044 A 
ATOM     13  C   UNL     1     -10.406   2.382   3.550  0.00  0.00    +0.049 A 
ATOM     14  C   UNL     1     -10.424   3.669   3.021  0.00  0.00    +0.127 A 
ATOM     15  O   UNL     1      -9.325   4.451   3.181  0.00  0.00    -0.485 OA
ATOM     16  C   UNL     1     -11.481   0.166   3.984  0.00  0.00    +0.044 C 
ATOM     17  C   UNL     1     -13.829   1.116   2.591  0.00  0.00    +0.044 C 
ATOM     18  H   UNL     1      -6.521   6.289   0.780  0.00  0.00    -0.082 HD
ENDROOT
BRANCH   8  19
ATOM     19  O   UNL     1     -12.889   6.079   2.015  0.00  0.00    -0.387 OA
ATOM     20  H   UNL     1     -13.799   5.587   1.639  0.00  0.00    +0.210 HD
ENDBRANCH   8  19
BRANCH   1  21
ATOM     21  C   UNL     1      -5.159   4.770   1.230  0.00  0.00    -0.042 C 
BRANCH  21  22
ATOM     22  C   UNL     1      -4.971   4.307  -0.216  0.00  0.00    +0.128 C 
BRANCH  22  26
ATOM     23  C   UNL     1      -1.106   2.535  -0.654  0.00  0.00    +0.033 A 
ATOM     24  C   UNL     1      -1.242   3.917  -0.655  0.00  0.00    +0.023 A 
ATOM     25  C   UNL     1      -2.493   4.487  -0.518  0.00  0.00    +0.008 A 
ATOM     26  C   UNL     1      -3.608   3.682  -0.370  0.00  0.00    -0.021 A 
ATOM     27  C   UNL     1      -3.475   2.306  -0.363  0.00  0.00    +0.008 A 
ATOM     28  C   UNL     1      -2.228   1.730  -0.505  0.00  0.00    +0.023 A 
BRANCH  23  31
ATOM     29  C   UNL     1       1.094   2.559  -1.558  0.00  0.00    +0.217 C 
ATOM     30  O   UNL     1       0.813   3.558  -2.186  0.00  0.00    -0.275 OA
ATOM     31  N   UNL     1       0.159   1.956  -0.798  0.00  0.00    -0.286 N 
ATOM     32  H   UNL     1       0.390   1.007  -0.291  0.00  0.00    +0.155 HD
BRANCH  29  34
ATOM     33  C   UNL     1       3.346   2.859  -2.553  0.00  0.00    +0.013 C 
ATOM     34  C   UNL     1       2.489   1.992  -1.628  0.00  0.00    +0.093 C 
ENDBRANCH  29  34
ENDBRANCH  23  31
ENDBRANCH  22  26
BRANCH  22  35
ATOM     35  O   UNL     1      -5.083   5.429  -1.093  0.00  0.00    -0.389 OA
ATOM     36  H   UNL     1      -6.013   6.015  -1.121  0.00  0.00    +0.210 HD
ENDBRANCH  22  35
ENDBRANCH  21  22
ENDBRANCH   1  21
TORSDOF 7
