REMARK  Name = ZINC49192642
REMARK  9 active torsions:
REMARK  status: ('A' for Active; 'I' for Inactive)
REMARK    1  A    between atoms: C_1  and  C_2
REMARK    2  A    between atoms: C_2  and  C_3
REMARK    3  A    between atoms: C_3  and  N_4
REMARK    4  A    between atoms: C_5  and  C_7
REMARK    5  A    between atoms: C_7  and  C_9
REMARK    6  A    between atoms: C_7  and  N_10
REMARK    7  A    between atoms: N_10  and  S_11
REMARK    8  A    between atoms: S_11  and  C_14
REMARK    9  A    between atoms: C_17  and  N_21
REMARK                            x       y       z     vdW  Elec       q    Type
REMARK                         _______ _______ _______ _____ _____    ______ ____
ROOT
ATOM      1  S   UNL     1      -4.265  -6.158   0.727  0.00  0.00    +0.060 S 
ATOM      2  O   UNL     1      -5.616  -6.542   0.508  0.00  0.00    -0.153 OA
ATOM      3  O   UNL     1      -3.168  -6.951   0.295  0.00  0.00    -0.153 OA
ENDROOT
BRANCH   1   4
ATOM      4  C   UNL     1      -4.078  -5.943   2.466  0.00  0.00    +0.119 A 
ATOM      5  C   UNL     1      -3.021  -6.545   3.125  0.00  0.00    +0.031 A 
ATOM      6  C   UNL     1      -2.871  -6.379   4.488  0.00  0.00    +0.025 A 
ATOM      7  C   UNL     1      -3.783  -5.607   5.197  0.00  0.00    +0.026 A 
ATOM      8  C   UNL     1      -4.843  -5.003   4.532  0.00  0.00    +0.040 A 
ATOM      9  C   UNL     1      -4.984  -5.168   3.167  0.00  0.00    +0.046 A 
ATOM     10 BR   UNL     1      -6.422  -4.341   2.260  0.00  0.00    -0.048 Br
BRANCH   7  11
ATOM     11  N   UNL     1      -3.634  -5.438   6.575  0.00  0.00    -0.358 N 
ATOM     12  H   UNL     1      -2.894  -5.860   7.038  0.00  0.00    +0.142 HD
ATOM     13  H   UNL     1      -4.271  -4.898   7.069  0.00  0.00    +0.142 HD
ENDBRANCH   7  11
ENDBRANCH   1   4
BRANCH   1  14
ATOM     14  N   UNL     1      -4.078  -4.669   0.027  0.00  0.00    -0.178 NA
ATOM     15  H   UNL     1      -4.822  -4.254  -0.437  0.00  0.00    +0.149 HD
BRANCH  14  16
ATOM     16  C   UNL     1      -2.788  -3.979   0.107  0.00  0.00    +0.159 C 
ATOM     17  C   UNL     1      -1.981  -4.257  -1.162  0.00  0.00    +0.035 C 
BRANCH  16  19
ATOM     18  N   UNL     1      -1.970  -1.655   0.332  0.00  0.00    -0.314 N 
ATOM     19  C   UNL     1      -3.020  -2.495   0.240  0.00  0.00    +0.231 C 
ATOM     20  O   UNL     1      -4.151  -2.058   0.266  0.00  0.00    -0.274 OA
ATOM     21  H   UNL     1      -1.065  -2.005   0.311  0.00  0.00    +0.149 HD
BRANCH  18  22
ATOM     22  C   UNL     1      -2.195  -0.213   0.461  0.00  0.00    +0.104 C 
BRANCH  22  24
ATOM     23  C   UNL     1      -1.083   2.013   0.681  0.00  0.00    +0.005 C 
ATOM     24  C   UNL     1      -0.848   0.507   0.545  0.00  0.00    +0.015 C 
ENDBRANCH  22  24
ENDBRANCH  18  22
ENDBRANCH  16  19
ENDBRANCH  14  16
ENDBRANCH   1  14
TORSDOF 7
