REMARK  Name = ZINC01326557
REMARK  6 active torsions:
REMARK  status: ('A' for Active; 'I' for Inactive)
REMARK    1  A    between atoms: C_1  and  C_2
REMARK    2  A    between atoms: C_6  and  C_29
REMARK    3  A    between atoms: C_7  and  N_8
REMARK    4  A    between atoms: C_9  and  C_11
REMARK    5  A    between atoms: C_15  and  C_26
REMARK    6  A    between atoms: C_18  and  C_22
REMARK                            x       y       z     vdW  Elec       q    Type
REMARK                         _______ _______ _______ _____ _____    ______ ____
ROOT
ATOM      1  C   UNL     1      -0.450   0.088   4.829  0.00  0.00    +0.110 C 
ATOM      2  C   UNL     1      -0.452   1.438   4.953  0.00  0.00    +0.072 C 
ATOM      3  C   UNL     1      -0.652   1.742   6.369  0.00  0.00    +0.114 C 
ATOM      4  N   UNL     1      -0.716   2.893   6.976  0.00  0.00    -0.369 N 
ATOM      5  C   UNL     1      -0.889   2.922   8.434  0.00  0.00    +0.086 C 
ATOM      6  C   UNL     1      -1.718   1.725   8.900  0.00  0.00    +0.058 C 
ATOM      7  C   UNL     1      -1.034   0.419   8.464  0.00  0.00    +0.201 C 
ATOM      8  N   UNL     1      -0.782   0.522   7.022  0.00  0.00    -0.226 N 
ATOM      9  N   UNL     1      -0.642  -0.485   6.075  0.00  0.00    -0.258 N 
ATOM     10  H   UNL     1      -0.672  -1.437   6.258  0.00  0.00    +0.170 HD
ATOM     11  H   UNL     1      -0.650   3.719   6.472  0.00  0.00    +0.161 HD
ENDROOT
BRANCH   1  13
ATOM     12  N   UNL     1      -0.095   0.015   2.407  0.00  0.00    -0.280 N 
ATOM     13  C   UNL     1      -0.276  -0.655   3.562  0.00  0.00    +0.264 C 
ATOM     14  O   UNL     1      -0.296  -1.871   3.562  0.00  0.00    -0.268 OA
ATOM     15  H   UNL     1      -0.011   0.982   2.415  0.00  0.00    +0.155 HD
BRANCH  12  22
ATOM     16  C   UNL     1       2.449  -0.289   1.169  0.00  0.00    +0.045 C 
ATOM     17  C   UNL     1       1.193  -0.854   0.558  0.00  0.00    -0.029 A 
ATOM     18  C   UNL     1       1.255  -1.548  -0.634  0.00  0.00    +0.005 A 
ATOM     19  C   UNL     1       0.103  -2.067  -1.195  0.00  0.00    +0.001 A 
ATOM     20  C   UNL     1      -1.116  -1.893  -0.564  0.00  0.00    +0.005 A 
ATOM     21  C   UNL     1      -1.185  -1.200   0.628  0.00  0.00    -0.029 A 
ATOM     22  C   UNL     1      -0.029  -0.682   1.197  0.00  0.00    +0.040 A 
ATOM     23  C   UNL     1      -2.514  -1.010   1.314  0.00  0.00    +0.045 C 
ENDBRANCH  12  22
ENDBRANCH   1  13
BRANCH   7  24
ATOM     24  C   UNL     1      -1.952  -0.771   8.750  0.00  0.00    +0.410 C 
ATOM     25  F   UNL     1      -3.149  -0.617   8.042  0.00  0.00    -0.169 F 
ATOM     26  F   UNL     1      -1.321  -1.953   8.350  0.00  0.00    -0.169 F 
ATOM     27  F   UNL     1      -2.226  -0.829  10.121  0.00  0.00    -0.169 F 
ENDBRANCH   7  24
BRANCH   5  28
ATOM     28  C   UNL     1      -1.605   4.215   8.831  0.00  0.00    +0.011 C 
ATOM     29  C   UNL     1      -2.166   5.087   7.705  0.00  0.00    +0.006 C 
ATOM     30  C   UNL     1      -0.923   5.538   8.475  0.00  0.00    +0.006 C 
ENDBRANCH   5  28
TORSDOF 4
