REMARK  Name = ZINC34847412
REMARK  9 active torsions:
REMARK  status: ('A' for Active; 'I' for Inactive)
REMARK    1  A    between atoms: C_1  and  C_2
REMARK    2  A    between atoms: C_2  and  C_4
REMARK    3  A    between atoms: C_2  and  N_10
REMARK    4  A    between atoms: C_11  and  C_36
REMARK    5  A    between atoms: C_19  and  C_25
REMARK    6  A    between atoms: N_27  and  C_28
REMARK    7  A    between atoms: C_31  and  O_34
REMARK    8  A    between atoms: O_34  and  C_35
REMARK    9  A    between atoms: N_38  and  C_39
REMARK                            x       y       z     vdW  Elec       q    Type
REMARK                         _______ _______ _______ _____ _____    ______ ____
ROOT
ATOM      1  N   UNL     1      -1.397  -0.523   0.008  0.00  0.00    -0.280 N 
ATOM      2  C   UNL     1      -1.983  -1.487  -0.976  0.00  0.00    +0.199 C 
ATOM      3  C   UNL     1      -3.445  -1.180  -0.877  0.00  0.00    +0.127 C 
ATOM      4  C   UNL     1      -3.809   0.157  -1.497  0.00  0.00    +0.009 C 
ATOM      5  C   UNL     1      -5.119   0.281  -1.340  0.00  0.00    +0.004 C 
ATOM      6  C   UNL     1      -5.546  -0.970  -0.561  0.00  0.00    +0.155 C 
ATOM      7  O   UNL     1      -4.585  -1.980  -1.082  0.00  0.00    -0.358 OA
ATOM      8  C   UNL     1      -4.987  -0.667   0.884  0.00  0.00    +0.123 C 
ATOM      9  C   UNL     1      -3.517  -1.043   0.697  0.00  0.00    +0.128 C 
ATOM     10  C   UNL     1      -2.345  -0.185   0.944  0.00  0.00    +0.224 C 
ATOM     11  O   UNL     1      -2.238   0.659   1.807  0.00  0.00    -0.275 OA
ENDROOT
BRANCH   8  12
ATOM     12  C   UNL     1      -5.152   0.790   1.233  0.00  0.00    +0.224 C 
ATOM     13  O   UNL     1      -4.177   1.473   1.463  0.00  0.00    -0.275 OA
ATOM     14  N   UNL     1      -6.384   1.333   1.291  0.00  0.00    -0.285 N 
ATOM     15  H   UNL     1      -7.167   0.774   1.168  0.00  0.00    +0.155 HD
BRANCH  14  16
ATOM     16  C   UNL     1      -6.534   2.706   1.530  0.00  0.00    +0.034 A 
ATOM     17  C   UNL     1      -7.567   3.408   0.923  0.00  0.00    +0.027 A 
ATOM     18  C   UNL     1      -7.714   4.760   1.158  0.00  0.00    +0.047 A 
ATOM     19  C   UNL     1      -6.830   5.418   2.001  0.00  0.00    +0.120 A 
ATOM     20  C   UNL     1      -5.797   4.718   2.607  0.00  0.00    +0.047 A 
ATOM     21  C   UNL     1      -5.653   3.364   2.377  0.00  0.00    +0.027 A 
BRANCH  19  22
ATOM     22  O   UNL     1      -6.975   6.750   2.232  0.00  0.00    -0.495 OA
ATOM     23  C   UNL     1      -6.029   7.363   3.111  0.00  0.00    +0.277 C 
ENDBRANCH  19  22
ENDBRANCH  14  16
ENDBRANCH   8  12
BRANCH   2  24
ATOM     24  C   UNL     1      -1.468  -1.218  -2.366  0.00  0.00    +0.237 C 
ATOM     25  O   UNL     1      -0.968  -0.145  -2.630  0.00  0.00    -0.274 OA
ATOM     26  N   UNL     1      -1.563  -2.169  -3.316  0.00  0.00    -0.311 N 
ATOM     27  H   UNL     1      -1.963  -3.027  -3.105  0.00  0.00    +0.149 HD
BRANCH  26  28
ATOM     28  C   UNL     1      -1.062  -1.907  -4.668  0.00  0.00    +0.073 C 
ATOM     29  C   UNL     1      -2.143  -1.192  -5.482  0.00  0.00    +0.022 C 
ATOM     30  C   UNL     1      -1.620  -0.919  -6.894  0.00  0.00    +0.002 C 
ATOM     31  C   UNL     1      -1.263  -2.244  -7.571  0.00  0.00    +0.000 C 
ATOM     32  C   UNL     1      -0.182  -2.958  -6.757  0.00  0.00    +0.002 C 
ATOM     33  C   UNL     1      -0.705  -3.232  -5.345  0.00  0.00    +0.022 C 
ENDBRANCH  26  28
ENDBRANCH   2  24
BRANCH   1  35
ATOM     34  C   UNL     1       0.166   1.015   1.091  0.00  0.00    +0.033 C 
ATOM     35  C   UNL     1      -0.021  -0.021  -0.019  0.00  0.00    +0.104 C 
BRANCH  35  36
ATOM     36  C   UNL     1       0.936  -1.165   0.195  0.00  0.00    -0.027 A 
ATOM     37  C   UNL     1       0.689  -2.096   1.186  0.00  0.00    +0.005 A 
ATOM     38  C   UNL     1       1.566  -3.146   1.383  0.00  0.00    +0.000 A 
ATOM     39  C   UNL     1       2.691  -3.265   0.588  0.00  0.00    +0.000 A 
ATOM     40  C   UNL     1       2.938  -2.334  -0.404  0.00  0.00    +0.000 A 
ATOM     41  C   UNL     1       2.058  -1.287  -0.603  0.00  0.00    +0.005 A 
ENDBRANCH  35  36
ENDBRANCH   1  35
TORSDOF 7
