REMARK  Name = ZINC50226451
REMARK  8 active torsions:
REMARK  status: ('A' for Active; 'I' for Inactive)
REMARK    1  A    between atoms: C_1  and  C_2
REMARK    2  A    between atoms: C_5  and  C_7
REMARK    3  A    between atoms: C_7  and  N_8
REMARK    4  A    between atoms: N_8  and  C_9
REMARK    5  A    between atoms: C_12  and  S_16
REMARK    6  A    between atoms: C_14  and  N_15
REMARK    7  A    between atoms: S_16  and  N_19
REMARK    8  A    between atoms: N_19  and  C_20
REMARK                            x       y       z     vdW  Elec       q    Type
REMARK                         _______ _______ _______ _____ _____    ______ ____
ROOT
ATOM      1  C   UNL     1       1.698  -5.795  -1.677  0.00  0.00    +0.048 A 
ATOM      2  C   UNL     1       2.019  -6.647  -0.631  0.00  0.00    +0.027 A 
ATOM      3  C   UNL     1       2.500  -7.916  -0.896  0.00  0.00    +0.030 A 
ATOM      4  C   UNL     1       2.664  -8.339  -2.202  0.00  0.00    +0.107 A 
ATOM      5  C   UNL     1       2.347  -7.496  -3.251  0.00  0.00    +0.053 A 
ATOM      6  C   UNL     1       1.858  -6.224  -2.995  0.00  0.00    +0.048 A 
ENDROOT
BRANCH   6   7
ATOM      7  N   UNL     1       1.532  -5.370  -4.056  0.00  0.00    -0.356 N 
ATOM      8  H   UNL     1       1.193  -4.479  -3.875  0.00  0.00    +0.142 HD
ATOM      9  H   UNL     1       1.643  -5.670  -4.971  0.00  0.00    +0.142 HD
ENDBRANCH   6   7
BRANCH   4  10
ATOM     10  S   UNL     1       3.278  -9.958  -2.531  0.00  0.00    +0.058 S 
ATOM     11  O   UNL     1       3.855  -9.917  -3.829  0.00  0.00    -0.153 OA
ATOM     12  O   UNL     1       4.015 -10.353  -1.382  0.00  0.00    -0.153 OA
BRANCH  10  13
ATOM     13  N   UNL     1       1.970 -10.968  -2.625  0.00  0.00    -0.193 NA
ATOM     14  C   UNL     1       0.990 -10.800  -3.702  0.00  0.00    +0.127 C 
ATOM     15  H   UNL     1       1.852 -11.672  -1.968  0.00  0.00    +0.148 HD
ENDBRANCH  10  13
ENDBRANCH   4  10
BRANCH   1  16
ATOM     16  N   UNL     1       1.210  -4.510  -1.412  0.00  0.00    -0.338 N 
ATOM     17  H   UNL     1       0.983  -3.917  -2.144  0.00  0.00    +0.146 HD
BRANCH  16  18
ATOM     18  C   UNL     1       1.043  -4.062  -0.027  0.00  0.00    +0.144 C 
BRANCH  18  23
ATOM     19  C   UNL     1      -0.018   1.503   0.010  0.00  0.00    +0.051 C 
ATOM     20  C   UNL     1       0.002  -0.004   0.002  0.00  0.00    -0.013 A 
ATOM     21  C   UNL     1      -1.039  -0.872   0.002  0.00  0.00    +0.011 A 
ATOM     22  C   UNL     1      -0.780  -2.230  -0.007  0.00  0.00    +0.013 A 
ATOM     23  C   UNL     1       0.507  -2.653  -0.016  0.00  0.00    +0.007 A 
ATOM     24  S   UNL     1       1.404  -1.109  -0.018  0.00  0.00    -0.097 S 
ENDBRANCH  18  23
ENDBRANCH  16  18
ENDBRANCH   1  16
TORSDOF 6
