REMARK  Name = ZINC12508947
REMARK  8 active torsions:
REMARK  status: ('A' for Active; 'I' for Inactive)
REMARK    1  A    between atoms: C_1  and  O_2
REMARK    2  A    between atoms: O_2  and  C_3
REMARK    3  A    between atoms: C_6  and  S_9
REMARK    4  A    between atoms: S_9  and  C_10
REMARK    5  A    between atoms: C_13  and  C_25
REMARK    6  A    between atoms: C_16  and  C_17
REMARK    7  A    between atoms: C_16  and  N_59
REMARK    8  A    between atoms: N_27  and  C_28
REMARK                            x       y       z     vdW  Elec       q    Type
REMARK                         _______ _______ _______ _____ _____    ______ ____
ROOT
ATOM      1  C   UNL     1      -4.017   2.679   0.054  0.00  0.00    +0.034 C 
ATOM      2  C   UNL     1      -5.437   3.280   0.018  0.00  0.00    +0.006 C 
ATOM      3  C   UNL     1      -6.109   2.798   1.321  0.00  0.00    +0.021 C 
ATOM      4  C   UNL     1      -3.950   1.885   1.376  0.00  0.00    -0.063 C 
ATOM      5  N   UNL     1      -5.351   1.592   1.672  0.00  0.00    +0.391 N 
ATOM      6  H   UNL     1      -5.670   0.798   1.104  0.00  0.00    -0.080 HD
ENDROOT
BRANCH   3   7
ATOM      7  C   UNL     1      -7.562   2.482   1.078  0.00  0.00    +0.200 C 
ATOM      8  O   UNL     1      -7.963   1.343   1.197  0.00  0.00    -0.278 OA
ATOM      9  N   UNL     1      -8.416   3.464   0.727  0.00  0.00    -0.312 N 
ATOM     10  H   UNL     1      -8.095   4.374   0.632  0.00  0.00    +0.149 HD
BRANCH   9  11
ATOM     11  C   UNL     1      -9.829   3.156   0.490  0.00  0.00    +0.095 C 
ATOM     12  C   UNL     1     -10.681   4.415   0.725  0.00  0.00    +0.046 C 
ATOM     13  C   UNL     1     -12.111   4.194   0.175  0.00  0.00    +0.168 C 
ATOM     14  S   UNL     1     -11.839   2.981  -1.180  0.00  0.00    -0.029 S 
ATOM     15  O   UNL     1     -12.527   1.777  -0.868  0.00  0.00    -0.174 OA
ATOM     16  O   UNL     1     -12.079   3.620  -2.427  0.00  0.00    -0.174 OA
ATOM     17  C   UNL     1     -10.028   2.705  -0.985  0.00  0.00    +0.188 C 
ENDBRANCH   9  11
ENDBRANCH   3   7
BRANCH   1  18
ATOM     18  S   UNL     1      -2.773   4.000   0.049  0.00  0.00    -0.124 S 
BRANCH  18  22
ATOM     19  C   UNL     1       1.179   1.785   0.000  0.00  0.00    +0.120 A 
ATOM     20  C   UNL     1      -0.013   1.076   0.008  0.00  0.00    +0.047 A 
ATOM     21  C   UNL     1      -1.218   1.750   0.017  0.00  0.00    +0.018 A 
ATOM     22  C   UNL     1      -1.236   3.139   0.030  0.00  0.00    +0.008 A 
ATOM     23  C   UNL     1      -0.042   3.848   0.022  0.00  0.00    +0.018 A 
ATOM     24  C   UNL     1       1.162   3.172   0.007  0.00  0.00    +0.047 A 
BRANCH  19  26
ATOM     25  C   UNL     1       3.554   1.915  -0.022  0.00  0.00    +0.277 C 
ATOM     26  O   UNL     1       2.366   1.121  -0.015  0.00  0.00    -0.495 OA
ENDBRANCH  19  26
ENDBRANCH  18  22
ENDBRANCH   1  18
BRANCH   5  27
ATOM     27  C   UNL     1      -5.531   1.263   3.121  0.00  0.00    -0.038 C 
BRANCH  27  28
ATOM     28  C   UNL     1      -5.344   2.522   3.927  0.00  0.00    -0.010 A 
ATOM     29  C   UNL     1      -6.431   3.331   4.211  0.00  0.00    +0.126 A 
ATOM     30  C   UNL     1      -6.258   4.488   4.952  0.00  0.00    +0.038 A 
ATOM     31  C   UNL     1      -5.000   4.835   5.408  0.00  0.00    +0.004 A 
ATOM     32  C   UNL     1      -3.914   4.028   5.124  0.00  0.00    +0.020 A 
ATOM     33  C   UNL     1      -4.087   2.868   4.388  0.00  0.00    +0.045 A 
ATOM     34 CL   UNL     1      -2.724   1.852   4.039  0.00  0.00    -0.083 Cl
ATOM     35  F   UNL     1      -7.661   2.991   3.766  0.00  0.00    -0.205 F 
ENDBRANCH  27  28
ENDBRANCH   5  27
TORSDOF 7
