REMARK  Name = ZINC66925087
REMARK  10 active torsions:
REMARK  status: ('A' for Active; 'I' for Inactive)
REMARK    1  A    between atoms: C_1  and  N_2
REMARK    2  A    between atoms: N_2  and  C_3
REMARK    3  A    between atoms: N_2  and  C_22
REMARK    4  A    between atoms: C_3  and  C_4
REMARK    5  A    between atoms: C_4  and  C_5
REMARK    6  A    between atoms: C_5  and  N_6
REMARK    7  A    between atoms: N_9  and  C_10
REMARK    8  A    between atoms: C_10  and  C_11
REMARK    9  A    between atoms: C_11  and  O_21
REMARK   10  A    between atoms: C_22  and  C_23
REMARK                            x       y       z     vdW  Elec       q    Type
REMARK                         _______ _______ _______ _____ _____    ______ ____
ROOT
ATOM      1  N   UNL     1       4.965  -0.858   2.018  0.00  0.00    -0.299 N 
ATOM      2  C   UNL     1       5.845  -1.133   3.001  0.00  0.00    +0.300 C 
ATOM      3  O   UNL     1       5.447  -1.503   4.088  0.00  0.00    -0.253 OA
ATOM      4  N   UNL     1       7.168  -0.997   2.778  0.00  0.00    -0.296 N 
ATOM      5  H   UNL     1       5.283  -0.563   1.150  0.00  0.00    +0.150 HD
ATOM      6  H   UNL     1       7.486  -0.702   1.911  0.00  0.00    +0.150 HD
ENDROOT
BRANCH   1   7
ATOM      7  C   UNL     1       3.527  -1.006   2.260  0.00  0.00    +0.104 C 
BRANCH   7   8
ATOM      8  C   UNL     1       2.756  -0.634   0.992  0.00  0.00    +0.000 C 
BRANCH   8   9
ATOM      9  C   UNL     1       1.255  -0.788   1.244  0.00  0.00    -0.077 C 
BRANCH   9  11
ATOM     10  C   UNL     1       0.715   0.994  -0.268  0.00  0.00    -0.096 C 
ATOM     11  N   UNL     1       0.514  -0.431   0.027  0.00  0.00    +0.384 N 
ATOM     12  H   UNL     1       0.851  -0.985  -0.746  0.00  0.00    -0.082 HD
BRANCH  11  13
ATOM     13  C   UNL     1      -0.917  -0.693   0.230  0.00  0.00    +0.036 C 
BRANCH  13  14
ATOM     14  C   UNL     1      -1.675  -0.416  -1.070  0.00  0.00    +0.376 C 
ATOM     15  F   UNL     1      -1.088  -1.137  -2.115  0.00  0.00    -0.173 F 
ATOM     16  F   UNL     1      -3.010  -0.809  -0.924  0.00  0.00    -0.173 F 
ATOM     17  F   UNL     1      -1.621   0.952  -1.359  0.00  0.00    -0.173 F 
ENDBRANCH  13  14
ENDBRANCH  11  13
ENDBRANCH   9  11
ENDBRANCH   8   9
ENDBRANCH   7   8
ENDBRANCH   1   7
BRANCH   4  18
ATOM     18  C   UNL     1       8.124  -1.296   3.846  0.00  0.00    +0.145 C 
BRANCH  18  19
ATOM     19  C   UNL     1       9.539  -0.955   3.374  0.00  0.00    +0.107 C 
ATOM     20  C   UNL     1       9.853  -1.751   2.108  0.00  0.00    +0.041 C 
ATOM     21  C   UNL     1      11.338  -1.566   1.776  0.00  0.00    +0.008 C 
ATOM     22  C   UNL     1      12.163  -2.302   2.830  0.00  0.00    +0.035 C 
ATOM     23  C   UNL     1      11.728  -1.903   4.216  0.00  0.00    -0.041 A 
ATOM     24  C   UNL     1      10.522  -1.288   4.466  0.00  0.00    -0.011 A 
ATOM     25  C   UNL     1      10.178  -0.952   5.769  0.00  0.00    +0.007 A 
ATOM     26  C   UNL     1      11.037  -1.226   6.813  0.00  0.00    +0.000 A 
ATOM     27  C   UNL     1      12.250  -1.840   6.562  0.00  0.00    +0.000 A 
ATOM     28  C   UNL     1      12.592  -2.176   5.268  0.00  0.00    +0.004 A 
BRANCH  19  29
ATOM     29  O   UNL     1       9.615   0.442   3.082  0.00  0.00    -0.382 OA
ATOM     30  H   UNL     1       9.419   1.013   3.837  0.00  0.00    +0.211 HD
ENDBRANCH  19  29
ENDBRANCH  18  19
ENDBRANCH   4  18
TORSDOF 9
