REMARK  Name = ZINC28295725
REMARK  9 active torsions:
REMARK  status: ('A' for Active; 'I' for Inactive)
REMARK    1  A    between atoms: C_7  and  C_20
REMARK    2  A    between atoms: N_9  and  C_10
REMARK    3  A    between atoms: C_10  and  C_11
REMARK    4  A    between atoms: C_11  and  C_13
REMARK    5  A    between atoms: C_11  and  O_19
REMARK    6  A    between atoms: C_13  and  N_14
REMARK    7  A    between atoms: N_14  and  C_15
REMARK    8  A    between atoms: C_15  and  C_16
REMARK    9  A    between atoms: N_21  and  N_22
REMARK                            x       y       z     vdW  Elec       q    Type
REMARK                         _______ _______ _______ _____ _____    ______ ____
ROOT
ATOM      1  C   UNL     1      -1.227   1.747   0.017  0.00  0.00    +0.001 A 
ATOM      2  C   UNL     1      -0.013   1.076   0.008  0.00  0.00    +0.002 A 
ATOM      3  C   UNL     1       1.175   1.774   0.000  0.00  0.00    +0.026 A 
ATOM      4  C   UNL     1       1.159   3.166   0.007  0.00  0.00    +0.050 A 
ATOM      5  C   UNL     1      -0.075   3.838   0.022  0.00  0.00    +0.008 A 
ATOM      6  C   UNL     1      -1.265   3.113   0.031  0.00  0.00    +0.010 A 
ATOM      7  C   UNL     1       0.247   5.276   0.027  0.00  0.00    +0.020 A 
ATOM      8  C   UNL     1       1.604   5.371   0.015  0.00  0.00    +0.096 A 
ATOM      9  N   UNL     1       2.151   4.122   0.003  0.00  0.00    -0.344 N 
ENDROOT
BRANCH   7  10
ATOM     10  C   UNL     1      -0.713   6.393   0.040  0.00  0.00    +0.140 C 
ATOM     11  N   UNL     1      -1.989   6.152   0.051  0.00  0.00    -0.186 NA
BRANCH  11  12
ATOM     12  N   UNL     1      -2.902   7.214   0.064  0.00  0.00    -0.191 N 
ATOM     13  C   UNL     1      -4.226   6.964   0.074  0.00  0.00    +0.317 C 
ATOM     14  O   UNL     1      -5.019   7.886   0.086  0.00  0.00    -0.251 OA
ATOM     15  N   UNL     1      -4.672   5.692   0.073  0.00  0.00    -0.312 N 
ATOM     16  H   UNL     1      -2.538   8.252   0.065  0.00  0.00    +0.179 HD
ATOM     17  H   UNL     1      -5.753   5.488   0.082  0.00  0.00    +0.147 HD
ATOM     18  H   UNL     1      -3.955   4.858   0.062  0.00  0.00    +0.147 HD
ENDBRANCH  11  12
ENDBRANCH   7  10
BRANCH   9  19
ATOM     19  C   UNL     1       3.588   3.838  -0.012  0.00  0.00    +0.151 C 
BRANCH  19  20
ATOM     20  C   UNL     1       4.050   3.623  -1.455  0.00  0.00    +0.117 C 
BRANCH  20  21
ATOM     21  O   UNL     1       3.427   2.451  -1.985  0.00  0.00    -0.392 OA
ATOM     22  H   UNL     1       3.640   2.135  -3.017  0.00  0.00    +0.210 HD
ENDBRANCH  20  21
BRANCH  20  23
ATOM     23  C   UNL     1       5.570   3.450  -1.483  0.00  0.00    -0.048 C 
BRANCH  23  24
ATOM     24  N   UNL     1       6.027   3.364  -2.877  0.00  0.00    +0.388 N 
ATOM     25  H   UNL     1       5.551   2.501  -3.366  0.00  0.00    -0.085 HD
ATOM     26  H   UNL     1       5.753   4.286  -3.410  0.00  0.00    -0.085 HD
BRANCH  24  27
ATOM     27  C   UNL     1       7.485   3.196  -2.943  0.00  0.00    +0.045 C 
BRANCH  27  28
ATOM     28  C   UNL     1       7.916   3.112  -4.385  0.00  0.00    +0.340 C 
ATOM     29  O   UNL     1       7.093   3.183  -5.266  0.00  0.00    -0.249 OA
ATOM     30  O   UNL     1       9.214   2.957  -4.689  0.00  0.00    -0.249 OA
ENDBRANCH  27  28
ENDBRANCH  24  27
ENDBRANCH  23  24
ENDBRANCH  20  23
ENDBRANCH  19  20
ENDBRANCH   9  19
TORSDOF 9
