REMARK  Name = ZINC06970756
REMARK  6 active torsions:
REMARK  status: ('A' for Active; 'I' for Inactive)
REMARK    1  A    between atoms: C_3  and  S_19
REMARK    2  A    between atoms: C_6  and  N_7
REMARK    3  A    between atoms: N_7  and  C_8
REMARK    4  A    between atoms: C_8  and  N_10
REMARK    5  A    between atoms: N_10  and  C_11
REMARK    6  A    between atoms: S_19  and  N_22
REMARK                            x       y       z     vdW  Elec       q    Type
REMARK                         _______ _______ _______ _____ _____    ______ ____
ROOT
ATOM      1  N   UNL     1       1.116   3.561  -0.277  0.00  0.00    -0.297 N 
ATOM      2  H   UNL     1       0.278   4.036  -0.156  0.00  0.00    +0.154 HD
ENDROOT
BRANCH   1   8
ATOM      3  C   UNL     1       2.034   1.351   0.048  0.00  0.00    +0.025 A 
ATOM      4  C   UNL     1       2.025  -0.001  -0.232  0.00  0.00    +0.030 A 
ATOM      5  C   UNL     1       1.096  -0.519  -1.117  0.00  0.00    +0.105 A 
ATOM      6  C   UNL     1       0.174   0.315  -1.723  0.00  0.00    +0.030 A 
ATOM      7  C   UNL     1       0.178   1.668  -1.446  0.00  0.00    +0.025 A 
ATOM      8  C   UNL     1       1.109   2.191  -0.559  0.00  0.00    +0.033 A 
BRANCH   5   9
ATOM      9  S   UNL     1       1.089  -2.244  -1.473  0.00  0.00    +0.056 S 
ATOM     10  O   UNL     1       0.476  -2.394  -2.746  0.00  0.00    -0.153 OA
ATOM     11  O   UNL     1       2.399  -2.722  -1.198  0.00  0.00    -0.153 OA
BRANCH   9  12
ATOM     12  N   UNL     1       0.081  -2.966  -0.375  0.00  0.00    -0.204 NA
ATOM     13  H   UNL     1      -0.368  -2.430   0.297  0.00  0.00    +0.144 HD
ATOM     14  H   UNL     1      -0.059  -3.926  -0.404  0.00  0.00    +0.144 HD
ENDBRANCH   9  12
ENDBRANCH   5   9
ENDBRANCH   1   8
BRANCH   1  15
ATOM     15  C   UNL     1       2.285   4.222  -0.172  0.00  0.00    +0.139 C 
ATOM     16  S   UNL     1       3.756   3.421  -0.527  0.00  0.00    -0.018 S 
BRANCH  15  17
ATOM     17  N   UNL     1       2.297   5.514   0.212  0.00  0.00    -0.297 N 
ATOM     18  H   UNL     1       1.475   5.944   0.494  0.00  0.00    +0.154 HD
BRANCH  17  19
ATOM     19  C   UNL     1       3.497   6.236   0.205  0.00  0.00    +0.034 A 
ATOM     20  C   UNL     1       3.790   7.108   1.245  0.00  0.00    +0.026 A 
ATOM     21  C   UNL     1       4.978   7.814   1.239  0.00  0.00    +0.041 A 
ATOM     22  C   UNL     1       5.870   7.662   0.192  0.00  0.00    +0.142 A 
ATOM     23  C   UNL     1       5.577   6.797  -0.850  0.00  0.00    +0.078 A 
ATOM     24  C   UNL     1       4.393   6.084  -0.845  0.00  0.00    +0.046 A 
ATOM     25 CL   UNL     1       6.698   6.608  -2.162  0.00  0.00    -0.081 Cl
ATOM     26  F   UNL     1       7.028   8.358   0.186  0.00  0.00    -0.204 F 
ENDBRANCH  17  19
ENDBRANCH  15  17
ENDBRANCH   1  15
TORSDOF 6
