REMARK  Name = ZINC07690588
REMARK  10 active torsions:
REMARK  status: ('A' for Active; 'I' for Inactive)
REMARK    1  A    between atoms: C_1  and  C_2
REMARK    2  A    between atoms: C_2  and  C_3
REMARK    3  A    between atoms: C_8  and  N_9
REMARK    4  A    between atoms: C_10  and  C_12
REMARK    5  A    between atoms: C_12  and  N_13
REMARK    6  A    between atoms: C_14  and  C_16
REMARK    7  A    between atoms: C_16  and  N_52
REMARK    8  A    between atoms: C_17  and  N_52
REMARK    9  A    between atoms: C_18  and  C_19
REMARK   10  A    between atoms: C_18  and  N_52
REMARK                            x       y       z     vdW  Elec       q    Type
REMARK                         _______ _______ _______ _____ _____    ______ ____
ROOT
ATOM      1  N   UNL     1      -0.831   0.792  -4.791  0.00  0.00    -0.308 N 
ATOM      2  C   UNL     1      -1.100   1.284  -3.566  0.00  0.00    +0.197 C 
ATOM      3  O   UNL     1      -2.070   1.992  -3.396  0.00  0.00    -0.278 OA
ATOM      4  H   UNL     1      -0.055   0.226  -4.926  0.00  0.00    +0.149 HD
ENDROOT
BRANCH   1   5
ATOM      5  C   UNL     1      -1.709   1.112  -5.918  0.00  0.00    +0.200 C 
BRANCH   5   7
ATOM      6  N   UNL     1      -1.843   0.599  -8.335  0.00  0.00    -0.284 N 
ATOM      7  C   UNL     1      -1.190   0.444  -7.165  0.00  0.00    +0.234 C 
ATOM      8  O   UNL     1      -0.186  -0.234  -7.117  0.00  0.00    -0.274 OA
ATOM      9  H   UNL     1      -2.689   1.073  -8.359  0.00  0.00    +0.155 HD
BRANCH   6  15
ATOM     10  C   UNL     1      -2.129  -0.233 -10.584  0.00  0.00    -0.026 A 
ATOM     11  C   UNL     1      -1.591  -0.749 -11.746  0.00  0.00    +0.005 A 
ATOM     12  C   UNL     1      -0.227  -0.959 -11.845  0.00  0.00    +0.000 A 
ATOM     13  C   UNL     1       0.601  -0.652 -10.780  0.00  0.00    +0.002 A 
ATOM     14  C   UNL     1       0.069  -0.131  -9.617  0.00  0.00    +0.023 A 
ATOM     15  C   UNL     1      -1.300   0.075  -9.513  0.00  0.00    +0.037 A 
BRANCH  10  17
ATOM     16  C   UNL     1      -3.934   1.448 -10.839  0.00  0.00    +0.009 C 
ATOM     17  C   UNL     1      -3.615  -0.004 -10.478  0.00  0.00    +0.033 C 
ENDBRANCH  10  17
ENDBRANCH   6  15
ENDBRANCH   5   7
ENDBRANCH   1   5
BRANCH   2  18
ATOM     18  C   UNL     1      -0.197   0.955  -2.406  0.00  0.00    +0.019 C 
BRANCH  18  20
ATOM     19  C   UNL     1      -0.611   3.068  -1.300  0.00  0.00    -0.095 C 
ATOM     20  N   UNL     1      -0.730   1.599  -1.187  0.00  0.00    +0.388 N 
ATOM     21  H   UNL     1      -1.721   1.352  -1.086  0.00  0.00    -0.081 HD
BRANCH  20  22
ATOM     22  C   UNL     1       0.008   1.122   0.001  0.00  0.00    -0.015 C 
BRANCH  22  23
ATOM     23  C   UNL     1      -0.692   1.619   1.240  0.00  0.00    +0.063 A 
ATOM     24  N   UNL     1      -1.651   1.046   1.911  0.00  0.00    -0.246 NA
ATOM     25  C   UNL     1      -2.195   1.601   3.014  0.00  0.00    +0.078 A 
ATOM     26  C   UNL     1      -3.229   1.109   3.841  0.00  0.00    +0.029 A 
ATOM     27  C   UNL     1      -3.651   1.817   4.923  0.00  0.00    +0.002 A 
ATOM     28  C   UNL     1      -3.088   3.042   5.255  0.00  0.00    +0.001 A 
ATOM     29  C   UNL     1      -2.073   3.558   4.471  0.00  0.00    +0.017 A 
ATOM     30  C   UNL     1      -1.640   2.849   3.377  0.00  0.00    +0.039 A 
ATOM     31  S   UNL     1      -0.410   3.089   2.120  0.00  0.00    -0.074 S 
ENDBRANCH  22  23
ENDBRANCH  20  22
ENDBRANCH  18  20
ENDBRANCH   2  18
TORSDOF 8
