REMARK  Name = ZINC36954807
REMARK  6 active torsions:
REMARK  status: ('A' for Active; 'I' for Inactive)
REMARK    1  A    between atoms: C_1  and  C_2
REMARK    2  A    between atoms: C_2  and  C_4
REMARK    3  A    between atoms: C_2  and  N_14
REMARK    4  A    between atoms: C_7  and  S_10
REMARK    5  A    between atoms: S_10  and  N_13
REMARK    6  A    between atoms: N_14  and  C_15
REMARK                            x       y       z     vdW  Elec       q    Type
REMARK                         _______ _______ _______ _____ _____    ______ ____
ROOT
ATOM      1  C   UNL     1      -0.224   1.437   0.026  0.00  0.00    -0.009 C 
ATOM      2  C   UNL     1      -0.034  -0.081  -0.002  0.00  0.00    -0.044 C 
ENDROOT
BRANCH   2   3
ATOM      3  C   UNL     1       0.625  -0.481  -1.296  0.00  0.00    -0.062 A 
ATOM      4  C   UNL     1       1.993  -0.348  -1.446  0.00  0.00    +0.004 A 
ATOM      5  C   UNL     1       2.598  -0.715  -2.633  0.00  0.00    +0.029 A 
ATOM      6  C   UNL     1       1.835  -1.216  -3.671  0.00  0.00    +0.105 A 
ATOM      7  C   UNL     1       0.468  -1.351  -3.522  0.00  0.00    +0.029 A 
ATOM      8  C   UNL     1      -0.137  -0.987  -2.333  0.00  0.00    +0.004 A 
BRANCH   6   9
ATOM      9  S   UNL     1       2.606  -1.683  -5.185  0.00  0.00    +0.056 S 
ATOM     10  O   UNL     1       1.604  -1.611  -6.190  0.00  0.00    -0.153 OA
ATOM     11  O   UNL     1       3.820  -0.950  -5.266  0.00  0.00    -0.153 OA
BRANCH   9  12
ATOM     12  N   UNL     1       3.026  -3.279  -5.049  0.00  0.00    -0.204 NA
ATOM     13  H   UNL     1       3.051  -3.843  -5.838  0.00  0.00    +0.144 HD
ATOM     14  H   UNL     1       3.246  -3.650  -4.180  0.00  0.00    +0.144 HD
ENDBRANCH   9  12
ENDBRANCH   6   9
ENDBRANCH   2   3
BRANCH   2  15
ATOM     15  N   UNL     1       0.814  -0.489   1.126  0.00  0.00    +0.385 N 
ATOM     16  H   UNL     1       1.016  -1.475   1.056  0.00  0.00    -0.085 HD
ATOM     17  H   UNL     1       1.677   0.033   1.105  0.00  0.00    -0.085 HD
BRANCH  15  18
ATOM     18  C   UNL     1       0.111  -0.222   2.389  0.00  0.00    -0.071 C 
ATOM     19  C   UNL     1       1.093  -0.430   3.560  0.00  0.00    -0.016 C 
ATOM     20  C   UNL     1       0.568   0.309   4.761  0.00  0.00    -0.002 C 
ATOM     21  C   UNL     1      -0.277  -0.589   5.684  0.00  0.00    -0.000 C 
ATOM     22  C   UNL     1      -1.222  -1.524   4.905  0.00  0.00    -0.000 C 
ATOM     23  C   UNL     1      -1.887  -0.835   3.744  0.00  0.00    -0.002 C 
ATOM     24  C   UNL     1      -1.050  -1.095   2.475  0.00  0.00    -0.016 C 
ENDBRANCH  15  18
ENDBRANCH   2  15
TORSDOF 5
