REMARK  Name = ZINC06822267
REMARK  10 active torsions:
REMARK  status: ('A' for Active; 'I' for Inactive)
REMARK    1  A    between atoms: C_1  and  C_2
REMARK    2  A    between atoms: C_6  and  N_9
REMARK    3  A    between atoms: C_7  and  C_8
REMARK    4  A    between atoms: N_9  and  C_10
REMARK    5  A    between atoms: C_10  and  N_12
REMARK    6  A    between atoms: N_12  and  C_13
REMARK    7  A    between atoms: C_13  and  C_15
REMARK    8  A    between atoms: C_13  and  C_16
REMARK    9  A    between atoms: C_19  and  S_22
REMARK   10  A    between atoms: S_22  and  N_25
REMARK                            x       y       z     vdW  Elec       q    Type
REMARK                         _______ _______ _______ _____ _____    ______ ____
ROOT
ATOM      1  N   UNL     1      -3.322   4.588   5.094  0.00  0.00    -0.320 N 
ATOM      2  H   UNL     1      -2.961   5.060   4.327  0.00  0.00    +0.148 HD
ENDROOT
BRANCH   1   3
ATOM      3  C   UNL     1      -4.392   5.082   5.747  0.00  0.00    +0.135 C 
ATOM      4  S   UNL     1      -5.029   4.250   7.100  0.00  0.00    -0.019 S 
BRANCH   3   5
ATOM      5  N   UNL     1      -4.961   6.232   5.334  0.00  0.00    -0.297 N 
ATOM      6  H   UNL     1      -4.554   6.745   4.618  0.00  0.00    +0.154 HD
BRANCH   5  12
ATOM      7  C   UNL     1      -7.580   9.921   7.259  0.00  0.00    +0.044 C 
ATOM      8  C   UNL     1      -7.435   8.469   6.882  0.00  0.00    -0.046 A 
ATOM      9  C   UNL     1      -8.467   7.584   7.134  0.00  0.00    +0.004 A 
ATOM     10  C   UNL     1      -8.338   6.251   6.789  0.00  0.00    +0.002 A 
ATOM     11  C   UNL     1      -7.177   5.800   6.192  0.00  0.00    +0.023 A 
ATOM     12  C   UNL     1      -6.138   6.686   5.938  0.00  0.00    +0.036 A 
ATOM     13  C   UNL     1      -6.269   8.024   6.290  0.00  0.00    -0.026 A 
ATOM     14  C   UNL     1      -5.143   8.988   6.022  0.00  0.00    +0.046 C 
ENDBRANCH   5  12
ENDBRANCH   3   5
ENDBRANCH   1   3
BRANCH   1  15
ATOM     15  C   UNL     1      -2.703   3.338   5.542  0.00  0.00    +0.099 C 
ATOM     16  C   UNL     1      -1.700   3.637   6.658  0.00  0.00    +0.033 C 
BRANCH  15  17
ATOM     17  C   UNL     1      -1.989   2.688   4.386  0.00  0.00    -0.027 A 
ATOM     18  C   UNL     1      -2.046   1.317   4.220  0.00  0.00    +0.007 A 
ATOM     19  C   UNL     1      -1.391   0.721   3.159  0.00  0.00    +0.029 A 
ATOM     20  C   UNL     1      -0.678   1.495   2.264  0.00  0.00    +0.105 A 
ATOM     21  C   UNL     1      -0.616   2.866   2.432  0.00  0.00    +0.029 A 
ATOM     22  C   UNL     1      -1.275   3.463   3.490  0.00  0.00    +0.007 A 
BRANCH  20  23
ATOM     23  S   UNL     1       0.158   0.735   0.911  0.00  0.00    +0.056 S 
ATOM     24  O   UNL     1       0.401  -0.613   1.290  0.00  0.00    -0.153 OA
ATOM     25  O   UNL     1       1.202   1.620   0.530  0.00  0.00    -0.153 OA
BRANCH  23  26
ATOM     26  N   UNL     1      -0.907   0.686  -0.357  0.00  0.00    -0.204 NA
ATOM     27  H   UNL     1      -1.802   1.043  -0.252  0.00  0.00    +0.144 HD
ATOM     28  H   UNL     1      -0.634   0.300  -1.204  0.00  0.00    +0.144 HD
ENDBRANCH  23  26
ENDBRANCH  20  23
ENDBRANCH  15  17
ENDBRANCH   1  15
TORSDOF 7
