REMARK  Name = ZINC08165459
REMARK  7 active torsions:
REMARK  status: ('A' for Active; 'I' for Inactive)
REMARK    1  A    between atoms: C_1  and  N_35
REMARK    2  A    between atoms: C_2  and  C_3
REMARK    3  A    between atoms: C_2  and  N_35
REMARK    4  A    between atoms: C_9  and  C_10
REMARK    5  A    between atoms: C_9  and  N_35
REMARK    6  A    between atoms: N_12  and  C_13
REMARK    7  A    between atoms: C_14  and  C_18
REMARK                            x       y       z     vdW  Elec       q    Type
REMARK                         _______ _______ _______ _____ _____    ______ ____
ROOT
ATOM      1  C   UNL     1       5.860  -1.567  -2.922  0.00  0.00    +0.201 C 
ATOM      2  O   UNL     1       5.077  -1.279  -3.803  0.00  0.00    -0.278 OA
ATOM      3  N   UNL     1       7.011  -2.199  -3.223  0.00  0.00    -0.281 N 
ATOM      4  H   UNL     1       7.637  -2.429  -2.518  0.00  0.00    +0.155 HD
ENDROOT
BRANCH   3   5
ATOM      5  C   UNL     1       7.301  -2.521  -4.540  0.00  0.00    +0.084 A 
ATOM      6  C   UNL     1       8.428  -3.160  -5.045  0.00  0.00    +0.065 A 
ATOM      7  C   UNL     1       8.468  -3.374  -6.472  0.00  0.00    +0.022 A 
ATOM      8  C   UNL     1       7.421  -2.928  -7.189  0.00  0.00    +0.048 A 
ATOM      9  S   UNL     1       6.352  -2.217  -5.956  0.00  0.00    -0.081 S 
BRANCH   6  10
ATOM     10  C   UNL     1       9.519  -3.600  -4.170  0.00  0.00    +0.244 C 
ATOM     11  O   UNL     1       9.453  -3.407  -2.970  0.00  0.00    -0.270 OA
ATOM     12  N   UNL     1      10.597  -4.217  -4.695  0.00  0.00    -0.325 N 
ATOM     13  H   UNL     1      10.650  -4.370  -5.651  0.00  0.00    +0.145 HD
ATOM     14  H   UNL     1      11.319  -4.508  -4.116  0.00  0.00    +0.145 HD
ENDBRANCH   6  10
ENDBRANCH   3   5
BRANCH   1  15
ATOM     15  C   UNL     1       5.544  -1.217  -1.490  0.00  0.00    +0.019 C 
BRANCH  15  17
ATOM     16  C   UNL     1       4.295   0.765  -2.102  0.00  0.00    -0.095 C 
ATOM     17  N   UNL     1       4.224  -0.555  -1.441  0.00  0.00    +0.387 N 
ATOM     18  H   UNL     1       3.539  -1.139  -1.936  0.00  0.00    -0.081 HD
BRANCH  17  19
ATOM     19  C   UNL     1       3.791  -0.394  -0.037  0.00  0.00    -0.035 C 
BRANCH  19  20
ATOM     20  C   UNL     1       2.360   0.076  -0.020  0.00  0.00    -0.026 A 
ATOM     21  C   UNL     1       1.220  -0.657  -0.013  0.00  0.00    +0.010 A 
ATOM     22  C   UNL     1       0.002  -0.004   0.002  0.00  0.00    +0.023 A 
ATOM     23  C   UNL     1      -0.016   1.352   0.009  0.00  0.00    +0.055 A 
ATOM     24  S   UNL     1       1.725   1.745  -0.005  0.00  0.00    -0.088 S 
ATOM     25 BR   UNL     1      -1.501   2.523   0.023  0.00  0.00    -0.043 Br
ENDBRANCH  19  20
ENDBRANCH  17  19
ENDBRANCH  15  17
ENDBRANCH   1  15
TORSDOF 6
