REMARK  Name = ZINC35314524
REMARK  7 active torsions:
REMARK  status: ('A' for Active; 'I' for Inactive)
REMARK    1  A    between atoms: C_1  and  O_2
REMARK    2  A    between atoms: O_2  and  C_3
REMARK    3  A    between atoms: C_5  and  N_11
REMARK    4  A    between atoms: C_7  and  O_9
REMARK    5  A    between atoms: O_9  and  C_10
REMARK    6  A    between atoms: C_12  and  C_14
REMARK    7  A    between atoms: C_15  and  N_30
REMARK                            x       y       z     vdW  Elec       q    Type
REMARK                         _______ _______ _______ _____ _____    ______ ____
ROOT
ATOM      1  C   UNL     1       1.786  -6.010  -3.502  0.00  0.00    +0.097 A 
ATOM      2  C   UNL     1       2.254  -6.791  -4.533  0.00  0.00    +0.053 A 
ATOM      3  C   UNL     1       2.094  -8.237  -4.437  0.00  0.00    +0.028 A 
ATOM      4  C   UNL     1       2.497  -9.212  -5.370  0.00  0.00    +0.022 A 
ATOM      5  C   UNL     1       2.250 -10.557  -5.090  0.00  0.00    +0.003 A 
ATOM      6  C   UNL     1       2.625 -11.580  -5.981  0.00  0.00    +0.059 A 
ATOM      7  C   UNL     1       2.360 -12.881  -5.668  0.00  0.00    +0.167 A 
ATOM      8  C   UNL     1       1.718 -13.226  -4.466  0.00  0.00    +0.168 A 
ATOM      9  C   UNL     1       1.334 -12.272  -3.567  0.00  0.00    +0.075 A 
ATOM     10  C   UNL     1       1.581 -10.918  -3.838  0.00  0.00    +0.051 A 
ATOM     11  N   UNL     1       1.221  -9.953  -2.988  0.00  0.00    -0.349 N 
ATOM     12  C   UNL     1       1.453  -8.690  -3.253  0.00  0.00    +0.088 A 
ATOM     13  S   UNL     1       1.116  -7.195  -2.352  0.00  0.00    -0.064 S 
ATOM     14  O   UNL     1       1.586 -14.586  -4.424  0.00  0.00    -0.453 OA
ATOM     15  C   UNL     1       1.773 -15.034  -5.779  0.00  0.00    +0.466 C 
ATOM     16  O   UNL     1       2.623 -14.030  -6.362  0.00  0.00    -0.453 OA
ATOM     17  H   UNL     1       0.779 -10.191  -2.158  0.00  0.00    +0.166 HD
ENDROOT
BRANCH   1  19
ATOM     18  N   UNL     1       1.323  -4.002  -2.284  0.00  0.00    -0.281 N 
ATOM     19  C   UNL     1       1.831  -4.600  -3.380  0.00  0.00    +0.257 C 
ATOM     20  O   UNL     1       2.329  -3.928  -4.265  0.00  0.00    -0.269 OA
ATOM     21  H   UNL     1       0.996  -4.539  -1.546  0.00  0.00    +0.155 HD
BRANCH  18  24
ATOM     22  C   UNL     1       0.994  -0.476  -3.290  0.00  0.00    +0.125 A 
ATOM     23  C   UNL     1       1.050  -1.860  -3.362  0.00  0.00    +0.069 A 
ATOM     24  C   UNL     1       1.267  -2.607  -2.212  0.00  0.00    +0.041 A 
ATOM     25  C   UNL     1       1.427  -1.967  -0.990  0.00  0.00    +0.069 A 
ATOM     26  C   UNL     1       1.371  -0.584  -0.919  0.00  0.00    +0.125 A 
ATOM     27  C   UNL     1       1.160   0.162  -2.070  0.00  0.00    +0.091 A 
BRANCH  22  29
ATOM     28  C   UNL     1       0.743   1.676  -4.269  0.00  0.00    +0.277 C 
ATOM     29  O   UNL     1       0.783   0.255  -4.416  0.00  0.00    -0.495 OA
ENDBRANCH  22  29
BRANCH  26  30
ATOM     30  O   UNL     1       1.527   0.042   0.277  0.00  0.00    -0.495 OA
ATOM     31  C   UNL     1       1.458   1.469   0.276  0.00  0.00    +0.277 C 
ENDBRANCH  26  30
ENDBRANCH  18  24
ENDBRANCH   1  19
BRANCH   2  32
ATOM     32  N   UNL     1       2.863  -6.216  -5.638  0.00  0.00    -0.356 N 
ATOM     33  H   UNL     1       2.963  -5.253  -5.691  0.00  0.00    +0.142 HD
ATOM     34  H   UNL     1       3.189  -6.777  -6.359  0.00  0.00    +0.142 HD
ENDBRANCH   2  32
TORSDOF 5
