REMARK  Name = ZINC07624373
REMARK  8 active torsions:
REMARK  status: ('A' for Active; 'I' for Inactive)
REMARK    1  A    between atoms: C_1  and  N_48
REMARK    2  A    between atoms: C_2  and  C_3
REMARK    3  A    between atoms: C_2  and  N_48
REMARK    4  A    between atoms: N_5  and  C_6
REMARK    5  A    between atoms: C_7  and  C_11
REMARK    6  A    between atoms: C_14  and  C_15
REMARK    7  A    between atoms: C_14  and  C_21
REMARK    8  A    between atoms: C_14  and  N_48
REMARK                            x       y       z     vdW  Elec       q    Type
REMARK                         _______ _______ _______ _____ _____    ______ ____
ROOT
ATOM      1  C   UNL     1       2.470  -3.949  -0.105  0.00  0.00    -0.094 C 
ATOM      2  N   UNL     1       1.482  -5.048  -0.081  0.00  0.00    +0.391 N 
ATOM      3  H   UNL     1       1.017  -5.099  -0.995  0.00  0.00    -0.080 HD
ENDROOT
BRANCH   2   4
ATOM      4  C   UNL     1       0.466  -4.790   0.961  0.00  0.00    +0.020 C 
BRANCH   4   5
ATOM      5  C   UNL     1      -0.359  -3.597   0.551  0.00  0.00    +0.201 C 
ATOM      6  O   UNL     1      -0.113  -3.017  -0.486  0.00  0.00    -0.278 OA
ATOM      7  N   UNL     1      -1.369  -3.174   1.336  0.00  0.00    -0.281 N 
ATOM      8  H   UNL     1      -1.566  -3.637   2.165  0.00  0.00    +0.155 HD
BRANCH   7   9
ATOM      9  C   UNL     1      -2.128  -2.076   0.959  0.00  0.00    +0.084 A 
ATOM     10  C   UNL     1      -3.199  -1.496   1.627  0.00  0.00    +0.065 A 
ATOM     11  C   UNL     1      -3.811  -0.349   1.000  0.00  0.00    +0.022 A 
ATOM     12  C   UNL     1      -3.295   0.059  -0.173  0.00  0.00    +0.048 A 
ATOM     13  S   UNL     1      -1.969  -1.096  -0.460  0.00  0.00    -0.081 S 
BRANCH  10  14
ATOM     14  C   UNL     1      -3.683  -2.023   2.907  0.00  0.00    +0.244 C 
ATOM     15  O   UNL     1      -3.145  -2.992   3.409  0.00  0.00    -0.270 OA
ATOM     16  N   UNL     1      -4.725  -1.434   3.527  0.00  0.00    -0.325 N 
ATOM     17  H   UNL     1      -5.154  -0.662   3.127  0.00  0.00    +0.145 HD
ATOM     18  H   UNL     1      -5.046  -1.783   4.373  0.00  0.00    +0.145 HD
ENDBRANCH  10  14
ENDBRANCH   7   9
ENDBRANCH   4   5
ENDBRANCH   2   4
BRANCH   2  19
ATOM     19  C   UNL     1       2.163  -6.333   0.185  0.00  0.00    -0.007 C 
BRANCH  19  20
ATOM     20  C   UNL     1       1.139  -7.439   0.180  0.00  0.00    -0.057 A 
ATOM     21  C   UNL     1       0.157  -7.467  -0.792  0.00  0.00    +0.002 A 
ATOM     22  C   UNL     1      -0.779  -8.484  -0.799  0.00  0.00    +0.000 A 
ATOM     23  C   UNL     1      -0.740  -9.467   0.172  0.00  0.00    +0.000 A 
ATOM     24  C   UNL     1       0.239  -9.435   1.148  0.00  0.00    +0.000 A 
ATOM     25  C   UNL     1       1.178  -8.421   1.152  0.00  0.00    +0.002 A 
ENDBRANCH  19  20
BRANCH  19  26
ATOM     26  C   UNL     1       3.177  -6.583  -0.901  0.00  0.00    -0.057 A 
ATOM     27  C   UNL     1       2.843  -6.358  -2.224  0.00  0.00    +0.002 A 
ATOM     28  C   UNL     1       3.775  -6.583  -3.220  0.00  0.00    +0.000 A 
ATOM     29  C   UNL     1       5.037  -7.042  -2.894  0.00  0.00    +0.000 A 
ATOM     30  C   UNL     1       5.370  -7.272  -1.572  0.00  0.00    +0.000 A 
ATOM     31  C   UNL     1       4.439  -7.042  -0.576  0.00  0.00    +0.002 A 
ENDBRANCH  19  26
ENDBRANCH   2  19
TORSDOF 7
