REMARK  Name = ZINC12498059
REMARK  10 active torsions:
REMARK  status: ('A' for Active; 'I' for Inactive)
REMARK    1  A    between atoms: C_1  and  C_2
REMARK    2  A    between atoms: C_7  and  C_8
REMARK    3  A    between atoms: N_16  and  C_19
REMARK    4  A    between atoms: C_29  and  C_30
REMARK    5  A    between atoms: C_29  and  C_34
REMARK    6  A    between atoms: C_30  and  C_31
REMARK    7  A    between atoms: C_31  and  S_32
REMARK    8  A    between atoms: S_32  and  C_33
REMARK    9  A    between atoms: C_34  and  O_36
REMARK   10  A    between atoms: O_36  and  C_37
REMARK                            x       y       z     vdW  Elec       q    Type
REMARK                         _______ _______ _______ _____ _____    ______ ____
ROOT
ATOM      1  C   UNL     1       1.421   1.397  -0.004  0.00  0.00    -0.026 C 
ATOM      2  C   UNL     1      -0.009   1.126  -0.189  0.00  0.00    +0.077 C 
ATOM      3  C   UNL     1      -0.255   1.465  -1.711  0.00  0.00    +0.086 C 
ATOM      4  C   UNL     1      -1.639   0.877  -1.781  0.00  0.00    +0.229 C 
ATOM      5  O   UNL     1      -2.146   0.315  -2.728  0.00  0.00    -0.275 OA
ATOM      6  N   UNL     1      -2.207   1.106  -0.561  0.00  0.00    -0.210 N 
ATOM      7  C   UNL     1      -1.293   1.441   0.387  0.00  0.00    +0.229 C 
ATOM      8  O   UNL     1      -1.519   1.901   1.485  0.00  0.00    -0.275 OA
ATOM      9  C   UNL     1       0.934   0.665  -2.258  0.00  0.00    +0.044 C 
ATOM     10  N   UNL     1       2.031   1.030  -1.316  0.00  0.00    +0.395 N 
ATOM     11  H   UNL     1       2.663   0.231  -1.193  0.00  0.00    -0.083 HD
ATOM     12  H   UNL     1       2.557   1.829  -1.689  0.00  0.00    -0.083 HD
ENDROOT
BRANCH   6  13
ATOM     13  C   UNL     1      -3.586   1.010  -0.316  0.00  0.00    +0.048 A 
ATOM     14  C   UNL     1      -4.452   0.670  -1.346  0.00  0.00    +0.028 A 
ATOM     15  C   UNL     1      -5.808   0.571  -1.105  0.00  0.00    +0.051 A 
ATOM     16  C   UNL     1      -6.310   0.821   0.164  0.00  0.00    +0.162 A 
ATOM     17  C   UNL     1      -5.446   1.164   1.197  0.00  0.00    +0.164 A 
ATOM     18  C   UNL     1      -4.084   1.259   0.955  0.00  0.00    +0.073 A 
ATOM     19  O   UNL     1      -5.919   1.404   2.450  0.00  0.00    -0.485 OA
ATOM     20  C   UNL     1      -7.322   1.663   2.571  0.00  0.00    +0.270 C 
ATOM     21  C   UNL     1      -8.076   0.614   1.743  0.00  0.00    +0.270 C 
ATOM     22  O   UNL     1      -7.652   0.727   0.381  0.00  0.00    -0.485 OA
ENDBRANCH   6  13
BRANCH   1  29
ATOM     23  C   UNL     1       1.350   2.340   2.726  0.00  0.00    +0.044 C 
ATOM     24  C   UNL     1       1.612   3.308   1.602  0.00  0.00    -0.049 A 
ATOM     25  C   UNL     1       1.817   4.647   1.876  0.00  0.00    +0.003 A 
ATOM     26  C   UNL     1       2.057   5.535   0.845  0.00  0.00    +0.000 A 
ATOM     27  C   UNL     1       2.092   5.084  -0.462  0.00  0.00    +0.000 A 
ATOM     28  C   UNL     1       1.891   3.745  -0.736  0.00  0.00    +0.002 A 
ATOM     29  C   UNL     1       1.645   2.857   0.295  0.00  0.00    -0.058 A 
ENDBRANCH   1  29
BRANCH   9  30
ATOM     30  C   UNL     1       0.654  -0.814  -2.202  0.00  0.00    +0.297 C 
ATOM     31  O   UNL     1      -0.481  -1.218  -2.302  0.00  0.00    -0.252 OA
BRANCH  30  32
ATOM     32  O   UNL     1       1.664  -1.683  -2.041  0.00  0.00    -0.469 OA
ATOM     33  C   UNL     1       1.319  -3.093  -1.996  0.00  0.00    +0.280 C 
ENDBRANCH  30  32
ENDBRANCH   9  30
BRANCH   9  34
ATOM     34  C   UNL     1       1.271   1.097  -3.687  0.00  0.00    +0.010 C 
BRANCH  34  35
ATOM     35  C   UNL     1       2.533   0.371  -4.155  0.00  0.00    +0.068 C 
BRANCH  35  36
ATOM     36  S   UNL     1       2.932   0.882  -5.849  0.00  0.00    -0.164 S 
ATOM     37  C   UNL     1       4.432  -0.056  -6.249  0.00  0.00    +0.084 C 
ENDBRANCH  35  36
ENDBRANCH  34  35
ENDBRANCH   9  34
TORSDOF 7
