REMARK  Name = ZINC23125430
REMARK  9 active torsions:
REMARK  status: ('A' for Active; 'I' for Inactive)
REMARK    1  A    between atoms: C_1  and  C_2
REMARK    2  A    between atoms: C_2  and  N_3
REMARK    3  A    between atoms: C_5  and  C_23
REMARK    4  A    between atoms: C_6  and  N_22
REMARK    5  A    between atoms: N_7  and  C_9
REMARK    6  A    between atoms: C_9  and  C_10
REMARK    7  A    between atoms: N_12  and  C_13
REMARK    8  A    between atoms: C_25  and  C_28
REMARK    9  A    between atoms: C_33  and  C_34
REMARK                            x       y       z     vdW  Elec       q    Type
REMARK                         _______ _______ _______ _____ _____    ______ ____
ROOT
ATOM      1  N   UNL     1      -2.768  -5.475  -2.140  0.00  0.00    -0.329 N 
ATOM      2  C   UNL     1      -3.011  -4.458  -1.215  0.00  0.00    +0.127 A 
ATOM      3  C   UNL     1      -3.058  -4.608   0.195  0.00  0.00    +0.117 A 
ATOM      4  C   UNL     1      -3.326  -3.352   0.728  0.00  0.00    +0.127 A 
ATOM      5  N   UNL     1      -3.435  -2.493  -0.306  0.00  0.00    -0.262 N 
ATOM      6  N   UNL     1      -3.242  -3.201  -1.496  0.00  0.00    -0.282 N 
ATOM      7  H   UNL     1      -2.590  -6.503  -1.793  0.00  0.00    +0.147 HD
ATOM      8  H   UNL     1      -3.258  -2.866  -2.544  0.00  0.00    +0.188 HD
ENDROOT
BRANCH   3   9
ATOM      9  C   UNL     1      -2.859  -5.854   0.949  0.00  0.00    +0.265 A 
ATOM     10  N   UNL     1      -2.603  -7.051   0.443  0.00  0.00    -0.187 NA
ATOM     11  C   UNL     1      -2.502  -7.876   1.505  0.00  0.00    +0.203 A 
ATOM     12  N   UNL     1      -2.697  -7.156   2.581  0.00  0.00    -0.056 NA
ATOM     13  O   UNL     1      -2.897  -5.997   2.284  0.00  0.00    -0.332 OA
BRANCH  11  14
ATOM     14  C   UNL     1      -2.220  -9.333   1.462  0.00  0.00    +0.025 A 
ATOM     15  C   UNL     1      -2.038  -9.974   0.239  0.00  0.00    +0.012 A 
ATOM     16  C   UNL     1      -1.771 -11.327   0.205  0.00  0.00    +0.001 A 
ATOM     17  C   UNL     1      -1.695 -12.050   1.382  0.00  0.00    +0.000 A 
ATOM     18  C   UNL     1      -1.881 -11.419   2.599  0.00  0.00    +0.004 A 
ATOM     19  C   UNL     1      -2.143 -10.065   2.645  0.00  0.00    -0.040 A 
ATOM     20  C   UNL     1      -2.345  -9.379   3.972  0.00  0.00    +0.044 C 
ENDBRANCH  11  14
ENDBRANCH   3   9
BRANCH   4  21
ATOM     21  N   UNL     1      -3.458  -3.042   2.070  0.00  0.00    -0.343 N 
ATOM     22  H   UNL     1      -3.671  -2.007   2.376  0.00  0.00    +0.144 HD
ATOM     23  H   UNL     1      -3.348  -3.829   2.830  0.00  0.00    +0.144 HD
ENDBRANCH   4  21
BRANCH   1  25
ATOM     24  C   UNL     1      -2.462  -6.451  -4.362  0.00  0.00    +0.024 C 
ATOM     25  C   UNL     1      -2.748  -5.171  -3.573  0.00  0.00    +0.099 C 
ENDBRANCH   1  25
BRANCH   5  26
ATOM     26  C   UNL     1      -3.715  -1.058  -0.200  0.00  0.00    +0.239 C 
BRANCH  26  27
ATOM     27  C   UNL     1      -2.417  -0.300  -0.089  0.00  0.00    +0.239 C 
ATOM     28  O   UNL     1      -1.362  -0.899  -0.097  0.00  0.00    -0.273 OA
ATOM     29  N   UNL     1      -2.428   1.043   0.020  0.00  0.00    -0.284 N 
ATOM     30  H   UNL     1      -3.384   1.579   0.115  0.00  0.00    +0.155 HD
BRANCH  29  31
ATOM     31  C   UNL     1      -1.224   1.756   0.012  0.00  0.00    +0.034 A 
ATOM     32  C   UNL     1      -0.151   1.302  -0.745  0.00  0.00    +0.023 A 
ATOM     33  C   UNL     1       1.032   2.012  -0.753  0.00  0.00    +0.006 A 
ATOM     34  C   UNL     1       1.157   3.172  -0.006  0.00  0.00    -0.044 A 
ATOM     35  C   UNL     1       0.092   3.623   0.752  0.00  0.00    -0.042 A 
ATOM     36  C   UNL     1      -1.096   2.914   0.764  0.00  0.00    +0.027 A 
ATOM     37  C   UNL     1       0.479   4.899   1.469  0.00  0.00    +0.036 C 
ATOM     38  C   UNL     1       1.732   5.414   0.731  0.00  0.00    +0.009 C 
ATOM     39  C   UNL     1       2.331   4.115   0.150  0.00  0.00    +0.036 C 
ENDBRANCH  29  31
ENDBRANCH  26  27
ENDBRANCH   5  26
TORSDOF 7
