REMARK  Name = ZINC12497094
REMARK  10 active torsions:
REMARK  status: ('A' for Active; 'I' for Inactive)
REMARK    1  A    between atoms: C_1  and  C_2
REMARK    2  A    between atoms: C_2  and  O_3
REMARK    3  A    between atoms: O_3  and  C_4
REMARK    4  A    between atoms: C_4  and  C_6
REMARK    5  A    between atoms: C_6  and  C_33
REMARK    6  A    between atoms: C_11  and  C_13
REMARK    7  A    between atoms: C_16  and  O_21
REMARK    8  A    between atoms: C_17  and  O_19
REMARK    9  A    between atoms: O_19  and  C_20
REMARK   10  A    between atoms: N_24  and  C_27
REMARK                            x       y       z     vdW  Elec       q    Type
REMARK                         _______ _______ _______ _____ _____    ______ ____
ROOT
ATOM      1  C   UNL     1      -1.505  -0.056  -0.058  0.00  0.00    +0.070 C 
ATOM      2  C   UNL     1      -0.963  -1.365  -0.504  0.00  0.00    +0.090 C 
ATOM      3  C   UNL     1      -2.286  -2.107  -0.946  0.00  0.00    +0.078 C 
ATOM      4  C   UNL     1      -2.849  -1.017  -1.826  0.00  0.00    -0.026 C 
ATOM      5  C   UNL     1      -1.672  -3.375  -1.399  0.00  0.00    +0.229 C 
ATOM      6  O   UNL     1      -2.023  -4.072  -2.327  0.00  0.00    -0.275 OA
ATOM      7  N   UNL     1      -0.623  -3.594  -0.546  0.00  0.00    -0.210 N 
ATOM      8  C   UNL     1      -0.281  -2.473   0.168  0.00  0.00    +0.229 C 
ATOM      9  O   UNL     1       0.424  -2.409   1.152  0.00  0.00    -0.275 OA
ATOM     10  N   UNL     1      -2.646   0.200  -0.984  0.00  0.00    +0.398 N 
ATOM     11  H   UNL     1      -2.433   1.005  -1.583  0.00  0.00    -0.083 HD
ATOM     12  H   UNL     1      -3.496   0.392  -0.441  0.00  0.00    -0.083 HD
ENDROOT
BRANCH   4  13
ATOM     13  C   UNL     1      -2.077  -0.911  -3.116  0.00  0.00    -0.057 A 
ATOM     14  C   UNL     1      -0.978  -0.077  -3.195  0.00  0.00    +0.006 A 
ATOM     15  C   UNL     1      -0.263   0.020  -4.374  0.00  0.00    +0.049 A 
ATOM     16  C   UNL     1      -0.654  -0.712  -5.484  0.00  0.00    +0.158 A 
ATOM     17  C   UNL     1      -1.764  -1.548  -5.406  0.00  0.00    +0.161 A 
ATOM     18  C   UNL     1      -2.473  -1.645  -4.219  0.00  0.00    +0.051 A 
BRANCH  17  19
ATOM     19  O   UNL     1      -2.152  -2.268  -6.492  0.00  0.00    -0.491 OA
ATOM     20  C   UNL     1      -3.301  -3.105  -6.339  0.00  0.00    +0.277 C 
ENDBRANCH  17  19
BRANCH  16  21
ATOM     21  O   UNL     1       0.045  -0.615  -6.646  0.00  0.00    -0.503 OA
ATOM     22  H   UNL     1      -0.273   0.080  -7.239  0.00  0.00    +0.292 HD
ENDBRANCH  16  21
ENDBRANCH   4  13
BRANCH   7  23
ATOM     23  C   UNL     1       0.031  -4.828  -0.417  0.00  0.00    +0.044 A 
ATOM     24  C   UNL     1       1.092  -4.963   0.468  0.00  0.00    +0.024 A 
ATOM     25  C   UNL     1       1.730  -6.181   0.597  0.00  0.00    +0.002 A 
ATOM     26  C   UNL     1       1.321  -7.262  -0.162  0.00  0.00    +0.000 A 
ATOM     27  C   UNL     1       0.268  -7.129  -1.048  0.00  0.00    +0.002 A 
ATOM     28  C   UNL     1      -0.378  -5.915  -1.178  0.00  0.00    +0.024 A 
ENDBRANCH   7  23
BRANCH   1  29
ATOM     29  C   UNL     1      -1.988  -0.142   1.367  0.00  0.00    -0.047 A 
ATOM     30  C   UNL     1      -1.111   0.096   2.409  0.00  0.00    +0.003 A 
ATOM     31  C   UNL     1      -1.555   0.021   3.716  0.00  0.00    +0.000 A 
ATOM     32  C   UNL     1      -2.873  -0.300   3.981  0.00  0.00    +0.000 A 
ATOM     33  C   UNL     1      -3.749  -0.542   2.939  0.00  0.00    +0.000 A 
ATOM     34  C   UNL     1      -3.306  -0.464   1.632  0.00  0.00    +0.003 A 
ENDBRANCH   1  29
BRANCH   1  35
ATOM     35  C   UNL     1      -0.459   1.020  -0.194  0.00  0.00    +0.301 C 
ATOM     36  O   UNL     1       0.713   0.738  -0.110  0.00  0.00    -0.252 OA
BRANCH  35  37
ATOM     37  O   UNL     1      -0.829   2.293  -0.407  0.00  0.00    -0.466 OA
BRANCH  37  39
ATOM     38  C   UNL     1      -0.379   4.659  -0.766  0.00  0.00    +0.048 C 
ATOM     39  C   UNL     1       0.232   3.277  -0.527  0.00  0.00    +0.228 C 
ENDBRANCH  37  39
ENDBRANCH  35  37
ENDBRANCH   1  35
TORSDOF 8
