REMARK  Name = ZINC43222752
REMARK  11 active torsions:
REMARK  status: ('A' for Active; 'I' for Inactive)
REMARK    1  A    between atoms: C_1  and  C_2
REMARK    2  A    between atoms: C_2  and  C_3
REMARK    3  A    between atoms: C_3  and  C_5
REMARK    4  A    between atoms: C_3  and  N_6
REMARK    5  A    between atoms: C_7  and  C_9
REMARK    6  A    between atoms: C_14  and  C_16
REMARK    7  A    between atoms: N_18  and  C_19
REMARK    8  A    between atoms: C_19  and  C_21
REMARK    9  A    between atoms: C_19  and  C_22
REMARK   10  A    between atoms: C_22  and  C_23
REMARK   11  A    between atoms: C_23  and  C_24
REMARK                            x       y       z     vdW  Elec       q    Type
REMARK                         _______ _______ _______ _____ _____    ______ ____
ROOT
ATOM      1  C   UNL     1      -0.234   0.422  -4.849  0.00  0.00    +0.068 C 
ATOM      2  C   UNL     1      -0.850   1.825  -4.655  0.00  0.00    -0.069 C 
ATOM      3  N   UNL     1       0.119   2.751  -5.296  0.00  0.00    +0.380 N 
ATOM      4  C   UNL     1       0.560   2.030  -6.518  0.00  0.00    -0.069 C 
ATOM      5  C   UNL     1       0.693   0.554  -6.074  0.00  0.00    +0.068 C 
ATOM      6  H   UNL     1      -0.332   3.619  -5.542  0.00  0.00    -0.086 HD
ATOM      7  H   UNL     1       0.903   2.920  -4.684  0.00  0.00    -0.086 HD
ENDROOT
BRANCH   1   9
ATOM      8  N   UNL     1      -0.055  -0.114  -2.441  0.00  0.00    -0.313 N 
ATOM      9  C   UNL     1       0.561   0.028  -3.631  0.00  0.00    +0.215 C 
ATOM     10  O   UNL     1       1.755  -0.162  -3.722  0.00  0.00    -0.276 OA
ATOM     11  H   UNL     1      -1.010   0.038  -2.368  0.00  0.00    +0.149 HD
BRANCH   8  12
ATOM     12  C   UNL     1       0.718  -0.497  -1.257  0.00  0.00    +0.070 C 
ATOM     13  C   UNL     1       0.849  -2.021  -1.205  0.00  0.00    +0.028 C 
BRANCH  12  15
ATOM     14  C   UNL     1      -0.019   1.526   0.010  0.00  0.00    +0.005 C 
ATOM     15  C   UNL     1       0.002  -0.004   0.002  0.00  0.00    +0.018 C 
ENDBRANCH  12  15
ENDBRANCH   8  12
ENDBRANCH   1   9
BRANCH   5  16
ATOM     16  C   UNL     1       0.239  -0.368  -7.176  0.00  0.00    +0.215 C 
ATOM     17  O   UNL     1      -0.734  -1.073  -7.013  0.00  0.00    -0.276 OA
ATOM     18  N   UNL     1       0.914  -0.410  -8.342  0.00  0.00    -0.313 N 
ATOM     19  H   UNL     1       1.692   0.154  -8.472  0.00  0.00    +0.149 HD
BRANCH  18  20
ATOM     20  C   UNL     1       0.472  -1.307  -9.412  0.00  0.00    +0.070 C 
ATOM     21  C   UNL     1      -0.617  -0.619 -10.237  0.00  0.00    +0.028 C 
BRANCH  20  22
ATOM     22  C   UNL     1       1.660  -1.644 -10.317  0.00  0.00    +0.026 C 
BRANCH  22  23
ATOM     23  C   UNL     1       2.695  -2.442  -9.522  0.00  0.00    +0.037 C 
BRANCH  23  24
ATOM     24  C   UNL     1       3.865  -2.775 -10.412  0.00  0.00    -0.047 A 
ATOM     25  C   UNL     1       3.862  -3.944 -11.149  0.00  0.00    +0.003 A 
ATOM     26  C   UNL     1       4.934  -4.250 -11.966  0.00  0.00    +0.000 A 
ATOM     27  C   UNL     1       6.010  -3.385 -12.047  0.00  0.00    +0.000 A 
ATOM     28  C   UNL     1       6.012  -2.215 -11.311  0.00  0.00    +0.000 A 
ATOM     29  C   UNL     1       4.938  -1.907 -10.497  0.00  0.00    +0.003 A 
ENDBRANCH  23  24
ENDBRANCH  22  23
ENDBRANCH  20  22
ENDBRANCH  18  20
ENDBRANCH   5  16
TORSDOF 8
