REMARK  Name = ZINC09070664
REMARK  11 active torsions:
REMARK  status: ('A' for Active; 'I' for Inactive)
REMARK    1  A    between atoms: C_1  and  C_2
REMARK    2  A    between atoms: C_2  and  O_3
REMARK    3  A    between atoms: O_3  and  C_4
REMARK    4  A    between atoms: C_7  and  C_10
REMARK    5  A    between atoms: C_13  and  C_14
REMARK    6  A    between atoms: C_13  and  O_26
REMARK    7  A    between atoms: N_17  and  C_20
REMARK    8  A    between atoms: C_18  and  C_19
REMARK    9  A    between atoms: N_31  and  C_32
REMARK   10  A    between atoms: C_32  and  C_33
REMARK   11  A    between atoms: C_33  and  N_70
REMARK                            x       y       z     vdW  Elec       q    Type
REMARK                         _______ _______ _______ _____ _____    ______ ____
ROOT
ATOM      1  C   UNL     1       2.052   2.918   1.371  0.00  0.00    +0.144 C 
ATOM      2  C   UNL     1       3.437   3.142   0.811  0.00  0.00    +0.071 C 
ATOM      3  C   UNL     1       4.622   3.200   1.522  0.00  0.00    +0.136 C 
ATOM      4  C   UNL     1       3.280   3.284  -0.574  0.00  0.00    +0.249 C 
ATOM      5  O   UNL     1       4.174   3.482  -1.378  0.00  0.00    -0.282 OA
ATOM      6  C   UNL     1       1.833   3.149  -0.894  0.00  0.00    +0.288 C 
ATOM      7  O   UNL     1       1.358   3.222  -2.009  0.00  0.00    -0.266 OA
ATOM      8  N   UNL     1       1.131   2.935   0.231  0.00  0.00    -0.285 N 
ENDROOT
BRANCH   1  12
ATOM      9  C   UNL     1       1.871  -0.870   3.342  0.00  0.00    +0.121 A 
ATOM     10  C   UNL     1       1.968   0.297   4.086  0.00  0.00    +0.046 A 
ATOM     11  C   UNL     1       2.027   1.520   3.447  0.00  0.00    +0.009 A 
ATOM     12  C   UNL     1       1.988   1.583   2.066  0.00  0.00    -0.022 A 
ATOM     13  C   UNL     1       1.886   0.422   1.322  0.00  0.00    +0.009 A 
ATOM     14  C   UNL     1       1.834  -0.804   1.956  0.00  0.00    +0.046 A 
BRANCH   9  15
ATOM     15  O   UNL     1       1.813  -2.074   3.968  0.00  0.00    -0.492 OA
BRANCH  15  17
ATOM     16  C   UNL     1       1.661  -4.485   4.016  0.00  0.00    +0.048 C 
ATOM     17  C   UNL     1       1.715  -3.233   3.138  0.00  0.00    +0.225 C 
ENDBRANCH  15  17
ENDBRANCH   9  15
ENDBRANCH   1  12
BRANCH   3  18
ATOM     18  C   UNL     1       5.872   3.565   0.841  0.00  0.00    +0.058 A 
ATOM     19  C   UNL     1       6.123   4.763   0.130  0.00  0.00    +0.146 A 
ATOM     20  N   UNL     1       7.343   4.712  -0.328  0.00  0.00    -0.174 NA
ATOM     21  N   UNL     1       7.926   3.500   0.059  0.00  0.00    -0.236 N 
ATOM     22  C   UNL     1       7.027   2.804   0.778  0.00  0.00    +0.052 A 
ATOM     23  C   UNL     1       7.236   1.446   1.397  0.00  0.00    +0.066 C 
BRANCH  21  24
ATOM     24  C   UNL     1       9.229   3.084  -0.246  0.00  0.00    +0.066 A 
ATOM     25  C   UNL     1      10.028   2.523   0.741  0.00  0.00    +0.028 A 
ATOM     26  C   UNL     1      11.310   2.108   0.436  0.00  0.00    +0.002 A 
ATOM     27  C   UNL     1      11.802   2.263  -0.847  0.00  0.00    +0.000 A 
ATOM     28  C   UNL     1      11.010   2.827  -1.831  0.00  0.00    +0.002 A 
ATOM     29  C   UNL     1       9.725   3.238  -1.534  0.00  0.00    +0.028 A 
ENDBRANCH  21  24
ENDBRANCH   3  18
BRANCH   3  30
ATOM     30  O   UNL     1       4.630   2.922   2.844  0.00  0.00    -0.506 OA
ATOM     31  H   UNL     1       5.561   3.011   3.197  0.00  0.00    +0.292 HD
ENDBRANCH   3  30
BRANCH   8  32
ATOM     32  C   UNL     1      -0.321   2.755   0.306  0.00  0.00    +0.090 C 
BRANCH  32  33
ATOM     33  C   UNL     1      -0.658   1.269   0.168  0.00  0.00    -0.059 C 
BRANCH  33  39
ATOM     34  C   UNL     1      -2.619   1.431   1.581  0.00  0.00    -0.050 C 
ATOM     35  C   UNL     1      -4.143   1.286   1.599  0.00  0.00    +0.141 C 
ATOM     36  O   UNL     1      -4.494  -0.045   1.212  0.00  0.00    -0.383 OA
ATOM     37  C   UNL     1      -4.019  -0.413  -0.085  0.00  0.00    +0.141 C 
ATOM     38  C   UNL     1      -2.494  -0.285  -0.120  0.00  0.00    -0.050 C 
ATOM     39  N   UNL     1      -2.127   1.104   0.227  0.00  0.00    +0.384 N 
ATOM     40  H   UNL     1      -2.562   1.743  -0.450  0.00  0.00    -0.082 HD
ENDBRANCH  33  39
ENDBRANCH  32  33
ENDBRANCH   8  32
TORSDOF 9
