REMARK  Name = ZINC18043974
REMARK  4 active torsions:
REMARK  status: ('A' for Active; 'I' for Inactive)
REMARK    1  A    between atoms: C_4  and  C_7
REMARK    2  A    between atoms: N_9  and  C_10
REMARK    3  A    between atoms: C_10  and  C_11
REMARK    4  A    between atoms: N_13  and  N_14
REMARK                            x       y       z     vdW  Elec       q    Type
REMARK                         _______ _______ _______ _____ _____    ______ ____
ROOT
ATOM      1  C   UNL     1       4.746  -4.230  -0.067  0.00  0.00    +0.249 C 
ATOM      2  O   UNL     1       3.610  -4.653  -0.058  0.00  0.00    -0.272 OA
ATOM      3  N   UNL     1       5.784  -5.089  -0.081  0.00  0.00    -0.205 N 
ATOM      4  H   UNL     1       6.694  -4.751  -0.089  0.00  0.00    +0.177 HD
ENDROOT
BRANCH   3   5
ATOM      5  N   UNL     1       5.551  -6.471  -0.086  0.00  0.00    -0.174 NA
ATOM      6  C   UNL     1       6.560  -7.306  -0.101  0.00  0.00    +0.153 C 
ATOM      7  C   UNL     1       6.506  -8.787  -0.114  0.00  0.00    +0.029 A 
ATOM      8  C   UNL     1       5.459  -9.701  -0.116  0.00  0.00    +0.027 A 
ATOM      9  C   UNL     1       5.732 -11.055  -0.130  0.00  0.00    +0.019 A 
ATOM     10  C   UNL     1       7.044 -11.498  -0.143  0.00  0.00    +0.017 A 
ATOM     11  C   UNL     1       8.090 -10.598  -0.141  0.00  0.00    +0.025 A 
ATOM     12  C   UNL     1       7.835  -9.231  -0.127  0.00  0.00    +0.043 A 
ATOM     13  N   UNL     1       8.687  -8.132  -0.123  0.00  0.00    -0.280 N 
ATOM     14  C   UNL     1       8.000  -6.977  -0.114  0.00  0.00    +0.269 C 
ATOM     15  O   UNL     1       8.479  -5.858  -0.113  0.00  0.00    -0.268 OA
ATOM     16 BR   UNL     1       4.312 -12.305  -0.132  0.00  0.00    -0.050 Br
ATOM     17  H   UNL     1       9.655  -8.191  -0.129  0.00  0.00    +0.155 HD
ENDBRANCH   3   5
BRANCH   1  18
ATOM     18  C   UNL     1       4.997  -2.744  -0.061  0.00  0.00    +0.202 C 
BRANCH  18  21
ATOM     19  C   UNL     1       3.696  -0.685  -0.037  0.00  0.00    +0.244 C 
ATOM     20  O   UNL     1       4.738  -0.060  -0.044  0.00  0.00    -0.270 OA
ATOM     21  N   UNL     1       3.717  -2.032  -0.045  0.00  0.00    -0.303 N 
ATOM     22  H   UNL     1       2.885  -2.531  -0.039  0.00  0.00    +0.150 HD
BRANCH  19  26
ATOM     23  C   UNL     1      -0.017   1.379   0.010  0.00  0.00    +0.000 A 
ATOM     24  C   UNL     1       1.168   2.094   0.002  0.00  0.00    +0.001 A 
ATOM     25  C   UNL     1       2.377   1.429  -0.013  0.00  0.00    +0.013 A 
ATOM     26  C   UNL     1       2.403   0.034  -0.021  0.00  0.00    +0.037 A 
ATOM     27  C   UNL     1       1.204  -0.681  -0.013  0.00  0.00    +0.013 A 
ATOM     28  C   UNL     1       0.002  -0.004   0.002  0.00  0.00    +0.001 A 
ENDBRANCH  19  26
ENDBRANCH  18  21
ENDBRANCH   1  18
TORSDOF 4
