REMARK  Name = ZINC08742830
REMARK  5 active torsions:
REMARK  status: ('A' for Active; 'I' for Inactive)
REMARK    1  A    between atoms: C_1  and  O_2
REMARK    2  A    between atoms: O_2  and  C_3
REMARK    3  A    between atoms: C_6  and  N_9
REMARK    4  A    between atoms: C_24  and  C_30
REMARK    5  A    between atoms: C_30  and  C_32
REMARK                            x       y       z     vdW  Elec       q    Type
REMARK                         _______ _______ _______ _____ _____    ______ ____
ROOT
ATOM      1  N   UNL     1       2.156   3.811   0.207  0.00  0.00    -0.210 N 
ATOM      2  C   UNL     1       1.676   2.929  -0.685  0.00  0.00    +0.232 C 
ATOM      3  O   UNL     1       1.379   3.173  -1.835  0.00  0.00    -0.274 OA
ATOM      4  C   UNL     1       1.569   1.580  -0.008  0.00  0.00    +0.113 C 
ATOM      5  C   UNL     1       0.192   0.962  -0.237  0.00  0.00    +0.100 C 
ATOM      6  C   UNL     1      -0.390   1.366  -1.566  0.00  0.00    -0.021 A 
ATOM      7  C   UNL     1       0.386   1.570  -2.667  0.00  0.00    +0.006 A 
ATOM      8  C   UNL     1      -0.191   1.943  -3.869  0.00  0.00    +0.000 A 
ATOM      9  C   UNL     1      -1.561   2.113  -3.964  0.00  0.00    +0.001 A 
ATOM     10  C   UNL     1      -2.364   1.912  -2.860  0.00  0.00    +0.008 A 
ATOM     11  C   UNL     1      -1.792   1.533  -1.645  0.00  0.00    -0.019 A 
ATOM     12  C   UNL     1      -2.644   1.311  -0.459  0.00  0.00    +0.022 C 
ATOM     13  C   UNL     1      -2.082   1.295   0.767  0.00  0.00    +0.054 C 
ATOM     14  C   UNL     1       0.070   2.174   1.821  0.00  0.00    +0.141 C 
ATOM     15  C   UNL     1       1.565   1.974   1.501  0.00  0.00    +0.116 C 
ATOM     16  C   UNL     1       2.245   3.333   1.458  0.00  0.00    +0.232 C 
ATOM     17  O   UNL     1       2.776   3.890   2.394  0.00  0.00    -0.274 OA
ATOM     18  N   UNL     1      -0.585   1.179   0.989  0.00  0.00    -0.384 NA
ATOM     19  H   UNL     1      -0.486   0.308   1.523  0.00  0.00    +0.127 HD
ENDROOT
BRANCH   1  23
ATOM     20  C   UNL     1       3.273   7.697  -0.819  0.00  0.00    +0.120 A 
ATOM     21  C   UNL     1       1.940   7.316  -0.891  0.00  0.00    +0.047 A 
ATOM     22  C   UNL     1       1.571   6.030  -0.552  0.00  0.00    +0.027 A 
ATOM     23  C   UNL     1       2.532   5.118  -0.139  0.00  0.00    +0.044 A 
ATOM     24  C   UNL     1       3.864   5.501  -0.061  0.00  0.00    +0.027 A 
ATOM     25  C   UNL     1       4.234   6.786  -0.406  0.00  0.00    +0.047 A 
BRANCH  20  27
ATOM     26  C   UNL     1       5.025   9.287  -1.056  0.00  0.00    +0.277 C 
ATOM     27  O   UNL     1       3.636   8.964  -1.154  0.00  0.00    -0.495 OA
ENDBRANCH  20  27
ENDBRANCH   1  23
BRANCH  14  28
ATOM     28  C   UNL     1      -0.276   3.639   1.751  0.00  0.00    +0.183 C 
ATOM     29  O   UNL     1      -0.897   4.071   0.803  0.00  0.00    -0.290 OA
BRANCH  28  30
ATOM     30  C   UNL     1       0.138   4.543   2.832  0.00  0.00    +0.023 A 
ATOM     31  C   UNL     1       0.850   4.045   3.930  0.00  0.00    +0.015 A 
ATOM     32  C   UNL     1       1.242   4.896   4.939  0.00  0.00    +0.050 A 
ATOM     33  C   UNL     1       0.924   6.247   4.878  0.00  0.00    +0.166 A 
ATOM     34  C   UNL     1       0.210   6.750   3.788  0.00  0.00    +0.167 A 
ATOM     35  C   UNL     1      -0.182   5.905   2.770  0.00  0.00    +0.061 A 
ATOM     36  O   UNL     1       0.029   8.091   3.968  0.00  0.00    -0.453 OA
ATOM     37  C   UNL     1       0.989   8.476   4.970  0.00  0.00    +0.466 C 
ATOM     38  O   UNL     1       1.187   7.273   5.735  0.00  0.00    -0.453 OA
ENDBRANCH  28  30
ENDBRANCH  14  28
TORSDOF 4
