REMARK  Name = ZINC39658436
REMARK  10 active torsions:
REMARK  status: ('A' for Active; 'I' for Inactive)
REMARK    1  A    between atoms: C_1  and  C_2
REMARK    2  A    between atoms: C_2  and  C_3
REMARK    3  A    between atoms: C_3  and  C_5
REMARK    4  A    between atoms: C_3  and  C_6
REMARK    5  A    between atoms: C_10  and  C_19
REMARK    6  A    between atoms: N_21  and  C_22
REMARK    7  A    between atoms: C_22  and  C_23
REMARK    8  A    between atoms: C_23  and  S_24
REMARK    9  A    between atoms: S_24  and  C_25
REMARK   10  A    between atoms: C_25  and  C_26
REMARK                            x       y       z     vdW  Elec       q    Type
REMARK                         _______ _______ _______ _____ _____    ______ ____
ROOT
ATOM      1  C   UNL     1       0.658  -2.174   1.255  0.00  0.00    +0.218 C 
ATOM      2  O   UNL     1       0.025  -2.802   0.433  0.00  0.00    -0.275 OA
ATOM      3  N   UNL     1       1.224  -2.810   2.300  0.00  0.00    -0.300 N 
ATOM      4  C   UNL     1       2.022  -2.219   3.400  0.00  0.00    +0.121 C 
ATOM      5  C   UNL     1       1.572  -2.985   4.664  0.00  0.00    +0.100 C 
ATOM      6  C   UNL     1       1.028  -4.324   4.139  0.00  0.00    -0.004 C 
ATOM      7  C   UNL     1       1.183  -4.259   2.612  0.00  0.00    +0.115 C 
ATOM      8  C   UNL     1       1.842  -5.483   4.705  0.00  0.00    -0.010 C 
ATOM      9  C   UNL     1       1.246  -6.806   4.215  0.00  0.00    -0.082 C 
ATOM     10  N   UNL     1      -0.152  -6.906   4.649  0.00  0.00    +0.379 N 
ATOM     11  C   UNL     1      -0.947  -5.841   4.026  0.00  0.00    -0.082 C 
ATOM     12  C   UNL     1      -0.445  -4.477   4.508  0.00  0.00    -0.010 C 
ATOM     13  H   UNL     1      -0.524  -7.804   4.377  0.00  0.00    -0.086 HD
ATOM     14  H   UNL     1      -0.199  -6.815   5.653  0.00  0.00    -0.086 HD
ENDROOT
BRANCH   5  15
ATOM     15  C   UNL     1       2.744  -3.216   5.583  0.00  0.00    +0.218 C 
ATOM     16  O   UNL     1       3.859  -3.346   5.122  0.00  0.00    -0.275 OA
ATOM     17  N   UNL     1       2.554  -3.277   6.916  0.00  0.00    -0.314 N 
ATOM     18  H   UNL     1       1.663  -3.173   7.284  0.00  0.00    +0.149 HD
BRANCH  17  19
ATOM     19  C   UNL     1       3.694  -3.502   7.808  0.00  0.00    +0.115 C 
BRANCH  19  20
ATOM     20  C   UNL     1       3.208  -3.529   9.259  0.00  0.00    +0.088 C 
BRANCH  20  21
ATOM     21  S   UNL     1       4.619  -3.807  10.364  0.00  0.00    -0.155 S 
BRANCH  21  22
ATOM     22  C   UNL     1       3.884  -3.812  12.022  0.00  0.00    +0.104 C 
BRANCH  22  23
ATOM     23  C   UNL     1       4.963  -4.037  13.050  0.00  0.00    -0.038 A 
ATOM     24  C   UNL     1       5.290  -5.322  13.438  0.00  0.00    +0.004 A 
ATOM     25  C   UNL     1       6.280  -5.529  14.381  0.00  0.00    +0.000 A 
ATOM     26  C   UNL     1       6.943  -4.449  14.935  0.00  0.00    +0.000 A 
ATOM     27  C   UNL     1       6.616  -3.164  14.546  0.00  0.00    +0.000 A 
ATOM     28  C   UNL     1       5.629  -2.958  13.600  0.00  0.00    +0.004 A 
ENDBRANCH  22  23
ENDBRANCH  21  22
ENDBRANCH  20  21
ENDBRANCH  19  20
ENDBRANCH  17  19
ENDBRANCH   5  15
BRANCH   1  29
ATOM     29  C   UNL     1       0.813  -0.682   1.108  0.00  0.00    +0.072 C 
ATOM     30  C   UNL     1       2.298  -0.332   0.995  0.00  0.00    +0.017 C 
BRANCH  29  32
ATOM     31  C   UNL     1       0.131   1.311  -0.235  0.00  0.00    +0.004 C 
ATOM     32  C   UNL     1       0.081  -0.215  -0.152  0.00  0.00    +0.009 C 
ENDBRANCH  29  32
ENDBRANCH   1  29
TORSDOF 8
