REMARK  Name = ZINC30534091
REMARK  9 active torsions:
REMARK  status: ('A' for Active; 'I' for Inactive)
REMARK    1  A    between atoms: C_5  and  O_7
REMARK    2  A    between atoms: O_7  and  C_8
REMARK    3  A    between atoms: C_8  and  C_9
REMARK    4  A    between atoms: C_9  and  C_11
REMARK    5  A    between atoms: C_9  and  O_29
REMARK    6  A    between atoms: C_11  and  N_12
REMARK    7  A    between atoms: C_15  and  N_18
REMARK    8  A    between atoms: N_18  and  S_19
REMARK    9  A    between atoms: S_19  and  C_22
REMARK                            x       y       z     vdW  Elec       q    Type
REMARK                         _______ _______ _______ _____ _____    ______ ____
ROOT
ATOM      1  N   UNL     1       1.427   2.036  -0.263  0.00  0.00    +0.382 N 
ATOM      2  C   UNL     1       0.091   1.486  -0.523  0.00  0.00    -0.077 C 
ATOM      3  C   UNL     1       0.201  -0.016  -0.797  0.00  0.00    +0.002 C 
ATOM      4  C   UNL     1       0.830  -0.706   0.416  0.00  0.00    +0.073 C 
ATOM      5  C   UNL     1       2.200  -0.082   0.695  0.00  0.00    +0.002 C 
ATOM      6  C   UNL     1       2.032   1.422   0.926  0.00  0.00    -0.077 C 
ATOM      7  H   UNL     1       2.063   1.794  -1.126  0.00  0.00    -0.082 HD
ENDROOT
BRANCH   4   8
ATOM      8  N   UNL     1       0.992  -2.135   0.137  0.00  0.00    -0.187 NA
ATOM      9  H   UNL     1       1.076  -2.487  -0.902  0.00  0.00    +0.148 HD
BRANCH   8  10
ATOM     10  S   UNL     1       0.800  -3.244   1.352  0.00  0.00    +0.059 S 
ATOM     11  O   UNL     1       0.991  -4.525   0.768  0.00  0.00    -0.153 OA
ATOM     12  O   UNL     1       1.578  -2.783   2.448  0.00  0.00    -0.153 OA
BRANCH  10  13
ATOM     13  C   UNL     1      -0.885  -3.169   1.864  0.00  0.00    +0.105 A 
ATOM     14  C   UNL     1      -1.261  -2.307   2.877  0.00  0.00    +0.031 A 
ATOM     15  C   UNL     1      -2.583  -2.244   3.275  0.00  0.00    +0.040 A 
ATOM     16  C   UNL     1      -3.528  -3.053   2.668  0.00  0.00    +0.124 A 
ATOM     17  C   UNL     1      -3.149  -3.921   1.657  0.00  0.00    +0.040 A 
ATOM     18  C   UNL     1      -1.827  -3.978   1.257  0.00  0.00    +0.031 A 
ATOM     19  F   UNL     1      -4.820  -2.996   3.060  0.00  0.00    -0.205 F 
ENDBRANCH  10  13
ENDBRANCH   8  10
ENDBRANCH   4   8
BRANCH   1  20
ATOM     20  C   UNL     1       1.378   3.499  -0.132  0.00  0.00    -0.044 C 
BRANCH  20  21
ATOM     21  C   UNL     1       2.767   4.025   0.232  0.00  0.00    +0.135 C 
BRANCH  21  22
ATOM     22  O   UNL     1       3.701   3.645  -0.781  0.00  0.00    -0.390 OA
ATOM     23  H   UNL     1       3.869   2.581  -1.002  0.00  0.00    +0.210 HD
ENDBRANCH  21  22
BRANCH  21  24
ATOM     24  C   UNL     1       2.723   5.551   0.337  0.00  0.00    +0.258 C 
BRANCH  24  25
ATOM     25  O   UNL     1       3.989   6.034   0.789  0.00  0.00    -0.487 OA
BRANCH  25  30
ATOM     26  C   UNL     1       3.186   9.583   0.805  0.00  0.00    +0.004 A 
ATOM     27  C   UNL     1       4.384  10.118   1.239  0.00  0.00    +0.003 A 
ATOM     28  C   UNL     1       5.452   9.287   1.524  0.00  0.00    +0.042 A 
ATOM     29  C   UNL     1       5.323   7.918   1.374  0.00  0.00    +0.165 A 
ATOM     30  C   UNL     1       4.120   7.379   0.938  0.00  0.00    +0.156 A 
ATOM     31  C   UNL     1       3.053   8.217   0.649  0.00  0.00    +0.048 A 
ATOM     32  F   UNL     1       6.367   7.106   1.651  0.00  0.00    -0.202 F 
ENDBRANCH  25  30
ENDBRANCH  24  25
ENDBRANCH  21  24
ENDBRANCH  20  21
ENDBRANCH   1  20
TORSDOF 9
