REMARK  Name = ZINC01668769
REMARK  12 active torsions:
REMARK  status: ('A' for Active; 'I' for Inactive)
REMARK    1  A    between atoms: C_1  and  O_2
REMARK    2  A    between atoms: O_2  and  C_3
REMARK    3  A    between atoms: C_5  and  C_10
REMARK    4  A    between atoms: C_8  and  O_9
REMARK    5  A    between atoms: C_14  and  O_29
REMARK    6  A    between atoms: C_15  and  O_27
REMARK    7  A    between atoms: C_19  and  C_24
REMARK    8  A    between atoms: C_19  and  O_26
REMARK    9  A    between atoms: C_20  and  C_22
REMARK   10  A    between atoms: C_22  and  O_23
REMARK   11  A    between atoms: C_24  and  O_25
REMARK   12  A    between atoms: O_27  and  C_28
REMARK                            x       y       z     vdW  Elec       q    Type
REMARK                         _______ _______ _______ _____ _____    ______ ____
ROOT
ATOM      1  C   UNL     1       2.403   0.379  -4.230  0.00  0.00    +0.057 C 
ATOM      2  C   UNL     1       3.877   0.078  -4.314  0.00  0.00    -0.033 A 
ATOM      3  C   UNL     1       4.577  -0.056  -3.122  0.00  0.00    +0.053 A 
ATOM      4  C   UNL     1       5.932  -0.326  -3.128  0.00  0.00    +0.159 A 
ATOM      5  C   UNL     1       6.600  -0.464  -4.342  0.00  0.00    +0.162 A 
ATOM      6  C   UNL     1       5.899  -0.332  -5.526  0.00  0.00    +0.053 A 
ATOM      7  C   UNL     1       4.536  -0.064  -5.515  0.00  0.00    -0.037 A 
ATOM      8  C   UNL     1       3.835   0.051  -6.843  0.00  0.00    +0.073 C 
ATOM      9  C   UNL     1       2.489   0.755  -6.682  0.00  0.00    +0.099 C 
ATOM     10  C   UNL     1       1.714   0.061  -5.555  0.00  0.00    +0.060 C 
ENDROOT
BRANCH   1  13
ATOM     11  C   UNL     1       0.606  -0.608  -1.056  0.00  0.00    +0.162 A 
ATOM     12  C   UNL     1       1.173   0.159  -2.062  0.00  0.00    +0.053 A 
ATOM     13  C   UNL     1       1.787  -0.456  -3.137  0.00  0.00    -0.036 A 
ATOM     14  C   UNL     1       1.837  -1.836  -3.212  0.00  0.00    +0.008 A 
ATOM     15  C   UNL     1       1.273  -2.606  -2.212  0.00  0.00    +0.049 A 
ATOM     16  C   UNL     1       0.662  -1.996  -1.129  0.00  0.00    +0.158 A 
BRANCH  11  18
ATOM     17  C   UNL     1      -0.017   1.425   0.010  0.00  0.00    +0.277 C 
ATOM     18  O   UNL     1       0.002  -0.004   0.002  0.00  0.00    -0.491 OA
ENDBRANCH  11  18
BRANCH  16  19
ATOM     19  O   UNL     1       0.112  -2.753  -0.142  0.00  0.00    -0.503 OA
ATOM     20  H   UNL     1      -0.816  -2.979  -0.291  0.00  0.00    +0.292 HD
ENDBRANCH  16  19
ENDBRANCH   1  13
BRANCH   9  21
ATOM     21  O   UNL     1       2.701   2.128  -6.347  0.00  0.00    -0.386 OA
ATOM     22  H   UNL     1       3.201   2.622  -7.010  0.00  0.00    +0.210 HD
ENDBRANCH   9  21
BRANCH   5  23
ATOM     23  O   UNL     1       7.934  -0.726  -4.362  0.00  0.00    -0.491 OA
ATOM     24  C   UNL     1       8.551  -0.854  -5.645  0.00  0.00    +0.277 C 
ENDBRANCH   5  23
BRANCH   4  25
ATOM     25  O   UNL     1       6.610  -0.456  -1.956  0.00  0.00    -0.503 OA
ATOM     26  H   UNL     1       6.633  -1.360  -1.614  0.00  0.00    +0.292 HD
ENDBRANCH   4  25
BRANCH  10  27
ATOM     27  C   UNL     1       0.275   0.581  -5.526  0.00  0.00    +0.163 C 
BRANCH  27  28
ATOM     28  O   UNL     1      -0.469  -0.132  -4.535  0.00  0.00    -0.395 OA
ATOM     29  H   UNL     1      -1.392   0.146  -4.461  0.00  0.00    +0.209 HD
ENDBRANCH  27  28
ENDBRANCH  10  27
BRANCH   9  30
ATOM     30  C   UNL     1       1.697   0.659  -7.987  0.00  0.00    +0.191 C 
BRANCH  30  31
ATOM     31  O   UNL     1       2.484   1.179  -9.061  0.00  0.00    -0.392 OA
ATOM     32  H   UNL     1       2.044   1.149  -9.921  0.00  0.00    +0.210 HD
ENDBRANCH  30  31
ENDBRANCH   9  30
TORSDOF 10
