REMARK  Name = ZINC58106356
REMARK  6 active torsions:
REMARK  status: ('A' for Active; 'I' for Inactive)
REMARK    1  A    between atoms: C_1  and  C_2
REMARK    2  A    between atoms: C_2  and  C_3
REMARK    3  A    between atoms: C_3  and  C_5
REMARK    4  A    between atoms: C_3  and  C_6
REMARK    5  A    between atoms: C_6  and  C_8
REMARK    6  A    between atoms: C_6  and  N_19
REMARK                            x       y       z     vdW  Elec       q    Type
REMARK                         _______ _______ _______ _____ _____    ______ ____
ROOT
ATOM      1  C   UNL     1       1.661  -2.496  -2.382  0.00  0.00    -0.059 A 
ATOM      2  C   UNL     1       2.999  -2.810  -2.221  0.00  0.00    +0.008 A 
ATOM      3  C   UNL     1       3.739  -3.243  -3.298  0.00  0.00    -0.014 A 
ATOM      4  C   UNL     1       3.159  -3.371  -4.554  0.00  0.00    +0.073 A 
ATOM      5  C   UNL     1       1.810  -3.054  -4.710  0.00  0.00    +0.145 A 
ATOM      6  C   UNL     1       1.069  -2.624  -3.626  0.00  0.00    +0.042 A 
ATOM      7  F   UNL     1       1.225  -3.171  -5.922  0.00  0.00    -0.204 F 
ATOM      8  N   UNL     1       4.104  -3.824  -5.478  0.00  0.00    -0.283 N 
ATOM      9  C   UNL     1       5.311  -4.015  -4.918  0.00  0.00    +0.222 C 
ATOM     10  O   UNL     1       6.312  -4.402  -5.482  0.00  0.00    -0.275 OA
ATOM     11  C   UNL     1       5.185  -3.655  -3.453  0.00  0.00    +0.133 C 
ATOM     12  H   UNL     1       3.911  -3.982  -6.415  0.00  0.00    +0.155 HD
ENDROOT
BRANCH   1  13
ATOM     13  C   UNL     1       0.849  -2.021  -1.205  0.00  0.00    -0.041 C 
BRANCH  13  14
ATOM     14  N   UNL     1      -0.487  -2.629  -1.254  0.00  0.00    +0.383 N 
ATOM     15  H   UNL     1      -0.401  -3.634  -1.220  0.00  0.00    -0.089 HD
ATOM     16  H   UNL     1      -1.030  -2.312  -0.466  0.00  0.00    -0.089 HD
ATOM     17  H   UNL     1      -0.948  -2.360  -2.111  0.00  0.00    -0.089 HD
ENDBRANCH  13  14
BRANCH  13  18
ATOM     18  C   UNL     1       0.718  -0.497  -1.257  0.00  0.00    -0.025 C 
ATOM     19  C   UNL     1      -0.089  -0.097  -2.493  0.00  0.00    +0.006 C 
BRANCH  18  21
ATOM     20  C   UNL     1      -0.019   1.526   0.010  0.00  0.00    +0.004 C 
ATOM     21  C   UNL     1       0.002  -0.004   0.002  0.00  0.00    -0.002 C 
ENDBRANCH  18  21
ENDBRANCH  13  18
ENDBRANCH   1  13
TORSDOF 4
