REMARK  Name = ZINC00744665
REMARK  12 active torsions:
REMARK  status: ('A' for Active; 'I' for Inactive)
REMARK    1  A    between atoms: C_1  and  C_2
REMARK    2  A    between atoms: C_2  and  C_40
REMARK    3  A    between atoms: C_7  and  C_11
REMARK    4  A    between atoms: C_11  and  N_12
REMARK    5  A    between atoms: N_12  and  C_13
REMARK    6  A    between atoms: C_13  and  C_14
REMARK    7  A    between atoms: C_14  and  N_15
REMARK    8  A    between atoms: C_21  and  C_23
REMARK    9  A    between atoms: C_26  and  O_29
REMARK   10  A    between atoms: O_29  and  C_30
REMARK   11  A    between atoms: C_31  and  C_33
REMARK   12  A    between atoms: C_33  and  C_34
REMARK                            x       y       z     vdW  Elec       q    Type
REMARK                         _______ _______ _______ _____ _____    ______ ____
ROOT
ATOM      1  N   UNL     1       7.974  -4.602   2.351  0.00  0.00    -0.299 N 
ATOM      2  C   UNL     1       8.146  -4.484   3.682  0.00  0.00    +0.220 C 
ATOM      3  O   UNL     1       7.490  -3.680   4.310  0.00  0.00    -0.275 OA
ENDROOT
BRANCH   1   4
ATOM      4  C   UNL     1       8.834  -5.502   1.578  0.00  0.00    +0.138 C 
BRANCH   4  10
ATOM      5  C   UNL     1      10.442  -1.450  -0.849  0.00  0.00    +0.012 C 
ATOM      6  C   UNL     1      10.685  -2.523   0.215  0.00  0.00    -0.025 C 
ATOM      7  C   UNL     1      12.032  -3.251   0.070  0.00  0.00    -0.000 C 
ATOM      8  C   UNL     1      12.402  -4.073   1.312  0.00  0.00    +0.031 C 
ATOM      9  C   UNL     1      11.188  -4.824   1.804  0.00  0.00    -0.025 C 
ATOM     10  C   UNL     1      10.065  -4.757   1.128  0.00  0.00    -0.053 C 
ATOM     11  C   UNL     1      10.052  -3.896  -0.123  0.00  0.00    +0.022 C 
ATOM     12  C   UNL     1      11.313  -4.129  -0.975  0.00  0.00    +0.012 C 
ATOM     13  C   UNL     1      10.392  -2.039   1.636  0.00  0.00    +0.012 C 
ENDBRANCH   4  10
ENDBRANCH   1   4
BRANCH   1  14
ATOM     14  C   UNL     1       6.928  -3.829   1.676  0.00  0.00    +0.089 C 
BRANCH  14  15
ATOM     15  C   UNL     1       5.630  -4.638   1.657  0.00  0.00    -0.059 C 
BRANCH  15  16
ATOM     16  N   UNL     1       4.580  -3.864   0.980  0.00  0.00    +0.383 N 
ATOM     17  C   UNL     1       3.267  -4.499   1.148  0.00  0.00    -0.059 C 
ATOM     18  C   UNL     1       2.235  -3.767   0.283  0.00  0.00    +0.089 C 
ATOM     19  N   UNL     1       2.280  -2.334   0.613  0.00  0.00    -0.301 N 
ATOM     20  C   UNL     1       3.586  -1.657   0.595  0.00  0.00    +0.089 C 
ATOM     21  C   UNL     1       4.565  -2.473   1.453  0.00  0.00    -0.059 C 
ATOM     22  C   UNL     1       1.155  -1.659   0.920  0.00  0.00    +0.246 C 
ATOM     23  O   UNL     1       0.098  -2.253   1.020  0.00  0.00    -0.270 OA
ATOM     24  H   UNL     1       4.810  -3.849  -0.096  0.00  0.00    -0.082 HD
BRANCH  22  25
ATOM     25  C   UNL     1       1.204  -0.200   1.133  0.00  0.00    +0.037 A 
ATOM     26  C   UNL     1       0.345   0.403   2.056  0.00  0.00    +0.016 A 
ATOM     27  C   UNL     1       0.395   1.765   2.253  0.00  0.00    +0.046 A 
ATOM     28  C   UNL     1       1.299   2.540   1.536  0.00  0.00    +0.120 A 
ATOM     29  C   UNL     1       2.155   1.944   0.617  0.00  0.00    +0.046 A 
ATOM     30  C   UNL     1       2.111   0.583   0.414  0.00  0.00    +0.016 A 
BRANCH  28  31
ATOM     31  O   UNL     1       1.345   3.882   1.732  0.00  0.00    -0.495 OA
ATOM     32  C   UNL     1       2.297   4.618   0.962  0.00  0.00    +0.277 C 
ENDBRANCH  28  31
ENDBRANCH  22  25
ENDBRANCH  15  16
ENDBRANCH  14  15
ENDBRANCH   1  14
BRANCH   2  33
ATOM     33  C   UNL     1       9.154  -5.351   4.392  0.00  0.00    +0.131 C 
BRANCH  33  34
ATOM     34  C   UNL     1       9.041  -5.139   5.879  0.00  0.00    -0.039 A 
ATOM     35  C   UNL     1       9.799  -4.162   6.497  0.00  0.00    +0.004 A 
ATOM     36  C   UNL     1       9.692  -3.964   7.861  0.00  0.00    +0.000 A 
ATOM     37  C   UNL     1       8.834  -4.749   8.609  0.00  0.00    +0.000 A 
ATOM     38  C   UNL     1       8.080  -5.729   7.991  0.00  0.00    +0.000 A 
ATOM     39  C   UNL     1       8.183  -5.924   6.627  0.00  0.00    +0.004 A 
ENDBRANCH  33  34
ENDBRANCH   2  33
TORSDOF 9
