REMARK  Name = ZINC18046179
REMARK  7 active torsions:
REMARK  status: ('A' for Active; 'I' for Inactive)
REMARK    1  A    between atoms: C_1  and  C_2
REMARK    2  A    between atoms: C_2  and  O_3
REMARK    3  A    between atoms: O_3  and  C_4
REMARK    4  A    between atoms: C_6  and  C_14
REMARK    5  A    between atoms: C_8  and  N_11
REMARK    6  A    between atoms: C_9  and  O_10
REMARK    7  A    between atoms: N_23  and  C_26
REMARK                            x       y       z     vdW  Elec       q    Type
REMARK                         _______ _______ _______ _____ _____    ______ ____
ROOT
ATOM      1  C   UNL     1      -0.217  -4.963  -0.535  0.00  0.00    +0.190 C 
ATOM      2  N   UNL     1      -0.603  -6.231   0.109  0.00  0.00    -0.316 N 
ATOM      3  C   UNL     1      -1.815  -6.251   0.755  0.00  0.00    +0.080 A 
ATOM      4  C   UNL     1      -2.859  -5.374   0.422  0.00  0.00    +0.068 A 
ATOM      5  C   UNL     1      -4.069  -5.517   1.209  0.00  0.00    -0.027 A 
ATOM      6  C   UNL     1      -4.018  -6.486   2.152  0.00  0.00    -0.021 A 
ATOM      7  S   UNL     1      -2.401  -7.188   1.993  0.00  0.00    -0.080 S 
ATOM      8  C   UNL     1      -5.112  -6.851   3.105  0.00  0.00    -0.036 C 
ATOM      9  N   UNL     1      -6.101  -5.757   3.116  0.00  0.00    +0.381 N 
ATOM     10  C   UNL     1      -6.480  -5.421   1.738  0.00  0.00    -0.074 C 
ATOM     11  C   UNL     1      -5.332  -4.684   1.040  0.00  0.00    +0.018 C 
ATOM     12  C   UNL     1      -7.294  -6.184   3.861  0.00  0.00    -0.096 C 
ATOM     13  C   UNL     1      -2.626  -4.416  -0.682  0.00  0.00    +0.248 C 
ATOM     14  O   UNL     1      -3.533  -3.750  -1.146  0.00  0.00    -0.270 OA
ATOM     15  N   UNL     1      -1.366  -4.311  -1.154  0.00  0.00    -0.289 N 
ATOM     16  H   UNL     1      -0.030  -7.013   0.077  0.00  0.00    +0.149 HD
ATOM     17  H   UNL     1      -1.217  -3.773  -1.947  0.00  0.00    +0.151 HD
ATOM     18  H   UNL     1      -5.700  -4.946   3.562  0.00  0.00    -0.082 HD
ENDROOT
BRANCH   1  21
ATOM     19  C   UNL     1       0.802  -1.825   1.306  0.00  0.00    +0.164 A 
ATOM     20  C   UNL     1       0.261  -2.673   0.353  0.00  0.00    +0.056 A 
ATOM     21  C   UNL     1       0.372  -4.043   0.502  0.00  0.00    -0.004 A 
ATOM     22  C   UNL     1       1.024  -4.570   1.602  0.00  0.00    +0.043 A 
ATOM     23  C   UNL     1       1.566  -3.730   2.557  0.00  0.00    +0.171 A 
ATOM     24  C   UNL     1       1.462  -2.356   2.410  0.00  0.00    +0.189 A 
BRANCH  23  25
ATOM     25  N   UNL     1       2.263  -4.298   3.733  0.00  0.00    +0.060 N 
ATOM     26  O   UNL     1       2.357  -5.497   3.859  0.00  0.00    -0.126 OA
ATOM     27  O   UNL     1       2.737  -3.563   4.567  0.00  0.00    -0.126 OA
ENDBRANCH  23  25
BRANCH  24  28
ATOM     28  O   UNL     1       2.000  -1.528   3.345  0.00  0.00    -0.502 OA
ATOM     29  H   UNL     1       1.395  -1.301   4.064  0.00  0.00    +0.292 HD
ENDBRANCH  24  28
BRANCH  19  30
ATOM     30  O   UNL     1       0.693  -0.477   1.160  0.00  0.00    -0.488 OA
BRANCH  30  32
ATOM     31  C   UNL     1      -0.019   1.526   0.010  0.00  0.00    +0.048 C 
ATOM     32  C   UNL     1       0.002  -0.004   0.002  0.00  0.00    +0.226 C 
ENDBRANCH  30  32
ENDBRANCH  19  30
ENDBRANCH   1  21
TORSDOF 5
