REMARK  Name = ZINC11592930
REMARK  12 active torsions:
REMARK  status: ('A' for Active; 'I' for Inactive)
REMARK    1  A    between atoms: C_1  and  C_2
REMARK    2  A    between atoms: C_4  and  O_42
REMARK    3  A    between atoms: C_6  and  N_67
REMARK    4  A    between atoms: C_9  and  O_12
REMARK    5  A    between atoms: O_12  and  C_13
REMARK    6  A    between atoms: C_16  and  C_38
REMARK    7  A    between atoms: C_16  and  O_41
REMARK    8  A    between atoms: C_20  and  O_37
REMARK    9  A    between atoms: C_23  and  O_24
REMARK   10  A    between atoms: C_31  and  O_35
REMARK   11  A    between atoms: O_35  and  C_36
REMARK   12  A    between atoms: C_38  and  C_40
REMARK                            x       y       z     vdW  Elec       q    Type
REMARK                         _______ _______ _______ _____ _____    ______ ____
ROOT
ATOM      1  C   UNL     1       5.048  -2.730  -0.051  0.00  0.00    +0.158 C 
ATOM      2  C   UNL     1       4.882  -4.189   0.367  0.00  0.00    +0.079 C 
ATOM      3  C   UNL     1       3.743  -4.800  -0.458  0.00  0.00    +0.130 C 
ATOM      4  C   UNL     1       2.427  -4.177   0.005  0.00  0.00    +0.082 C 
ATOM      5  C   UNL     1       2.524  -2.673   0.011  0.00  0.00    +0.007 A 
ATOM      6  C   UNL     1       3.725  -2.010  -0.009  0.00  0.00    +0.030 A 
ATOM      7  C   UNL     1       3.754  -0.609   0.006  0.00  0.00    +0.134 A 
ATOM      8  C   UNL     1       2.570   0.124   0.039  0.00  0.00    +0.078 A 
ATOM      9  C   UNL     1       1.336  -0.557   0.057  0.00  0.00    +0.078 A 
ATOM     10  C   UNL     1       1.324  -1.951   0.041  0.00  0.00    +0.132 A 
ATOM     11  C   UNL     1       0.074   0.202   0.091  0.00  0.00    +0.198 C 
ATOM     12  O   UNL     1      -0.990  -0.385   0.105  0.00  0.00    -0.286 OA
ATOM     13  C   UNL     1       0.105   1.679   0.109  0.00  0.00    +0.037 A 
ATOM     14  C   UNL     1      -1.081   2.405   0.149  0.00  0.00    +0.012 A 
ATOM     15  C   UNL     1      -1.047   3.790   0.160  0.00  0.00    +0.004 A 
ATOM     16  C   UNL     1       0.158   4.462   0.141  0.00  0.00    +0.046 A 
ATOM     17  C   UNL     1       1.357   3.756   0.107  0.00  0.00    +0.132 A 
ATOM     18  C   UNL     1       1.338   2.358   0.091  0.00  0.00    +0.075 A 
ATOM     19  C   UNL     1       2.600   1.597   0.055  0.00  0.00    +0.202 C 
ATOM     20  O   UNL     1       3.665   2.184   0.040  0.00  0.00    -0.286 OA
ENDROOT
BRANCH   3  21
ATOM     21  C   UNL     1       3.703  -6.291  -0.244  0.00  0.00    +0.162 C 
ATOM     22  O   UNL     1       4.066  -6.759   0.808  0.00  0.00    -0.295 OA
ATOM     23  C   UNL     1       3.211  -7.197  -1.342  0.00  0.00    +0.089 C 
ENDBRANCH   3  21
BRANCH  10  24
ATOM     24  O   UNL     1       0.141  -2.613   0.057  0.00  0.00    -0.506 OA
ATOM     25  H   UNL     1      -0.220  -2.796  -0.822  0.00  0.00    +0.292 HD
ENDBRANCH  10  24
BRANCH  17  26
ATOM     26  O   UNL     1       2.538   4.421   0.088  0.00  0.00    -0.494 OA
ATOM     27  C   UNL     1       2.480   5.849   0.106  0.00  0.00    +0.277 C 
ENDBRANCH  17  26
BRANCH   7  28
ATOM     28  O   UNL     1       4.945   0.039  -0.012  0.00  0.00    -0.506 OA
ATOM     29  H   UNL     1       5.272   0.286   0.864  0.00  0.00    +0.292 HD
ENDBRANCH   7  28
BRANCH   3  30
ATOM     30  O   UNL     1       3.947  -4.517  -1.844  0.00  0.00    -0.381 OA
ATOM     31  H   UNL     1       3.261  -4.876  -2.424  0.00  0.00    +0.211 HD
ENDBRANCH   3  30
BRANCH   1  32
ATOM     32  O   UNL     1       5.963  -2.087   0.839  0.00  0.00    -0.343 OA
BRANCH  32  38
ATOM     33  C   UNL     1       7.465  -5.250   3.151  0.00  0.00    +0.040 C 
ATOM     34  C   UNL     1       7.267  -3.832   2.613  0.00  0.00    +0.145 C 
ATOM     35  C   UNL     1       8.113  -2.853   3.432  0.00  0.00    +0.129 C 
ATOM     36  C   UNL     1       7.864  -1.429   2.926  0.00  0.00    -0.039 C 
ATOM     37  C   UNL     1       6.366  -1.120   3.018  0.00  0.00    +0.048 C 
ATOM     38  C   UNL     1       5.588  -2.166   2.216  0.00  0.00    +0.250 C 
ATOM     39  O   UNL     1       5.888  -3.470   2.717  0.00  0.00    -0.346 OA
BRANCH  36  42
ATOM     40  H   UNL     1       8.459   0.473   3.445  0.00  0.00    -0.090 HD
ATOM     41  H   UNL     1       8.377  -0.579   4.730  0.00  0.00    -0.090 HD
ATOM     42  N   UNL     1       8.637  -0.483   3.750  0.00  0.00    +0.382 N 
ATOM     43  H   UNL     1       9.639  -0.686   3.647  0.00  0.00    -0.090 HD
ENDBRANCH  36  42
BRANCH  35  44
ATOM     44  O   UNL     1       7.746  -2.941   4.810  0.00  0.00    -0.391 OA
ATOM     45  H   UNL     1       7.878  -3.818   5.196  0.00  0.00    +0.210 HD
ENDBRANCH  35  44
ENDBRANCH  32  38
ENDBRANCH   1  32
TORSDOF 9
