REMARK  Name = ZINC38659536
REMARK  14 active torsions:
REMARK  status: ('A' for Active; 'I' for Inactive)
REMARK    1  A    between atoms: C_1  and  C_2
REMARK    2  A    between atoms: C_2  and  O_3
REMARK    3  A    between atoms: O_3  and  C_4
REMARK    4  A    between atoms: C_7  and  C_10
REMARK    5  A    between atoms: C_10  and  O_12
REMARK    6  A    between atoms: O_12  and  C_13
REMARK    7  A    between atoms: C_20  and  N_37
REMARK    8  A    between atoms: C_21  and  C_35
REMARK    9  A    between atoms: C_22  and  C_24
REMARK   10  A    between atoms: C_27  and  O_32
REMARK   11  A    between atoms: C_28  and  O_30
REMARK   12  A    between atoms: O_30  and  C_31
REMARK   13  A    between atoms: O_32  and  C_33
REMARK   14  A    between atoms: C_33  and  C_34
REMARK                            x       y       z     vdW  Elec       q    Type
REMARK                         _______ _______ _______ _____ _____    ______ ____
ROOT
ATOM      1  C   UNL     1       1.840  -7.899   2.837  0.00  0.00    +0.135 A 
ATOM      2  C   UNL     1       1.321  -8.622   1.772  0.00  0.00    +0.047 A 
ATOM      3  C   UNL     1       1.387 -10.001   1.776  0.00  0.00    +0.012 A 
ATOM      4  C   UNL     1       1.970 -10.668   2.840  0.00  0.00    +0.008 A 
ATOM      5  C   UNL     1       2.490  -9.951   3.906  0.00  0.00    +0.138 A 
ATOM      6  C   UNL     1       2.429  -8.564   3.900  0.00  0.00    +0.093 A 
ATOM      7  O   UNL     1       3.066 -10.587   4.956  0.00  0.00    -0.441 OA
ATOM      8  C   UNL     1       2.808 -11.887   5.175  0.00  0.00    +0.199 C 
ATOM      9  C   UNL     1       2.316 -12.694   4.206  0.00  0.00    +0.098 C 
ATOM     10  C   UNL     1       2.032 -12.172   2.825  0.00  0.00    +0.098 C 
ENDROOT
BRANCH  10  11
ATOM     11  C   UNL     1       3.125 -12.618   1.888  0.00  0.00    -0.031 A 
ATOM     12  C   UNL     1       4.433 -12.233   2.122  0.00  0.00    +0.008 A 
ATOM     13  C   UNL     1       5.439 -12.639   1.265  0.00  0.00    +0.050 A 
ATOM     14  C   UNL     1       5.139 -13.434   0.170  0.00  0.00    +0.162 A 
ATOM     15  C   UNL     1       3.823 -13.821  -0.064  0.00  0.00    +0.162 A 
ATOM     16  C   UNL     1       2.820 -13.415   0.801  0.00  0.00    +0.054 A 
BRANCH  15  17
ATOM     17  O   UNL     1       3.523 -14.600  -1.138  0.00  0.00    -0.491 OA
ATOM     18  C   UNL     1       2.151 -14.959  -1.316  0.00  0.00    +0.277 C 
ENDBRANCH  15  17
BRANCH  14  19
ATOM     19  O   UNL     1       6.128 -13.833  -0.673  0.00  0.00    -0.489 OA
BRANCH  19  20
ATOM     20  C   UNL     1       7.454 -13.397  -0.371  0.00  0.00    +0.226 C 
ATOM     21  C   UNL     1       8.423 -13.942  -1.423  0.00  0.00    +0.048 C 
ENDBRANCH  19  20
ENDBRANCH  14  19
ENDBRANCH  10  11
BRANCH   8  22
ATOM     22  N   UNL     1       3.052 -12.413   6.420  0.00  0.00    -0.328 N 
ATOM     23  H   UNL     1       3.404 -11.848   7.125  0.00  0.00    +0.145 HD
ATOM     24  H   UNL     1       2.871 -13.351   6.594  0.00  0.00    +0.145 HD
ENDBRANCH   8  22
BRANCH   9  25
ATOM     25  C   UNL     1       2.061 -14.072   4.502  0.00  0.00    +0.101 C 
ATOM     26  N   UNL     1       1.859 -15.165   4.736  0.00  0.00    -0.191 NA
ENDBRANCH   9  25
BRANCH   1  27
ATOM     27  O   UNL     1       1.776  -6.542   2.834  0.00  0.00    -0.422 OA
BRANCH  27  28
ATOM     28  C   UNL     1       2.897  -5.856   2.532  0.00  0.00    +0.344 C 
ATOM     29  O   UNL     1       3.944  -6.449   2.361  0.00  0.00    -0.245 OA
BRANCH  28  33
ATOM     30  C   UNL     1       2.767  -1.628   2.178  0.00  0.00    +0.121 A 
ATOM     31  C   UNL     1       3.966  -2.303   1.982  0.00  0.00    +0.046 A 
ATOM     32  C   UNL     1       4.013  -3.674   2.096  0.00  0.00    +0.018 A 
ATOM     33  C   UNL     1       2.852  -4.388   2.409  0.00  0.00    +0.060 A 
ATOM     34  C   UNL     1       1.648  -3.704   2.606  0.00  0.00    +0.018 A 
ATOM     35  C   UNL     1       1.611  -2.332   2.495  0.00  0.00    +0.046 A 
BRANCH  30  36
ATOM     36  O   UNL     1       2.725  -0.276   2.065  0.00  0.00    -0.492 OA
BRANCH  36  38
ATOM     37  C   UNL     1       3.707   1.894   1.653  0.00  0.00    +0.048 C 
ATOM     38  C   UNL     1       3.949   0.385   1.737  0.00  0.00    +0.225 C 
ENDBRANCH  36  38
ENDBRANCH  30  36
ENDBRANCH  28  33
ENDBRANCH  27  28
ENDBRANCH   1  27
TORSDOF 11
