REMARK  Name = ZINC53113146
REMARK  7 active torsions:
REMARK  status: ('A' for Active; 'I' for Inactive)
REMARK    1  A    between atoms: C_1  and  C_2
REMARK    2  A    between atoms: C_7  and  C_9
REMARK    3  A    between atoms: C_7  and  N_11
REMARK    4  A    between atoms: C_9  and  O_10
REMARK    5  A    between atoms: N_11  and  S_12
REMARK    6  A    between atoms: S_12  and  C_15
REMARK    7  A    between atoms: C_20  and  N_21
REMARK                            x       y       z     vdW  Elec       q    Type
REMARK                         _______ _______ _______ _____ _____    ______ ____
ROOT
ATOM      1  N   UNL     1      -0.649  -2.072   1.391  0.00  0.00    -0.182 NA
ATOM      2  H   UNL     1      -1.111  -1.222   1.325  0.00  0.00    +0.149 HD
ENDROOT
BRANCH   1   8
ATOM      3  C   UNL     1       1.245   1.432  -0.223  0.00  0.00    +0.007 C 
ATOM      4  C   UNL     1       0.674   0.016  -0.119  0.00  0.00    -0.012 C 
ATOM      5  C   UNL     1       0.917  -0.730  -1.433  0.00  0.00    +0.003 C 
ATOM      6  C   UNL     1       0.345  -2.145  -1.329  0.00  0.00    +0.002 C 
ATOM      7  C   UNL     1       1.034  -2.891  -0.184  0.00  0.00    +0.026 C 
ATOM      8  C   UNL     1       0.791  -2.145   1.130  0.00  0.00    +0.063 C 
ATOM      9  C   UNL     1       1.363  -0.729   1.026  0.00  0.00    +0.029 C 
BRANCH   8  10
ATOM     10  C   UNL     1       1.480  -2.890   2.275  0.00  0.00    +0.179 C 
BRANCH  10  11
ATOM     11  O   UNL     1       1.166  -4.282   2.194  0.00  0.00    -0.393 OA
ATOM     12  H   UNL     1       1.510  -4.806   2.930  0.00  0.00    +0.209 HD
ENDBRANCH  10  11
ENDBRANCH   8  10
ENDBRANCH   1   8
BRANCH   1  13
ATOM     13  S   UNL     1      -1.486  -3.441   1.798  0.00  0.00    +0.061 S 
ATOM     14  O   UNL     1      -0.820  -4.006   2.919  0.00  0.00    -0.153 OA
ATOM     15  O   UNL     1      -2.861  -3.082   1.830  0.00  0.00    -0.153 OA
BRANCH  13  16
ATOM     16  C   UNL     1      -1.295  -4.584   0.471  0.00  0.00    +0.126 A 
ATOM     17  C   UNL     1      -0.571  -5.745   0.657  0.00  0.00    +0.030 A 
ATOM     18  C   UNL     1      -0.420  -6.642  -0.385  0.00  0.00    +0.002 A 
ATOM     19  C   UNL     1      -0.993  -6.380  -1.616  0.00  0.00    +0.002 A 
ATOM     20  C   UNL     1      -1.719  -5.221  -1.808  0.00  0.00    +0.025 A 
ATOM     21  C   UNL     1      -1.877  -4.320  -0.763  0.00  0.00    +0.051 A 
BRANCH  21  22
ATOM     22  N   UNL     1      -2.615  -3.150  -0.953  0.00  0.00    -0.356 N 
ATOM     23  H   UNL     1      -2.655  -2.482  -0.250  0.00  0.00    +0.142 HD
ATOM     24  H   UNL     1      -3.087  -3.004  -1.787  0.00  0.00    +0.142 HD
ENDBRANCH  21  22
ENDBRANCH  13  16
ENDBRANCH   1  13
TORSDOF 6
