REMARK  Name = ZINC04545360
REMARK  14 active torsions:
REMARK  status: ('A' for Active; 'I' for Inactive)
REMARK    1  A    between atoms: C_1  and  C_2
REMARK    2  A    between atoms: C_2  and  C_3
REMARK    3  A    between atoms: C_3  and  C_4
REMARK    4  A    between atoms: C_7  and  C_11
REMARK    5  A    between atoms: C_10  and  N_60
REMARK    6  A    between atoms: N_13  and  C_14
REMARK    7  A    between atoms: C_14  and  C_16
REMARK    8  A    between atoms: C_14  and  C_32
REMARK    9  A    between atoms: C_18  and  O_31
REMARK   10  A    between atoms: C_20  and  O_30
REMARK   11  A    between atoms: C_22  and  O_29
REMARK   12  A    between atoms: C_24  and  S_27
REMARK   13  A    between atoms: S_27  and  C_28
REMARK   14  A    between atoms: C_32  and  C_34
REMARK                            x       y       z     vdW  Elec       q    Type
REMARK                         _______ _______ _______ _____ _____    ______ ____
ROOT
ATOM      1  C   UNL     1      -3.844   3.999  -0.732  0.00  0.00    +0.122 C 
ENDROOT
BRANCH   1   2
ATOM      2  C   UNL     1      -3.027   3.518   0.469  0.00  0.00    +0.172 C 
ATOM      3  C   UNL     1      -3.580   4.150   1.749  0.00  0.00    +0.176 C 
ATOM      4  C   UNL     1      -2.721   3.711   2.938  0.00  0.00    +0.177 C 
ATOM      5  C   UNL     1      -1.265   4.109   2.676  0.00  0.00    +0.184 C 
ATOM      6  C   UNL     1      -0.801   3.478   1.360  0.00  0.00    +0.207 C 
ATOM      7  O   UNL     1      -1.661   3.903   0.301  0.00  0.00    -0.356 OA
BRANCH   6   8
ATOM      8  S   UNL     1      -0.862   1.671   1.500  0.00  0.00    -0.131 S 
ATOM      9  C   UNL     1      -0.013   1.086   0.008  0.00  0.00    +0.087 C 
ENDBRANCH   6   8
BRANCH   5  10
ATOM     10  O   UNL     1      -0.442   3.640   3.746  0.00  0.00    -0.386 OA
ATOM     11  H   UNL     1       0.496   3.853   3.643  0.00  0.00    +0.210 HD
ENDBRANCH   5  10
BRANCH   4  12
ATOM     12  O   UNL     1      -3.185   4.355   4.127  0.00  0.00    -0.386 OA
ATOM     13  H   UNL     1      -2.685   4.122   4.921  0.00  0.00    +0.210 HD
ENDBRANCH   4  12
BRANCH   3  14
ATOM     14  O   UNL     1      -3.544   5.574   1.633  0.00  0.00    -0.387 OA
ATOM     15  H   UNL     1      -3.881   6.041   2.410  0.00  0.00    +0.210 HD
ENDBRANCH   3  14
ENDBRANCH   1   2
BRANCH   1  18
ATOM     16  C   UNL     1      -6.222   4.302  -1.173  0.00  0.00    +0.200 C 
ATOM     17  O   UNL     1      -5.942   5.257  -1.867  0.00  0.00    -0.278 OA
ATOM     18  N   UNL     1      -5.245   3.605  -0.560  0.00  0.00    -0.310 N 
ATOM     19  H   UNL     1      -5.469   2.842  -0.005  0.00  0.00    +0.149 HD
BRANCH  16  22
ATOM     20  C   UNL     1      -9.738   4.484   0.103  0.00  0.00    -0.029 C 
ATOM     21  C   UNL     1      -8.214   4.417   0.356  0.00  0.00    -0.005 C 
ATOM     22  C   UNL     1      -7.662   3.897  -0.995  0.00  0.00    +0.019 C 
ATOM     23  C   UNL     1      -9.889   4.564  -1.427  0.00  0.00    -0.075 C 
ATOM     24  C   UNL     1      -8.488   3.866  -3.285  0.00  0.00    -0.095 C 
ATOM     25  N   UNL     1      -8.530   4.574  -1.971  0.00  0.00    +0.386 N 
ATOM     26  H   UNL     1      -8.216   5.543  -2.100  0.00  0.00    -0.081 HD
BRANCH  20  27
ATOM     27  C   UNL     1     -10.331   5.731   0.763  0.00  0.00    +0.001 C 
BRANCH  27  29
ATOM     28  C   UNL     1     -12.446   6.961   1.269  0.00  0.00    +0.004 C 
ATOM     29  C   UNL     1     -11.853   5.715   0.609  0.00  0.00    -0.003 C 
ENDBRANCH  27  29
ENDBRANCH  20  27
ENDBRANCH  16  22
ENDBRANCH   1  18
BRANCH   1  30
ATOM     30  C   UNL     1      -3.291   3.369  -2.011  0.00  0.00    +0.100 C 
ATOM     31  C   UNL     1      -4.108   3.850  -3.212  0.00  0.00    +0.026 C 
ATOM     32 CL   UNL     1      -1.567   3.855  -2.224  0.00  0.00    -0.120 Cl
ENDBRANCH   1  30
TORSDOF 10
