REMARK  Name = ZINC65601070
REMARK  10 active torsions:
REMARK  status: ('A' for Active; 'I' for Inactive)
REMARK    1  A    between atoms: C_1  and  C_2
REMARK    2  A    between atoms: C_5  and  C_8
REMARK    3  A    between atoms: C_8  and  C_9
REMARK    4  A    between atoms: C_8  and  N_24
REMARK    5  A    between atoms: C_9  and  N_10
REMARK    6  A    between atoms: C_11  and  C_13
REMARK    7  A    between atoms: N_15  and  C_16
REMARK    8  A    between atoms: C_17  and  C_21
REMARK    9  A    between atoms: N_24  and  C_25
REMARK   10  A    between atoms: N_24  and  C_26
REMARK                            x       y       z     vdW  Elec       q    Type
REMARK                         _______ _______ _______ _____ _____    ______ ____
ROOT
ATOM      1  N   UNL     1       1.846  -4.242  -1.461  0.00  0.00    -0.309 N 
ATOM      2  C   UNL     1       3.131  -4.543  -1.737  0.00  0.00    +0.299 C 
ATOM      3  O   UNL     1       3.819  -5.091  -0.900  0.00  0.00    -0.265 OA
ATOM      4  H   UNL     1       1.296  -3.804  -2.130  0.00  0.00    +0.149 HD
ENDROOT
BRANCH   2   5
ATOM      5  C   UNL     1       3.707  -4.204  -3.072  0.00  0.00    +0.304 C 
ATOM      6  O   UNL     1       3.019  -3.656  -3.908  0.00  0.00    -0.265 OA
ATOM      7  N   UNL     1       4.991  -4.505  -3.348  0.00  0.00    -0.272 N 
ATOM      8  H   UNL     1       5.541  -4.942  -2.679  0.00  0.00    +0.156 HD
BRANCH   7   9
ATOM      9  C   UNL     1       5.526  -4.190  -4.585  0.00  0.00    +0.084 A 
ATOM     10  C   UNL     1       6.814  -4.427  -5.043  0.00  0.00    +0.065 A 
ATOM     11  C   UNL     1       7.111  -3.993  -6.388  0.00  0.00    +0.022 A 
ATOM     12  C   UNL     1       6.099  -3.402  -7.052  0.00  0.00    +0.048 A 
ATOM     13  S   UNL     1       4.762  -3.440  -5.877  0.00  0.00    -0.081 S 
BRANCH  10  14
ATOM     14  C   UNL     1       7.822  -5.085  -4.205  0.00  0.00    +0.244 C 
ATOM     15  O   UNL     1       7.537  -5.438  -3.076  0.00  0.00    -0.270 OA
ATOM     16  N   UNL     1       9.063  -5.298  -4.686  0.00  0.00    -0.325 N 
ATOM     17  H   UNL     1       9.289  -5.017  -5.586  0.00  0.00    +0.145 HD
ATOM     18  H   UNL     1       9.729  -5.733  -4.131  0.00  0.00    +0.145 HD
ENDBRANCH  10  14
ENDBRANCH   7   9
ENDBRANCH   2   5
BRANCH   1  19
ATOM     19  C   UNL     1       1.281  -4.575  -0.151  0.00  0.00    +0.094 C 
BRANCH  19  20
ATOM     20  C   UNL     1      -0.206  -4.216  -0.132  0.00  0.00    -0.021 C 
BRANCH  20  25
ATOM     21  C   UNL     1      -0.819   1.501  -0.705  0.00  0.00    +0.044 C 
ATOM     22  C   UNL     1      -0.659   0.010  -0.555  0.00  0.00    -0.050 A 
ATOM     23  C   UNL     1      -0.837  -0.817  -1.649  0.00  0.00    +0.003 A 
ATOM     24  C   UNL     1      -0.690  -2.185  -1.512  0.00  0.00    +0.002 A 
ATOM     25  C   UNL     1      -0.365  -2.725  -0.281  0.00  0.00    -0.059 A 
ATOM     26  C   UNL     1      -0.187  -1.898   0.812  0.00  0.00    +0.002 A 
ATOM     27  C   UNL     1      -0.330  -0.530   0.674  0.00  0.00    +0.003 A 
ENDBRANCH  20  25
BRANCH  20  28
ATOM     28  N   UNL     1      -0.797  -4.646   1.143  0.00  0.00    +0.382 N 
ATOM     29  C   UNL     1      -2.214  -4.261   1.180  0.00  0.00    -0.096 C 
ATOM     30  C   UNL     1      -0.683  -6.105   1.268  0.00  0.00    -0.096 C 
ATOM     31  H   UNL     1      -0.308  -4.204   1.906  0.00  0.00    -0.082 HD
ENDBRANCH  20  28
ENDBRANCH  19  20
ENDBRANCH   1  19
TORSDOF 7
