REMARK  Name = ZINC43198693
REMARK  8 active torsions:
REMARK  status: ('A' for Active; 'I' for Inactive)
REMARK    1  A    between atoms: C_1  and  C_2
REMARK    2  A    between atoms: C_5  and  S_8
REMARK    3  A    between atoms: S_8  and  N_11
REMARK    4  A    between atoms: N_11  and  N_12
REMARK    5  A    between atoms: N_29  and  N_30
REMARK    6  A    between atoms: N_30  and  S_31
REMARK    7  A    between atoms: S_31  and  C_34
REMARK    8  A    between atoms: C_37  and  C_40
REMARK                            x       y       z     vdW  Elec       q    Type
REMARK                         _______ _______ _______ _____ _____    ______ ____
ROOT
ATOM      1  N   UNL     1       2.500  -4.622   1.014  0.00  0.00    -0.175 NA
ATOM      2  C   UNL     1       3.732  -4.986   1.005  0.00  0.00    +0.045 C 
ATOM      3  C   UNL     1       4.499  -5.787   0.036  0.00  0.00    +0.039 C 
ATOM      4  C   UNL     1       4.653  -6.618  -1.184  0.00  0.00    +0.010 C 
ATOM      5  C   UNL     1       6.216  -6.993  -1.104  0.00  0.00    +0.010 C 
ATOM      6  C   UNL     1       6.634  -6.405   0.211  0.00  0.00    +0.039 C 
ATOM      7  C   UNL     1       5.309  -6.745   0.977  0.00  0.00    +0.011 C 
ATOM      8  C   UNL     1       5.454  -6.120   2.307  0.00  0.00    +0.011 C 
ATOM      9  C   UNL     1       4.837  -4.736   1.963  0.00  0.00    +0.039 C 
ATOM     10  C   UNL     1       5.559  -3.793   2.825  0.00  0.00    +0.010 C 
ATOM     11  C   UNL     1       7.042  -4.325   2.646  0.00  0.00    +0.010 C 
ATOM     12  C   UNL     1       6.945  -5.839   2.493  0.00  0.00    +0.039 C 
ATOM     13  C   UNL     1       7.625  -6.486   1.287  0.00  0.00    +0.045 C 
ATOM     14  N   UNL     1       8.799  -6.987   1.223  0.00  0.00    -0.175 NA
ENDROOT
BRANCH   1  15
ATOM     15  N   UNL     1       1.651  -4.999  -0.034  0.00  0.00    -0.137 N 
ATOM     16  H   UNL     1       1.993  -5.536  -0.767  0.00  0.00    +0.197 HD
BRANCH  15  17
ATOM     17  S   UNL     1       0.063  -4.530  -0.023  0.00  0.00    +0.086 S 
ATOM     18  O   UNL     1      -0.476  -4.950   1.223  0.00  0.00    -0.149 OA
ATOM     19  O   UNL     1      -0.490  -4.937  -1.267  0.00  0.00    -0.149 OA
BRANCH  17  24
ATOM     20  C   UNL     1      -0.018   1.503   0.010  0.00  0.00    +0.044 C 
ATOM     21  C   UNL     1       0.002  -0.004   0.002  0.00  0.00    -0.050 A 
ATOM     22  C   UNL     1       0.006  -0.689  -1.199  0.00  0.00    +0.005 A 
ATOM     23  C   UNL     1       0.025  -2.071  -1.206  0.00  0.00    +0.029 A 
ATOM     24  C   UNL     1       0.040  -2.768  -0.013  0.00  0.00    +0.110 A 
ATOM     25  C   UNL     1       0.037  -2.084   1.188  0.00  0.00    +0.029 A 
ATOM     26  C   UNL     1       0.023  -0.702   1.195  0.00  0.00    +0.005 A 
ENDBRANCH  17  24
ENDBRANCH  15  17
ENDBRANCH   1  15
BRANCH  14  27
ATOM     27  N   UNL     1       9.625  -6.983   2.354  0.00  0.00    -0.137 N 
ATOM     28  H   UNL     1       9.306  -6.600   3.186  0.00  0.00    +0.197 HD
BRANCH  27  29
ATOM     29  S   UNL     1      11.145  -7.633   2.271  0.00  0.00    +0.086 S 
ATOM     30  O   UNL     1      11.776  -7.351   3.514  0.00  0.00    -0.149 OA
ATOM     31  O   UNL     1      10.995  -8.957   1.776  0.00  0.00    -0.149 OA
BRANCH  29  32
ATOM     32  C   UNL     1      12.030  -6.733   1.042  0.00  0.00    +0.110 A 
ATOM     33  C   UNL     1      11.998  -7.148  -0.276  0.00  0.00    +0.029 A 
ATOM     34  C   UNL     1      12.692  -6.442  -1.240  0.00  0.00    +0.005 A 
ATOM     35  C   UNL     1      13.419  -5.321  -0.887  0.00  0.00    -0.050 A 
ATOM     36  C   UNL     1      13.451  -4.905   0.431  0.00  0.00    +0.005 A 
ATOM     37  C   UNL     1      12.753  -5.609   1.395  0.00  0.00    +0.029 A 
ATOM     38  C   UNL     1      14.176  -4.551  -1.938  0.00  0.00    +0.044 C 
ENDBRANCH  29  32
ENDBRANCH  27  29
ENDBRANCH  14  27
TORSDOF 6
