REMARK  Name = ZINC37029236
REMARK  8 active torsions:
REMARK  status: ('A' for Active; 'I' for Inactive)
REMARK    1  A    between atoms: C_1  and  C_2
REMARK    2  A    between atoms: C_7  and  N_8
REMARK    3  A    between atoms: C_9  and  C_11
REMARK    4  A    between atoms: C_11  and  C_13
REMARK    5  A    between atoms: C_11  and  N_19
REMARK    6  A    between atoms: C_13  and  C_14
REMARK    7  A    between atoms: C_14  and  S_15
REMARK    8  A    between atoms: S_15  and  C_18
REMARK                            x       y       z     vdW  Elec       q    Type
REMARK                         _______ _______ _______ _____ _____    ______ ____
ROOT
ATOM      1  N   UNL     1       0.025  -0.014   2.417  0.00  0.00    -0.287 N 
ATOM      2  C   UNL     1      -0.057  -0.694   3.578  0.00  0.00    +0.203 C 
ATOM      3  O   UNL     1      -0.040  -1.907   3.573  0.00  0.00    -0.277 OA
ATOM      4  H   UNL     1       0.077   0.954   2.425  0.00  0.00    +0.155 HD
ENDROOT
BRANCH   1  11
ATOM      5  C   UNL     1      -1.265   1.183   0.181  0.00  0.00    +0.046 C 
ATOM      6  C   UNL     1      -0.584  -0.158   0.084  0.00  0.00    -0.028 A 
ATOM      7  C   UNL     1      -0.569  -0.841  -1.116  0.00  0.00    +0.019 A 
ATOM      8  C   UNL     1       0.056  -2.071  -1.206  0.00  0.00    +0.014 A 
ATOM      9  C   UNL     1       0.668  -2.622  -0.094  0.00  0.00    +0.016 A 
ATOM     10  C   UNL     1       0.656  -1.944   1.109  0.00  0.00    +0.024 A 
ATOM     11  C   UNL     1       0.034  -0.706   1.201  0.00  0.00    +0.036 A 
ATOM     12  I   UNL     1       0.076  -3.103  -3.029  0.00  0.00    -0.044 I 
ENDBRANCH   1  11
BRANCH   2  13
ATOM     13  C   UNL     1      -0.169   0.053   4.882  0.00  0.00    +0.015 C 
BRANCH  13  14
ATOM     14  N   UNL     1      -0.712  -0.841   5.913  0.00  0.00    +0.386 N 
ATOM     15  H   UNL     1      -0.787  -0.341   6.787  0.00  0.00    -0.089 HD
ATOM     16  H   UNL     1      -1.626  -1.163   5.631  0.00  0.00    -0.089 HD
ATOM     17  H   UNL     1      -0.098  -1.632   6.031  0.00  0.00    -0.089 HD
ENDBRANCH  13  14
BRANCH  13  18
ATOM     18  C   UNL     1       1.216   0.542   5.310  0.00  0.00    +0.015 C 
BRANCH  18  19
ATOM     19  C   UNL     1       1.086   1.406   6.567  0.00  0.00    +0.164 C 
BRANCH  19  20
ATOM     20  S   UNL     1       2.729   1.986   7.074  0.00  0.00    -0.034 S 
ATOM     21  O   UNL     1       3.502   0.860   7.464  0.00  0.00    -0.175 OA
ATOM     22  O   UNL     1       3.230   2.853   6.066  0.00  0.00    -0.175 OA
ATOM     23  C   UNL     1       2.366   2.973   8.552  0.00  0.00    +0.194 C 
ENDBRANCH  19  20
ENDBRANCH  18  19
ENDBRANCH  13  18
ENDBRANCH   2  13
TORSDOF 6
