REMARK  Name = ZINC40008624
REMARK  9 active torsions:
REMARK  status: ('A' for Active; 'I' for Inactive)
REMARK    1  A    between atoms: C_1  and  C_2
REMARK    2  A    between atoms: C_2  and  N_3
REMARK    3  A    between atoms: N_3  and  C_4
REMARK    4  A    between atoms: N_3  and  C_6
REMARK    5  A    between atoms: C_4  and  C_5
REMARK    6  A    between atoms: C_6  and  C_7
REMARK    7  A    between atoms: C_7  and  C_8
REMARK    8  A    between atoms: C_8  and  N_9
REMARK    9  A    between atoms: C_10  and  C_26
REMARK                            x       y       z     vdW  Elec       q    Type
REMARK                         _______ _______ _______ _____ _____    ______ ____
ROOT
ATOM      1  N   UNL     1       2.339  -4.587   3.665  0.00  0.00    -0.284 N 
ATOM      2  C   UNL     1       3.779  -4.704   3.950  0.00  0.00    +0.145 C 
ATOM      3  C   UNL     1       3.877  -5.249   5.336  0.00  0.00    +0.072 A 
ATOM      4  C   UNL     1       5.041  -5.588   6.162  0.00  0.00    +0.199 A 
ATOM      5  O   UNL     1       6.183  -5.292   5.858  0.00  0.00    -0.287 OA
ATOM      6  C   UNL     1       4.695  -6.324   7.404  0.00  0.00    +0.065 A 
ATOM      7  C   UNL     1       5.697  -6.889   8.192  0.00  0.00    +0.030 A 
ATOM      8  C   UNL     1       5.358  -7.574   9.338  0.00  0.00    +0.019 A 
ATOM      9  C   UNL     1       4.024  -7.699   9.704  0.00  0.00    +0.019 A 
ATOM     10  C   UNL     1       3.027  -7.144   8.935  0.00  0.00    +0.048 A 
ATOM     11  C   UNL     1       3.345  -6.444   7.771  0.00  0.00    +0.140 A 
ATOM     12  O   UNL     1       2.346  -5.901   7.039  0.00  0.00    -0.450 OA
ATOM     13  C   UNL     1       2.606  -5.425   5.806  0.00  0.00    +0.199 A 
ATOM     14  C   UNL     1       1.663  -5.005   4.754  0.00  0.00    +0.283 C 
ATOM     15  O   UNL     1       0.452  -5.034   4.853  0.00  0.00    -0.267 OA
ATOM     16 BR   UNL     1       6.709  -8.343  10.414  0.00  0.00    -0.050 Br
ENDROOT
BRANCH   2  17
ATOM     17  C   UNL     1       4.435  -3.349   3.875  0.00  0.00    -0.021 A 
ATOM     18  C   UNL     1       3.789  -2.239   4.389  0.00  0.00    +0.006 A 
ATOM     19  C   UNL     1       4.390  -0.996   4.321  0.00  0.00    +0.002 A 
ATOM     20  C   UNL     1       5.636  -0.862   3.739  0.00  0.00    +0.020 A 
ATOM     21  C   UNL     1       6.283  -1.971   3.224  0.00  0.00    +0.041 A 
ATOM     22  C   UNL     1       5.683  -3.216   3.298  0.00  0.00    +0.025 A 
ATOM     23 CL   UNL     1       7.848  -1.803   2.493  0.00  0.00    -0.084 Cl
ENDBRANCH   2  17
BRANCH   1  24
ATOM     24  C   UNL     1       1.746  -4.098   2.418  0.00  0.00    +0.107 C 
BRANCH  24  25
ATOM     25  C   UNL     1       1.550  -2.583   2.507  0.00  0.00    +0.000 C 
BRANCH  25  26
ATOM     26  C   UNL     1       0.930  -2.072   1.205  0.00  0.00    -0.077 C 
BRANCH  26  27
ATOM     27  N   UNL     1       0.628  -0.640   1.335  0.00  0.00    +0.379 N 
ATOM     28  H   UNL     1       0.046  -0.491   2.146  0.00  0.00    -0.082 HD
BRANCH  27  30
ATOM     29  C   UNL     1       1.562   1.586   1.748  0.00  0.00    -0.017 C 
ATOM     30  C   UNL     1       1.881   0.112   1.487  0.00  0.00    -0.082 C 
ENDBRANCH  27  30
BRANCH  27  31
ATOM     31  C   UNL     1      -0.079  -0.177   0.134  0.00  0.00    -0.082 C 
ATOM     32  C   UNL     1      -1.453  -0.845   0.061  0.00  0.00    -0.017 C 
ENDBRANCH  27  31
ENDBRANCH  26  27
ENDBRANCH  25  26
ENDBRANCH  24  25
ENDBRANCH   1  24
TORSDOF 7
