REMARK  Name = ZINC20224179
REMARK  6 active torsions:
REMARK  status: ('A' for Active; 'I' for Inactive)
REMARK    1  A    between atoms: C_5  and  S_6
REMARK    2  A    between atoms: S_6  and  N_9
REMARK    3  A    between atoms: N_9  and  C_10
REMARK    4  A    between atoms: C_10  and  C_11
REMARK    5  A    between atoms: C_11  and  C_12
REMARK    6  A    between atoms: C_12  and  N_13
REMARK                            x       y       z     vdW  Elec       q    Type
REMARK                         _______ _______ _______ _____ _____    ______ ____
ROOT
ATOM      1  S   UNL     1       4.034  -0.474  -0.040  0.00  0.00    +0.065 S 
ATOM      2  O   UNL     1       4.814   0.579   0.509  0.00  0.00    -0.153 OA
ATOM      3  O   UNL     1       4.036  -1.787   0.503  0.00  0.00    -0.153 OA
ENDROOT
BRANCH   1   8
ATOM      4  C   UNL     1       1.220  -0.657  -0.013  0.00  0.00    +0.037 A 
ATOM      5  C   UNL     1       0.002  -0.004   0.002  0.00  0.00    +0.025 A 
ATOM      6  C   UNL     1      -0.016   1.352   0.009  0.00  0.00    +0.057 A 
ATOM      7  S   UNL     1       1.725   1.745  -0.005  0.00  0.00    -0.062 S 
ATOM      8  C   UNL     1       2.360   0.076  -0.020  0.00  0.00    +0.143 A 
ATOM      9 BR   UNL     1      -1.501   2.523   0.023  0.00  0.00    -0.043 Br
ENDBRANCH   1   8
BRANCH   1  10
ATOM     10  N   UNL     1       4.483  -0.617  -1.627  0.00  0.00    -0.190 NA
ATOM     11  H   UNL     1       4.567  -1.619  -2.074  0.00  0.00    +0.148 HD
BRANCH  10  12
ATOM     12  C   UNL     1       4.553   0.573  -2.479  0.00  0.00    +0.104 C 
BRANCH  12  13
ATOM     13  C   UNL     1       5.333   0.242  -3.753  0.00  0.00    -0.003 C 
BRANCH  13  14
ATOM     14  C   UNL     1       5.406   1.485  -4.643  0.00  0.00    -0.085 C 
BRANCH  14  15
ATOM     15  N   UNL     1       6.155   1.168  -5.867  0.00  0.00    +0.378 N 
ATOM     16  H   UNL     1       6.207   2.061  -6.506  0.00  0.00    -0.090 HD
ATOM     17  H   UNL     1       5.645   0.358  -6.409  0.00  0.00    -0.090 HD
ATOM     18  H   UNL     1       7.173   0.847  -5.600  0.00  0.00    -0.090 HD
ENDBRANCH  14  15
ENDBRANCH  13  14
ENDBRANCH  12  13
ENDBRANCH  10  12
ENDBRANCH   1  10
TORSDOF 6
