REMARK  Name = ZINC21968965
REMARK  5 active torsions:
REMARK  status: ('A' for Active; 'I' for Inactive)
REMARK    1  A    between atoms: C_1  and  C_2
REMARK    2  A    between atoms: C_7  and  C_15
REMARK    3  A    between atoms: C_9  and  N_10
REMARK    4  A    between atoms: N_10  and  C_11
REMARK    5  A    between atoms: C_11  and  C_12
REMARK                            x       y       z     vdW  Elec       q    Type
REMARK                         _______ _______ _______ _____ _____    ______ ____
ROOT
ATOM      1  N   UNL     1       3.023  -0.712   2.056  0.00  0.00    +0.387 N 
ATOM      2  H   UNL     1       3.053  -1.811   2.030  0.00  0.00    -0.085 HD
ATOM      3  H   UNL     1       3.997  -0.311   1.738  0.00  0.00    -0.085 HD
ENDROOT
BRANCH   1  10
ATOM      4  C   UNL     1       0.739  -2.383   1.427  0.00  0.00    +0.006 C 
ATOM      5  C   UNL     1       0.635  -0.860   1.533  0.00  0.00    -0.028 C 
ATOM      6  C   UNL     1      -0.458  -0.357   0.587  0.00  0.00    +0.002 C 
ATOM      7  C   UNL     1      -0.562   1.166   0.693  0.00  0.00    +0.000 C 
ATOM      8  C   UNL     1       0.777   1.797   0.307  0.00  0.00    +0.002 C 
ATOM      9  C   UNL     1       1.869   1.294   1.253  0.00  0.00    -0.028 C 
ATOM     10  C   UNL     1       1.974  -0.229   1.147  0.00  0.00    -0.065 C 
ATOM     11  C   UNL     1       3.209   1.925   0.868  0.00  0.00    +0.006 C 
ENDBRANCH   1  10
BRANCH   1  12
ATOM     12  C   UNL     1       2.764  -0.280   3.436  0.00  0.00    +0.015 C 
BRANCH  12  13
ATOM     13  C   UNL     1       3.792  -0.888   4.354  0.00  0.00    +0.193 C 
ATOM     14  O   UNL     1       4.656  -1.611   3.903  0.00  0.00    -0.278 OA
ATOM     15  N   UNL     1       3.752  -0.630   5.676  0.00  0.00    -0.331 N 
ATOM     16  H   UNL     1       4.503  -1.074   6.346  0.00  0.00    +0.145 HD
ATOM     17  H   UNL     1       2.969   0.025   6.085  0.00  0.00    +0.145 HD
ENDBRANCH  12  13
ENDBRANCH   1  12
TORSDOF 3
