REMARK  Name = ZINC02637135
REMARK  9 active torsions:
REMARK  status: ('A' for Active; 'I' for Inactive)
REMARK    1  A    between atoms: C_1  and  C_2
REMARK    2  A    between atoms: C_4  and  O_9
REMARK    3  A    between atoms: O_9  and  C_10
REMARK    4  A    between atoms: C_10  and  C_11
REMARK    5  A    between atoms: C_14  and  S_17
REMARK    6  A    between atoms: S_17  and  C_18
REMARK    7  A    between atoms: C_18  and  C_19
REMARK    8  A    between atoms: N_21  and  C_22
REMARK    9  A    between atoms: C_23  and  C_30
REMARK                            x       y       z     vdW  Elec       q    Type
REMARK                         _______ _______ _______ _____ _____    ______ ____
ROOT
ATOM      1  C   UNL     1       3.522  -5.713  -6.213  0.00  0.00    +0.173 C 
ENDROOT
BRANCH   1   2
ATOM      2  C   UNL     1       4.563  -6.110  -7.229  0.00  0.00    +0.228 C 
ATOM      3  O   UNL     1       4.222  -6.555  -8.304  0.00  0.00    -0.275 OA
ATOM      4  N   UNL     1       5.872  -5.972  -6.941  0.00  0.00    -0.279 N 
ATOM      5  H   UNL     1       6.145  -5.617  -6.081  0.00  0.00    +0.155 HD
BRANCH   4   6
ATOM      6  C   UNL     1       6.830  -6.338  -7.875  0.00  0.00    +0.084 A 
ATOM      7  C   UNL     1       8.205  -6.272  -7.753  0.00  0.00    +0.068 A 
ATOM      8  C   UNL     1       9.001  -6.724  -8.893  0.00  0.00    -0.023 A 
ATOM      9  C   UNL     1       8.270  -7.153  -9.937  0.00  0.00    -0.004 A 
ATOM     10  S   UNL     1       6.585  -6.969  -9.410  0.00  0.00    -0.077 S 
ATOM     11  C   UNL     1       9.136  -7.602 -11.082  0.00  0.00    +0.043 C 
ATOM     12  C   UNL     1      10.525  -6.996 -10.781  0.00  0.00    +0.010 C 
ATOM     13  C   UNL     1      10.481  -6.854  -9.246  0.00  0.00    +0.037 C 
BRANCH   7  14
ATOM     14  C   UNL     1       8.839  -5.770  -6.530  0.00  0.00    +0.244 C 
ATOM     15  O   UNL     1       9.115  -6.538  -5.627  0.00  0.00    -0.270 OA
ATOM     16  N   UNL     1       9.118  -4.457  -6.406  0.00  0.00    -0.325 N 
ATOM     17  H   UNL     1       8.899  -3.844  -7.126  0.00  0.00    +0.145 HD
ATOM     18  H   UNL     1       9.538  -4.124  -5.598  0.00  0.00    +0.145 HD
ENDBRANCH   7  14
ENDBRANCH   4   6
ENDBRANCH   1   2
BRANCH   1  19
ATOM     19  S   UNL     1       1.868  -6.016  -6.893  0.00  0.00    -0.077 S 
BRANCH  19  23
ATOM     20  C   UNL     1       0.048  -4.746  -3.712  0.00  0.00    +0.189 A 
ATOM     21  N   UNL     1       1.135  -5.024  -4.433  0.00  0.00    -0.202 NA
ATOM     22  H   UNL     1      -1.124  -5.854  -6.378  0.00  0.00    +0.191 HD
ATOM     23  C   UNL     1       0.778  -5.508  -5.605  0.00  0.00    +0.185 A 
ATOM     24  N   UNL     1      -0.571  -5.545  -5.643  0.00  0.00    -0.253 N 
ATOM     25  N   UNL     1      -1.016  -5.052  -4.405  0.00  0.00    -0.153 NA
BRANCH  20  26
ATOM     26  C   UNL     1       0.047  -4.176  -2.317  0.00  0.00    +0.306 C 
BRANCH  26  27
ATOM     27  O   UNL     1       0.028  -2.749  -2.386  0.00  0.00    -0.484 OA
BRANCH  27  31
ATOM     28  C   UNL     1      -0.018   1.503   0.010  0.00  0.00    +0.045 C 
ATOM     29  C   UNL     1       0.002  -0.004   0.002  0.00  0.00    -0.029 A 
ATOM     30  C   UNL     1       0.006  -0.688  -1.199  0.00  0.00    +0.050 A 
ATOM     31  C   UNL     1       0.025  -2.075  -1.206  0.00  0.00    +0.121 A 
ATOM     32  C   UNL     1       0.040  -2.773  -0.007  0.00  0.00    +0.047 A 
ATOM     33  C   UNL     1       0.036  -2.086   1.192  0.00  0.00    +0.024 A 
ATOM     34  C   UNL     1       0.023  -0.702   1.196  0.00  0.00    +0.044 A 
ATOM     35 CL   UNL     1       0.025   0.160   2.704  0.00  0.00    -0.083 Cl
ENDBRANCH  27  31
ENDBRANCH  26  27
ENDBRANCH  20  26
ENDBRANCH  19  23
ENDBRANCH   1  19
TORSDOF 8
