REMARK  Name = ZINC35454765
REMARK  16 active torsions:
REMARK  status: ('A' for Active; 'I' for Inactive)
REMARK    1  A    between atoms: C_1  and  C_2
REMARK    2  A    between atoms: C_4  and  O_42
REMARK    3  A    between atoms: C_6  and  O_41
REMARK    4  A    between atoms: C_8  and  O_40
REMARK    5  A    between atoms: C_10  and  O_13
REMARK    6  A    between atoms: O_13  and  C_14
REMARK    7  A    between atoms: C_14  and  C_15
REMARK    8  A    between atoms: C_17  and  O_39
REMARK    9  A    between atoms: C_19  and  O_38
REMARK   10  A    between atoms: C_21  and  O_37
REMARK   11  A    between atoms: C_23  and  O_26
REMARK   12  A    between atoms: O_26  and  C_27
REMARK   13  A    between atoms: C_30  and  O_35
REMARK   14  A    between atoms: C_31  and  O_33
REMARK   15  A    between atoms: O_33  and  C_34
REMARK   16  A    between atoms: O_35  and  C_36
REMARK                            x       y       z     vdW  Elec       q    Type
REMARK                         _______ _______ _______ _____ _____    ______ ____
ROOT
ATOM      1  C   UNL     1      -2.725  -2.666   2.380  0.00  0.00    +0.179 C 
ATOM      2  C   UNL     1      -3.569  -2.158   3.552  0.00  0.00    +0.177 C 
ATOM      3  C   UNL     1      -4.946  -2.828   3.507  0.00  0.00    +0.180 C 
ATOM      4  C   UNL     1      -4.763  -4.348   3.538  0.00  0.00    +0.214 C 
ATOM      5  C   UNL     1      -3.874  -4.772   2.367  0.00  0.00    +0.339 C 
ATOM      6  O   UNL     1      -2.621  -4.090   2.451  0.00  0.00    -0.331 OA
ENDROOT
BRANCH   4   7
ATOM      7  O   UNL     1      -4.147  -4.730   4.770  0.00  0.00    -0.383 OA
ATOM      8  H   UNL     1      -4.001  -5.682   4.858  0.00  0.00    +0.210 HD
ENDBRANCH   4   7
BRANCH   3   9
ATOM      9  O   UNL     1      -5.715  -2.414   4.638  0.00  0.00    -0.386 OA
ATOM     10  H   UNL     1      -6.601  -2.801   4.674  0.00  0.00    +0.210 HD
ENDBRANCH   3   9
BRANCH   2  11
ATOM     11  O   UNL     1      -2.919  -2.481   4.783  0.00  0.00    -0.386 OA
ATOM     12  H   UNL     1      -3.399  -2.188   5.569  0.00  0.00    +0.210 HD
ENDBRANCH   2  11
BRANCH   1  13
ATOM     13  C   UNL     1      -1.328  -2.048   2.451  0.00  0.00    +0.197 C 
BRANCH  13  14
ATOM     14  O   UNL     1      -0.578  -2.430   1.296  0.00  0.00    -0.346 OA
BRANCH  14  20
ATOM     15  C   UNL     1      -0.019   1.526   0.010  0.00  0.00    +0.041 C 
ATOM     16  C   UNL     1       0.002  -0.004   0.002  0.00  0.00    +0.149 C 
ATOM     17  C   UNL     1       0.719  -0.498  -1.257  0.00  0.00    +0.174 C 
ATOM     18  C   UNL     1       0.789  -2.028  -1.229  0.00  0.00    +0.179 C 
ATOM     19  C   UNL     1       1.496  -2.472   0.055  0.00  0.00    +0.201 C 
ATOM     20  C   UNL     1       0.749  -1.902   1.264  0.00  0.00    +0.282 C 
ATOM     21  O   UNL     1       0.694  -0.478   1.159  0.00  0.00    -0.343 OA
BRANCH  19  22
ATOM     22  O   UNL     1       2.841  -1.988   0.051  0.00  0.00    -0.384 OA
ATOM     23  H   UNL     1       3.349  -2.232   0.837  0.00  0.00    +0.210 HD
ENDBRANCH  19  22
BRANCH  18  24
ATOM     24  O   UNL     1       1.519  -2.494  -2.365  0.00  0.00    -0.386 OA
ATOM     25  H   UNL     1       1.603  -3.457  -2.411  0.00  0.00    +0.210 HD
ENDBRANCH  18  24
BRANCH  17  26
ATOM     26  O   UNL     1      -0.002  -0.073  -2.415  0.00  0.00    -0.387 OA
ATOM     27  H   UNL     1      -0.089   0.887  -2.495  0.00  0.00    +0.210 HD
ENDBRANCH  17  26
ENDBRANCH  14  20
ENDBRANCH  13  14
ENDBRANCH   1  13
BRANCH   5  28
ATOM     28  O   UNL     1      -3.653  -6.183   2.421  0.00  0.00    -0.461 OA
BRANCH  28  29
ATOM     29  C   UNL     1      -2.965  -6.740   1.389  0.00  0.00    +0.128 A 
ATOM     30  C   UNL     1      -2.508  -5.944   0.350  0.00  0.00    +0.049 A 
ATOM     31  C   UNL     1      -1.810  -6.508  -0.700  0.00  0.00    +0.053 A 
ATOM     32  C   UNL     1      -1.563  -7.872  -0.717  0.00  0.00    +0.162 A 
ATOM     33  C   UNL     1      -2.020  -8.673   0.325  0.00  0.00    +0.165 A 
ATOM     34  C   UNL     1      -2.716  -8.104   1.379  0.00  0.00    +0.095 A 
BRANCH  33  35
ATOM     35  O   UNL     1      -1.780 -10.011   0.310  0.00  0.00    -0.491 OA
ATOM     36  C   UNL     1      -2.279 -10.772   1.412  0.00  0.00    +0.277 C 
ENDBRANCH  33  35
BRANCH  32  37
ATOM     37  O   UNL     1      -0.876  -8.427  -1.752  0.00  0.00    -0.491 OA
ATOM     38  C   UNL     1      -0.437  -7.545  -2.787  0.00  0.00    +0.277 C 
ENDBRANCH  32  37
ENDBRANCH  28  29
ENDBRANCH   5  28
TORSDOF 13
