REMARK  Name = ZINC10437007
REMARK  8 active torsions:
REMARK  status: ('A' for Active; 'I' for Inactive)
REMARK    1  A    between atoms: C_1  and  C_2
REMARK    2  A    between atoms: C_9  and  C_11
REMARK    3  A    between atoms: C_11  and  O_13
REMARK    4  A    between atoms: O_13  and  C_14
REMARK    5  A    between atoms: C_14  and  C_15
REMARK    6  A    between atoms: N_17  and  C_18
REMARK    7  A    between atoms: C_20  and  C_27
REMARK    8  A    between atoms: C_22  and  C_24
REMARK                            x       y       z     vdW  Elec       q    Type
REMARK                         _______ _______ _______ _____ _____    ______ ____
ROOT
ATOM      1  C   UNL     1       0.117   2.554   8.180  0.00  0.00    +0.255 C 
ATOM      2  O   UNL     1       1.169   2.215   7.681  0.00  0.00    -0.272 OA
ATOM      3  N   UNL     1       0.002   2.636   9.521  0.00  0.00    -0.283 N 
ATOM      4  H   UNL     1      -0.814   2.980   9.918  0.00  0.00    +0.155 HD
ENDROOT
BRANCH   3   5
ATOM      5  C   UNL     1       1.060   2.225  10.340  0.00  0.00    +0.035 A 
ATOM      6  C   UNL     1       1.866   1.166   9.950  0.00  0.00    +0.036 A 
ATOM      7  C   UNL     1       2.926   0.757  10.762  0.00  0.00    +0.039 A 
ATOM      8  C   UNL     1       3.166   1.407  11.971  0.00  0.00    +0.026 A 
ATOM      9  C   UNL     1       2.350   2.467  12.362  0.00  0.00    +0.039 A 
ATOM     10  C   UNL     1       1.296   2.874  11.543  0.00  0.00    +0.036 A 
BRANCH   9  11
ATOM     11  C   UNL     1       2.602   3.160  13.644  0.00  0.00    +0.242 C 
ATOM     12  O   UNL     1       1.890   4.085  13.985  0.00  0.00    -0.270 OA
ATOM     13  N   UNL     1       3.620   2.766  14.435  0.00  0.00    -0.325 N 
ATOM     14  H   UNL     1       4.188   2.028  14.163  0.00  0.00    +0.145 HD
ATOM     15  H   UNL     1       3.785   3.221  15.275  0.00  0.00    +0.145 HD
ENDBRANCH   9  11
BRANCH   7  16
ATOM     16  C   UNL     1       3.788  -0.368  10.342  0.00  0.00    +0.242 C 
ATOM     17  O   UNL     1       3.578  -0.934   9.287  0.00  0.00    -0.270 OA
ATOM     18  N   UNL     1       4.808  -0.765  11.129  0.00  0.00    -0.325 N 
ATOM     19  H   UNL     1       4.976  -0.313  11.971  0.00  0.00    +0.145 HD
ATOM     20  H   UNL     1       5.374  -1.503  10.854  0.00  0.00    +0.145 HD
ENDBRANCH   7  16
ENDBRANCH   3   5
BRANCH   1  21
ATOM     21  C   UNL     1      -1.063   2.884   7.302  0.00  0.00    +0.328 C 
BRANCH  21  22
ATOM     22  O   UNL     1      -0.689   2.720   5.908  0.00  0.00    -0.451 OA
BRANCH  22  23
ATOM     23  C   UNL     1      -1.638   2.978   4.985  0.00  0.00    +0.346 C 
ATOM     24  O   UNL     1      -2.748   3.330   5.336  0.00  0.00    -0.244 OA
BRANCH  23  32
ATOM     25  C   UNL     1      -2.437   2.643  -2.539  0.00  0.00    +0.008 C 
ATOM     26  C   UNL     1      -1.737   2.307  -1.220  0.00  0.00    -0.009 C 
ATOM     27  C   UNL     1      -0.269   2.736  -1.301  0.00  0.00    +0.009 C 
ATOM     28  C   UNL     1       0.482   2.156  -0.094  0.00  0.00    +0.043 C 
ATOM     29  C   UNL     1      -0.316   2.441   1.141  0.00  0.00    -0.006 A 
ATOM     30  C   UNL     1      -1.622   2.841   1.203  0.00  0.00    -0.036 A 
ATOM     31  C   UNL     1      -2.151   3.046   2.466  0.00  0.00    +0.026 A 
ATOM     32  C   UNL     1      -1.332   2.834   3.561  0.00  0.00    +0.097 A 
ATOM     33  S   UNL     1       0.197   2.341   2.782  0.00  0.00    -0.086 S 
ATOM     34  C   UNL     1      -2.432   3.042  -0.074  0.00  0.00    +0.039 C 
ENDBRANCH  23  32
ENDBRANCH  22  23
ENDBRANCH  21  22
ENDBRANCH   1  21
TORSDOF 7
