REMARK  Name = ZINC59294375
REMARK  11 active torsions:
REMARK  status: ('A' for Active; 'I' for Inactive)
REMARK    1  A    between atoms: C_1  and  C_2
REMARK    2  A    between atoms: C_4  and  C_32
REMARK    3  A    between atoms: C_6  and  O_9
REMARK    4  A    between atoms: O_9  and  C_10
REMARK    5  A    between atoms: C_10  and  C_11
REMARK    6  A    between atoms: N_13  and  C_14
REMARK    7  A    between atoms: C_16  and  C_27
REMARK    8  A    between atoms: C_19  and  N_20
REMARK    9  A    between atoms: N_23  and  C_26
REMARK   10  A    between atoms: C_27  and  O_29
REMARK   11  A    between atoms: O_29  and  C_30
REMARK                            x       y       z     vdW  Elec       q    Type
REMARK                         _______ _______ _______ _____ _____    ______ ____
ROOT
ATOM      1  C   UNL     1       2.008  -4.868   6.144  0.00  0.00    +0.056 A 
ATOM      2  C   UNL     1       0.720  -5.142   6.561  0.00  0.00    +0.040 A 
ATOM      3  C   UNL     1       0.504  -5.761   7.796  0.00  0.00    +0.061 A 
ATOM      4  C   UNL     1       1.594  -6.101   8.604  0.00  0.00    +0.017 A 
ATOM      5  C   UNL     1       2.876  -5.826   8.185  0.00  0.00    +0.026 A 
ATOM      6  C   UNL     1       3.092  -5.216   6.954  0.00  0.00    +0.051 A 
ENDROOT
BRANCH   6   7
ATOM      7  N   UNL     1       4.391  -4.945   6.532  0.00  0.00    -0.332 N 
ATOM      8  C   UNL     1       5.044  -3.670   6.865  0.00  0.00    +0.086 C 
ATOM      9  C   UNL     1       5.620  -3.069   5.578  0.00  0.00    -0.060 C 
ATOM     10  N   UNL     1       6.500  -4.050   4.932  0.00  0.00    +0.380 N 
ATOM     11  C   UNL     1       5.719  -5.219   4.506  0.00  0.00    -0.060 C 
ATOM     12  C   UNL     1       5.150  -5.929   5.745  0.00  0.00    +0.086 C 
ATOM     13  C   UNL     1       7.137  -3.436   3.759  0.00  0.00    -0.096 C 
ATOM     14  H   UNL     1       7.213  -4.343   5.584  0.00  0.00    -0.082 HD
ENDBRANCH   6   7
BRANCH   1  17
ATOM     15  C   UNL     1       1.312  -4.359   3.924  0.00  0.00    +0.255 C 
ATOM     16  O   UNL     1       0.346  -5.078   4.074  0.00  0.00    -0.272 OA
ATOM     17  N   UNL     1       2.228  -4.247   4.907  0.00  0.00    -0.281 N 
ATOM     18  H   UNL     1       3.039  -3.737   4.757  0.00  0.00    +0.155 HD
BRANCH  15  19
ATOM     19  C   UNL     1       1.487  -3.592   2.639  0.00  0.00    +0.325 C 
BRANCH  19  20
ATOM     20  O   UNL     1       0.395  -3.875   1.762  0.00  0.00    -0.480 OA
BRANCH  20  26
ATOM     21  C   UNL     1      -0.869  -0.053  -1.001  0.00  0.00    +0.047 C 
ATOM     22  C   UNL     1      -0.205  -1.396  -0.835  0.00  0.00    -0.010 A 
ATOM     23  C   UNL     1       0.410  -2.002  -1.916  0.00  0.00    +0.050 A 
ATOM     24  C   UNL     1       1.020  -3.234  -1.766  0.00  0.00    -0.010 A 
ATOM     25  C   UNL     1       1.016  -3.864  -0.535  0.00  0.00    +0.088 A 
ATOM     26  C   UNL     1       0.400  -3.258   0.551  0.00  0.00    +0.158 A 
ATOM     27  C   UNL     1      -0.206  -2.019   0.400  0.00  0.00    +0.088 A 
ATOM     28 CL   UNL     1      -0.972  -1.255   1.757  0.00  0.00    -0.079 Cl
ATOM     29 CL   UNL     1       1.781  -5.411  -0.348  0.00  0.00    -0.079 Cl
ATOM     30  C   UNL     1       1.689  -3.892  -2.946  0.00  0.00    +0.047 C 
ATOM     31 CL   UNL     1       0.416  -1.214  -3.463  0.00  0.00    -0.083 Cl
ENDBRANCH  20  26
ENDBRANCH  19  20
ENDBRANCH  15  19
ENDBRANCH   1  17
BRANCH   3  32
ATOM     32  C   UNL     1      -0.868  -6.055   8.245  0.00  0.00    +0.339 C 
ATOM     33  O   UNL     1      -1.814  -5.758   7.542  0.00  0.00    -0.245 OA
BRANCH  32  34
ATOM     34  O   UNL     1      -1.074  -6.652   9.436  0.00  0.00    -0.464 OA
ATOM     35  C   UNL     1      -2.430  -6.906   9.808  0.00  0.00    +0.280 C 
ENDBRANCH  32  34
ENDBRANCH   3  32
TORSDOF 7
