REMARK  Name = ZINC54668134
REMARK  7 active torsions:
REMARK  status: ('A' for Active; 'I' for Inactive)
REMARK    1  A    between atoms: C_1  and  C_2
REMARK    2  A    between atoms: C_2  and  C_3
REMARK    3  A    between atoms: C_2  and  C_4
REMARK    4  A    between atoms: C_2  and  C_5
REMARK    5  A    between atoms: C_8  and  C_11
REMARK    6  A    between atoms: N_13  and  C_14
REMARK    7  A    between atoms: C_20  and  N_22
REMARK                            x       y       z     vdW  Elec       q    Type
REMARK                         _______ _______ _______ _____ _____    ______ ____
ROOT
ATOM      1  C   UNL     1       2.109   1.552  -3.758  0.00  0.00    +0.216 C 
ATOM      2  O   UNL     1       1.051   2.144  -3.744  0.00  0.00    -0.276 OA
ATOM      3  N   UNL     1       3.267   2.242  -3.765  0.00  0.00    -0.314 N 
ATOM      4  H   UNL     1       4.114   1.768  -3.776  0.00  0.00    +0.149 HD
ENDROOT
BRANCH   1   8
ATOM      5  C   UNL     1       0.718  -0.497  -1.257  0.00  0.00    -0.006 C 
ATOM      6  C   UNL     1      -0.022   0.009  -2.496  0.00  0.00    +0.005 C 
ATOM      7  C   UNL     1       0.694  -0.484  -3.755  0.00  0.00    +0.013 C 
ATOM      8  C   UNL     1       2.130   0.045  -3.766  0.00  0.00    +0.075 C 
ATOM      9  C   UNL     1       2.870  -0.461  -2.526  0.00  0.00    +0.013 C 
ATOM     10  C   UNL     1       2.154   0.032  -1.268  0.00  0.00    +0.005 C 
BRANCH   5  12
ATOM     11  C   UNL     1      -0.019   1.526   0.010  0.00  0.00    +0.011 C 
ATOM     12  C   UNL     1       0.002  -0.004   0.002  0.00  0.00    -0.035 C 
ATOM     13  C   UNL     1       0.742  -0.511   1.242  0.00  0.00    +0.011 C 
ATOM     14  C   UNL     1      -1.433  -0.534   0.013  0.00  0.00    +0.011 C 
ENDBRANCH   5  12
ENDBRANCH   1   8
BRANCH   3  15
ATOM     15  C   UNL     1       3.247   3.707  -3.757  0.00  0.00    +0.058 C 
ATOM     16  C   UNL     1       3.101   4.223  -5.190  0.00  0.00    +0.020 C 
ATOM     17  C   UNL     1       4.282   3.733  -6.031  0.00  0.00    +0.002 C 
ATOM     18  C   UNL     1       5.588   4.258  -5.431  0.00  0.00    -0.001 C 
ATOM     19  C   UNL     1       5.734   3.742  -3.998  0.00  0.00    -0.014 C 
ATOM     20  C   UNL     1       4.553   4.231  -3.157  0.00  0.00    -0.055 C 
BRANCH  20  21
ATOM     21  N   UNL     1       4.694   3.736  -1.781  0.00  0.00    +0.381 N 
ATOM     22  H   UNL     1       4.708   2.727  -1.787  0.00  0.00    -0.090 HD
ATOM     23  H   UNL     1       5.555   4.082  -1.385  0.00  0.00    -0.090 HD
ATOM     24  H   UNL     1       3.915   4.059  -1.226  0.00  0.00    -0.090 HD
ENDBRANCH  20  21
ENDBRANCH   3  15
TORSDOF 4
