REMARK  Name = ZINC12796965
REMARK  8 active torsions:
REMARK  status: ('A' for Active; 'I' for Inactive)
REMARK    1  A    between atoms: C_1  and  C_2
REMARK    2  A    between atoms: C_2  and  C_4
REMARK    3  A    between atoms: C_2  and  N_12
REMARK    4  A    between atoms: N_12  and  C_13
REMARK    5  A    between atoms: C_13  and  C_15
REMARK    6  A    between atoms: C_13  and  C_16
REMARK    7  A    between atoms: N_18  and  C_19
REMARK    8  A    between atoms: C_20  and  C_24
REMARK                            x       y       z     vdW  Elec       q    Type
REMARK                         _______ _______ _______ _____ _____    ______ ____
ROOT
ATOM      1  C   UNL     1      -0.235  -0.547  -2.346  0.00  0.00    +0.138 C 
ATOM      2  C   UNL     1      -0.975  -1.886  -2.321  0.00  0.00    +0.034 C 
ENDROOT
BRANCH   1   3
ATOM      3  C   UNL     1       0.541  -0.425  -3.631  0.00  0.00    +0.234 C 
ATOM      4  O   UNL     1       1.746  -0.294  -3.602  0.00  0.00    -0.274 OA
ATOM      5  N   UNL     1      -0.104  -0.463  -4.814  0.00  0.00    -0.278 N 
ATOM      6  H   UNL     1      -1.068  -0.568  -4.838  0.00  0.00    +0.155 HD
BRANCH   5   7
ATOM      7  C   UNL     1       0.611  -0.351  -5.997  0.00  0.00    +0.084 A 
ATOM      8  C   UNL     1       0.119  -0.362  -7.295  0.00  0.00    +0.065 A 
ATOM      9  C   UNL     1       1.092  -0.227  -8.355  0.00  0.00    +0.022 A 
ATOM     10  C   UNL     1       2.373  -0.105  -7.963  0.00  0.00    +0.048 A 
ATOM     11  S   UNL     1       2.267  -0.163  -6.188  0.00  0.00    -0.081 S 
BRANCH   8  12
ATOM     12  C   UNL     1      -1.313  -0.504  -7.575  0.00  0.00    +0.244 C 
ATOM     13  O   UNL     1      -2.105  -0.617  -6.658  0.00  0.00    -0.270 OA
ATOM     14  N   UNL     1      -1.752  -0.511  -8.850  0.00  0.00    -0.325 N 
ATOM     15  H   UNL     1      -1.121  -0.422  -9.581  0.00  0.00    +0.145 HD
ATOM     16  H   UNL     1      -2.700  -0.605  -9.035  0.00  0.00    +0.145 HD
ENDBRANCH   8  12
ENDBRANCH   5   7
ENDBRANCH   1   3
BRANCH   1  17
ATOM     17  N   UNL     1       0.690  -0.478  -1.207  0.00  0.00    -0.299 NA
ATOM     18  H   UNL     1       1.485   0.104  -1.422  0.00  0.00    +0.123 HD
BRANCH  17  20
ATOM     19  C   UNL     1      -0.019   1.526   0.010  0.00  0.00    +0.029 C 
ATOM     20  C   UNL     1       0.002  -0.004   0.002  0.00  0.00    +0.082 C 
BRANCH  20  21
ATOM     21  C   UNL     1       0.731  -0.503   1.223  0.00  0.00    -0.028 A 
ATOM     22  C   UNL     1       2.113  -0.513   1.246  0.00  0.00    +0.008 A 
ATOM     23  C   UNL     1       2.784  -0.971   2.365  0.00  0.00    +0.041 A 
ATOM     24  C   UNL     1       2.072  -1.419   3.463  0.00  0.00    +0.158 A 
ATOM     25  C   UNL     1       0.685  -1.408   3.441  0.00  0.00    +0.159 A 
ATOM     26  C   UNL     1       0.017  -0.945   2.321  0.00  0.00    +0.046 A 
ATOM     27  F   UNL     1      -0.012  -1.846   4.512  0.00  0.00    -0.202 F 
ATOM     28  F   UNL     1       2.727  -1.867   4.557  0.00  0.00    -0.202 F 
ENDBRANCH  20  21
ENDBRANCH  17  20
ENDBRANCH   1  17
TORSDOF 6
