REMARK  Name = ZINC44944195
REMARK  6 active torsions:
REMARK  status: ('A' for Active; 'I' for Inactive)
REMARK    1  A    between atoms: C_4  and  C_7
REMARK    2  A    between atoms: C_7  and  O_8
REMARK    3  A    between atoms: O_8  and  C_9
REMARK    4  A    between atoms: C_15  and  N_17
REMARK    5  A    between atoms: C_18  and  C_20
REMARK    6  A    between atoms: C_26  and  C_28
REMARK                            x       y       z     vdW  Elec       q    Type
REMARK                         _______ _______ _______ _____ _____    ______ ____
ROOT
ATOM      1  C   UNL     1       2.701  -4.924   3.762  0.00  0.00    +0.091 C 
ATOM      2  C   UNL     1       1.503  -4.278   3.062  0.00  0.00    +0.040 C 
ATOM      3  C   UNL     1       0.276  -5.120   3.256  0.00  0.00    -0.030 C 
ATOM      4  C   UNL     1       0.163  -6.039   4.161  0.00  0.00    -0.030 C 
ATOM      5  C   UNL     1       1.245  -6.397   5.137  0.00  0.00    +0.040 C 
ATOM      6  C   UNL     1       2.295  -5.285   5.196  0.00  0.00    +0.091 C 
ENDROOT
BRANCH   6   7
ATOM      7  C   UNL     1       3.502  -5.763   5.960  0.00  0.00    +0.220 C 
ATOM      8  O   UNL     1       4.366  -6.399   5.393  0.00  0.00    -0.275 OA
ATOM      9  N   UNL     1       3.623  -5.485   7.273  0.00  0.00    -0.298 N 
ATOM     10  C   UNL     1       2.528  -4.829   8.002  0.00  0.00    +0.126 C 
ATOM     11  C   UNL     1       2.153  -5.698   9.209  0.00  0.00    +0.125 C 
ATOM     12  N   UNL     1       3.381  -6.046   9.937  0.00  0.00    -0.314 N 
ATOM     13  C   UNL     1       4.475  -6.702   9.208  0.00  0.00    +0.125 C 
ATOM     14  C   UNL     1       4.849  -5.838   8.003  0.00  0.00    +0.126 C 
ATOM     15  C   UNL     1       3.505  -5.759  11.292  0.00  0.00    +0.099 A 
ATOM     16  C   UNL     1       2.416  -5.249  11.991  0.00  0.00    +0.042 A 
ATOM     17  C   UNL     1       2.553  -4.968  13.338  0.00  0.00    +0.005 A 
ATOM     18  C   UNL     1       3.780  -5.207  13.944  0.00  0.00    +0.018 A 
ATOM     19  C   UNL     1       4.819  -5.715  13.189  0.00  0.00    +0.084 A 
ATOM     20  N   UNL     1       4.657  -5.979  11.906  0.00  0.00    -0.350 N 
ATOM     21  H   UNL     1       5.402  -6.338  11.399  0.00  0.00    +0.166 HD
ENDBRANCH   6   7
BRANCH   1  23
ATOM     22  N   UNL     1       4.374  -3.489   2.638  0.00  0.00    -0.310 N 
ATOM     23  C   UNL     1       3.854  -3.953   3.792  0.00  0.00    +0.217 C 
ATOM     24  O   UNL     1       4.313  -3.590   4.854  0.00  0.00    -0.275 OA
ATOM     25  H   UNL     1       4.006  -3.779   1.789  0.00  0.00    +0.149 HD
BRANCH  22  31
ATOM     26  C   UNL     1       5.496  -1.717   1.381  0.00  0.00    +0.139 C 
ATOM     27  C   UNL     1       6.666  -0.731   1.411  0.00  0.00    +0.033 C 
ATOM     28  C   UNL     1       7.982  -1.505   1.522  0.00  0.00    +0.003 C 
ATOM     29  C   UNL     1       7.979  -2.333   2.808  0.00  0.00    +0.002 C 
ATOM     30  C   UNL     1       6.809  -3.318   2.778  0.00  0.00    +0.025 C 
ATOM     31  C   UNL     1       5.494  -2.545   2.667  0.00  0.00    +0.102 C 
BRANCH  26  32
ATOM     32  O   UNL     1       4.268  -0.995   1.277  0.00  0.00    -0.370 OA
BRANCH  32  33
ATOM     33  C   UNL     1       3.846  -0.754  -0.067  0.00  0.00    +0.195 C 
BRANCH  33  37
ATOM     34  C   UNL     1       0.165   1.412  -0.042  0.00  0.00    +0.000 A 
ATOM     35  C   UNL     1       1.367   2.094  -0.051  0.00  0.00    +0.000 A 
ATOM     36  C   UNL     1       2.559   1.393  -0.059  0.00  0.00    +0.006 A 
ATOM     37  C   UNL     1       2.547   0.010  -0.057  0.00  0.00    -0.022 A 
ATOM     38  C   UNL     1       1.345  -0.671  -0.048  0.00  0.00    +0.006 A 
ATOM     39  C   UNL     1       0.153   0.030  -0.041  0.00  0.00    +0.000 A 
ENDBRANCH  33  37
ENDBRANCH  32  33
ENDBRANCH  26  32
ENDBRANCH  22  31
ENDBRANCH   1  23
TORSDOF 6
