REMARK  Name = ZINC51145642
REMARK  7 active torsions:
REMARK  status: ('A' for Active; 'I' for Inactive)
REMARK    1  A    between atoms: C_1  and  N_2
REMARK    2  A    between atoms: N_2  and  C_3
REMARK    3  A    between atoms: N_2  and  C_11
REMARK    4  A    between atoms: C_3  and  C_4
REMARK    5  A    between atoms: C_11  and  C_12
REMARK    6  A    between atoms: C_13  and  N_17
REMARK    7  A    between atoms: N_17  and  N_18
REMARK                            x       y       z     vdW  Elec       q    Type
REMARK                         _______ _______ _______ _____ _____    ______ ____
ROOT
ATOM      1  C   UNL     1      -0.018   1.465   0.010  0.00  0.00    -0.095 C 
ATOM      2  N   UNL     1       0.002  -0.004   0.002  0.00  0.00    +0.384 N 
ATOM      3  H   UNL     1       0.490  -0.338   0.820  0.00  0.00    -0.081 HD
ENDROOT
BRANCH   2   4
ATOM      4  C   UNL     1       0.690  -0.478  -1.207  0.00  0.00    -0.043 C 
BRANCH   4   5
ATOM      5  C   UNL     1       2.137  -0.060  -1.158  0.00  0.00    -0.063 A 
ATOM      6  C   UNL     1       2.523   1.157  -1.688  0.00  0.00    +0.002 A 
ATOM      7  C   UNL     1       3.850   1.541  -1.644  0.00  0.00    +0.001 A 
ATOM      8  C   UNL     1       4.792   0.709  -1.069  0.00  0.00    +0.015 A 
ATOM      9  C   UNL     1       4.406  -0.509  -0.537  0.00  0.00    +0.018 A 
ATOM     10  C   UNL     1       3.077  -0.890  -0.578  0.00  0.00    +0.017 A 
ATOM     11 BR   UNL     1       5.694  -1.648   0.249  0.00  0.00    -0.050 Br
ENDBRANCH   4   5
ENDBRANCH   2   4
BRANCH   2  12
ATOM     12  C   UNL     1      -1.376  -0.512   0.012  0.00  0.00    -0.018 C 
BRANCH  12  13
ATOM     13  C   UNL     1      -2.043  -0.130   1.309  0.00  0.00    +0.078 A 
ATOM     14  C   UNL     1      -1.989  -0.934   2.412  0.00  0.00    +0.120 A 
ATOM     15  S   UNL     1      -2.872  -0.046   3.533  0.00  0.00    +0.053 S 
ATOM     16  N   UNL     1      -3.260   1.272   2.574  0.00  0.00    -0.109 NA
ATOM     17  N   UNL     1      -2.704   0.998   1.442  0.00  0.00    -0.146 NA
BRANCH  14  18
ATOM     18  N   UNL     1      -1.364  -2.169   2.567  0.00  0.00    -0.275 N 
ATOM     19  H   UNL     1      -0.884  -2.566   1.823  0.00  0.00    +0.167 HD
BRANCH  18  20
ATOM     20  N   UNL     1      -1.427  -2.820   3.766  0.00  0.00    -0.256 NA
ATOM     21  H   UNL     1      -2.385  -2.959   4.052  0.00  0.00    +0.140 HD
ATOM     22  H   UNL     1      -0.931  -3.698   3.727  0.00  0.00    +0.140 HD
ENDBRANCH  18  20
ENDBRANCH  14  18
ENDBRANCH  12  13
ENDBRANCH   2  12
TORSDOF 6
