REMARK  Name = ZINC58949603
REMARK  8 active torsions:
REMARK  status: ('A' for Active; 'I' for Inactive)
REMARK    1  A    between atoms: C_1  and  C_2
REMARK    2  A    between atoms: C_3  and  C_27
REMARK    3  A    between atoms: C_4  and  C_13
REMARK    4  A    between atoms: C_6  and  C_10
REMARK    5  A    between atoms: C_7  and  N_9
REMARK    6  A    between atoms: C_16  and  O_19
REMARK    7  A    between atoms: O_19  and  C_20
REMARK    8  A    between atoms: C_20  and  C_21
REMARK                            x       y       z     vdW  Elec       q    Type
REMARK                         _______ _______ _______ _____ _____    ______ ____
ROOT
ATOM      1  C   UNL     1      -0.141   1.498  -0.047  0.00  0.00    +0.087 C 
ATOM      2  C   UNL     1      -0.057  -0.007  -0.025  0.00  0.00    +0.113 C 
ATOM      3  C   UNL     1      -1.186  -0.719   0.057  0.00  0.00    +0.064 C 
ATOM      4  C   UNL     1      -1.159  -2.222   0.082  0.00  0.00    +0.097 C 
ATOM      5  C   UNL     1       0.181  -2.720  -0.387  0.00  0.00    +0.083 C 
ATOM      6  C   UNL     1       1.249  -1.886  -0.445  0.00  0.00    +0.193 C 
ATOM      7  O   UNL     1       1.150  -0.593  -0.093  0.00  0.00    -0.446 OA
ENDROOT
BRANCH   4   8
ATOM      8  C   UNL     1      -1.405  -2.703   1.489  0.00  0.00    -0.035 A 
ATOM      9  C   UNL     1      -0.546  -2.330   2.506  0.00  0.00    +0.008 A 
ATOM     10  C   UNL     1      -0.769  -2.770   3.796  0.00  0.00    +0.046 A 
ATOM     11  C   UNL     1      -1.856  -3.586   4.072  0.00  0.00    +0.121 A 
ATOM     12  C   UNL     1      -2.717  -3.959   3.050  0.00  0.00    +0.046 A 
ATOM     13  C   UNL     1      -2.493  -3.512   1.762  0.00  0.00    +0.008 A 
BRANCH  11  14
ATOM     14  O   UNL     1      -2.077  -4.021   5.340  0.00  0.00    -0.487 OA
BRANCH  14  15
ATOM     15  C   UNL     1      -3.216  -4.858   5.550  0.00  0.00    +0.264 C 
BRANCH  15  16
ATOM     16  C   UNL     1      -3.299  -5.238   7.006  0.00  0.00    -0.010 A 
ATOM     17  C   UNL     1      -2.660  -6.377   7.461  0.00  0.00    +0.007 A 
ATOM     18  C   UNL     1      -2.736  -6.725   8.796  0.00  0.00    +0.000 A 
ATOM     19  C   UNL     1      -3.450  -5.935   9.677  0.00  0.00    +0.000 A 
ATOM     20  C   UNL     1      -4.088  -4.796   9.223  0.00  0.00    +0.000 A 
ATOM     21  C   UNL     1      -4.009  -4.445   7.888  0.00  0.00    +0.007 A 
ENDBRANCH  15  16
ENDBRANCH  14  15
ENDBRANCH  11  14
ENDBRANCH   4   8
BRANCH   5  22
ATOM     22  C   UNL     1       0.328  -4.065  -0.769  0.00  0.00    +0.243 C 
ATOM     23  O   UNL     1      -0.064  -4.434  -1.862  0.00  0.00    -0.271 OA
ATOM     24  N   UNL     1       0.901  -4.946   0.075  0.00  0.00    -0.325 N 
ATOM     25  H   UNL     1       1.213  -4.652   0.945  0.00  0.00    +0.145 HD
ATOM     26  H   UNL     1       1.003  -5.874  -0.189  0.00  0.00    +0.145 HD
ENDBRANCH   5  22
BRANCH   3  27
ATOM     27  C   UNL     1      -2.470  -0.022   0.122  0.00  0.00    +0.242 C 
ATOM     28  O   UNL     1      -2.504   1.194   0.103  0.00  0.00    -0.271 OA
ATOM     29  N   UNL     1      -3.615  -0.728   0.205  0.00  0.00    -0.325 N 
ATOM     30  H   UNL     1      -3.588  -1.697   0.221  0.00  0.00    +0.145 HD
ATOM     31  H   UNL     1      -4.467  -0.266   0.249  0.00  0.00    +0.145 HD
ENDBRANCH   3  27
BRANCH   6  32
ATOM     32  N   UNL     1       2.456  -2.371  -0.876  0.00  0.00    -0.329 N 
ATOM     33  H   UNL     1       2.519  -3.276  -1.221  0.00  0.00    +0.145 HD
ATOM     34  H   UNL     1       3.246  -1.811  -0.836  0.00  0.00    +0.145 HD
ENDBRANCH   6  32
TORSDOF 7
