REMARK  Name = ZINC53124827
REMARK  11 active torsions:
REMARK  status: ('A' for Active; 'I' for Inactive)
REMARK    1  A    between atoms: C_1  and  C_2
REMARK    2  A    between atoms: C_2  and  C_4
REMARK    3  A    between atoms: C_2  and  N_11
REMARK    4  A    between atoms: N_11  and  C_12
REMARK    5  A    between atoms: N_11  and  C_13
REMARK    6  A    between atoms: C_13  and  C_14
REMARK    7  A    between atoms: N_16  and  C_17
REMARK    8  A    between atoms: C_17  and  C_18
REMARK    9  A    between atoms: C_18  and  C_19
REMARK   10  A    between atoms: C_22  and  S_25
REMARK   11  A    between atoms: S_25  and  N_28
REMARK                            x       y       z     vdW  Elec       q    Type
REMARK                         _______ _______ _______ _____ _____    ______ ____
ROOT
ATOM      1  C   UNL     1       0.820  -0.412   3.618  0.00  0.00    +0.196 C 
ATOM      2  O   UNL     1       1.858  -1.027   3.492  0.00  0.00    -0.278 OA
ATOM      3  N   UNL     1       0.379  -0.081   4.848  0.00  0.00    -0.317 N 
ATOM      4  H   UNL     1      -0.451   0.411   4.949  0.00  0.00    +0.149 HD
ENDROOT
BRANCH   1   5
ATOM      5  C   UNL     1       0.025  -0.017   2.401  0.00  0.00    +0.019 C 
BRANCH   5   6
ATOM      6  N   UNL     1       0.713  -0.491   1.192  0.00  0.00    +0.388 N 
ATOM      7  C   UNL     1       0.733  -1.960   1.184  0.00  0.00    -0.095 C 
ATOM      8  H   UNL     1       1.659  -0.141   1.185  0.00  0.00    -0.081 HD
BRANCH   6  10
ATOM      9  C   UNL     1      -0.019   1.526   0.010  0.00  0.00    -0.008 C 
ATOM     10  C   UNL     1       0.002  -0.004   0.002  0.00  0.00    -0.038 C 
BRANCH  10  11
ATOM     11  C   UNL     1       0.707  -0.490  -1.238  0.00  0.00    -0.026 A 
ATOM     12  C   UNL     1       2.024  -0.904  -1.167  0.00  0.00    +0.005 A 
ATOM     13  C   UNL     1       2.671  -1.350  -2.304  0.00  0.00    +0.000 A 
ATOM     14  C   UNL     1       2.003  -1.382  -3.514  0.00  0.00    +0.003 A 
ATOM     15  C   UNL     1       0.686  -0.969  -3.587  0.00  0.00    +0.038 A 
ATOM     16  C   UNL     1       0.035  -0.527  -2.447  0.00  0.00    +0.125 A 
ATOM     17  F   UNL     1      -1.253  -0.127  -2.517  0.00  0.00    -0.205 F 
ENDBRANCH  10  11
ENDBRANCH   6  10
ENDBRANCH   5   6
ENDBRANCH   1   5
BRANCH   3  18
ATOM     18  C   UNL     1       1.152  -0.464   6.032  0.00  0.00    +0.109 C 
BRANCH  18  19
ATOM     19  C   UNL     1       0.436   0.029   7.291  0.00  0.00    +0.054 C 
BRANCH  19  20
ATOM     20  C   UNL     1       1.231  -0.366   8.508  0.00  0.00    -0.046 A 
ATOM     21  C   UNL     1       0.995  -1.581   9.124  0.00  0.00    +0.005 A 
ATOM     22  C   UNL     1       1.725  -1.943  10.241  0.00  0.00    +0.029 A 
ATOM     23  C   UNL     1       2.690  -1.090  10.742  0.00  0.00    +0.105 A 
ATOM     24  C   UNL     1       2.927   0.125  10.126  0.00  0.00    +0.029 A 
ATOM     25  C   UNL     1       2.200   0.485   9.006  0.00  0.00    +0.005 A 
BRANCH  23  26
ATOM     26  S   UNL     1       3.619  -1.551  12.166  0.00  0.00    +0.056 S 
ATOM     27  O   UNL     1       4.082  -0.344  12.758  0.00  0.00    -0.153 OA
ATOM     28  O   UNL     1       2.831  -2.494  12.878  0.00  0.00    -0.153 OA
BRANCH  26  29
ATOM     29  N   UNL     1       4.962  -2.361  11.634  0.00  0.00    -0.204 NA
ATOM     30  H   UNL     1       5.102  -2.496  10.684  0.00  0.00    +0.144 HD
ATOM     31  H   UNL     1       5.608  -2.701  12.273  0.00  0.00    +0.144 HD
ENDBRANCH  26  29
ENDBRANCH  23  26
ENDBRANCH  19  20
ENDBRANCH  18  19
ENDBRANCH   3  18
TORSDOF 9
