REMARK  Name = ZINC06697226
REMARK  4 active torsions:
REMARK  status: ('A' for Active; 'I' for Inactive)
REMARK    1  A    between atoms: C_4  and  C_24
REMARK    2  A    between atoms: C_6  and  N_7
REMARK    3  A    between atoms: C_8  and  C_10
REMARK    4  A    between atoms: C_10  and  C_11
REMARK                            x       y       z     vdW  Elec       q    Type
REMARK                         _______ _______ _______ _____ _____    ______ ____
ROOT
ATOM      1  N   UNL     1      -0.011   0.966   0.007  0.00  0.00    -0.286 N 
ATOM      2  C   UNL     1       1.118   1.702   0.007  0.00  0.00    +0.216 C 
ATOM      3  O   UNL     1       1.054   2.911  -0.073  0.00  0.00    -0.276 OA
ATOM      4  H   UNL     1       0.042  -0.003   0.004  0.00  0.00    +0.155 HD
ENDROOT
BRANCH   1  10
ATOM      5  C   UNL     1      -1.433   2.793  -0.681  0.00  0.00    +0.025 A 
ATOM      6  C   UNL     1      -2.668   3.412  -0.685  0.00  0.00    +0.022 A 
ATOM      7  C   UNL     1      -3.728   2.850   0.005  0.00  0.00    +0.053 A 
ATOM      8  C   UNL     1      -3.555   1.663   0.696  0.00  0.00    +0.075 A 
ATOM      9  C   UNL     1      -2.325   1.037   0.698  0.00  0.00    +0.037 A 
ATOM     10  C   UNL     1      -1.260   1.599   0.007  0.00  0.00    +0.034 A 
ATOM     11 CL   UNL     1      -5.276   3.635   0.003  0.00  0.00    -0.083 Cl
BRANCH   8  12
ATOM     12  C   UNL     1      -4.712   1.054   1.446  0.00  0.00    +0.419 C 
ATOM     13  F   UNL     1      -4.296  -0.133   2.059  0.00  0.00    -0.166 F 
ATOM     14  F   UNL     1      -5.159   1.952   2.421  0.00  0.00    -0.166 F 
ATOM     15  F   UNL     1      -5.753   0.778   0.553  0.00  0.00    -0.166 F 
ENDBRANCH   8  12
ENDBRANCH   1  10
BRANCH   2  16
ATOM     16  C   UNL     1       2.460   1.024   0.106  0.00  0.00    +0.089 C 
BRANCH  16  17
ATOM     17  C   UNL     1       3.567   2.079   0.085  0.00  0.00    +0.025 C 
ATOM     18  C   UNL     1       4.903   1.394   0.060  0.00  0.00    +0.200 C 
ATOM     19  O   UNL     1       5.053   0.448  -0.685  0.00  0.00    -0.278 OA
ATOM     20  N   UNL     1       5.938   1.776   0.822  0.00  0.00    -0.315 N 
ATOM     21  C   UNL     1       5.823   2.856   1.792  0.00  0.00    +0.059 C 
ATOM     22  C   UNL     1       7.099   3.692   1.856  0.00  0.00    +0.020 C 
ATOM     23  C   UNL     1       6.934   4.766   2.935  0.00  0.00    +0.002 C 
ATOM     24  C   UNL     1       5.739   5.660   2.605  0.00  0.00    -0.001 C 
ATOM     25  C   UNL     1       4.464   4.815   2.511  0.00  0.00    -0.014 C 
ATOM     26  C   UNL     1       4.648   3.762   1.420  0.00  0.00    -0.050 C 
ATOM     27  H   UNL     1       6.788   1.319   0.724  0.00  0.00    +0.149 HD
ATOM     28  N   UNL     1       3.443   2.934   1.276  0.00  0.00    +0.390 N 
ATOM     29  H   UNL     1       3.332   2.345   2.109  0.00  0.00    -0.084 HD
ATOM     30  H   UNL     1       2.621   3.542   1.175  0.00  0.00    -0.084 HD
ENDBRANCH  16  17
ENDBRANCH   2  16
TORSDOF 4
