REMARK  Name = ZINC63529309
REMARK  6 active torsions:
REMARK  status: ('A' for Active; 'I' for Inactive)
REMARK    1  A    between atoms: C_7  and  C_10
REMARK    2  A    between atoms: C_10  and  C_11
REMARK    3  A    between atoms: C_11  and  N_12
REMARK    4  A    between atoms: C_13  and  C_15
REMARK    5  A    between atoms: C_16  and  N_27
REMARK    6  A    between atoms: C_19  and  C_25
REMARK                            x       y       z     vdW  Elec       q    Type
REMARK                         _______ _______ _______ _____ _____    ______ ____
ROOT
ATOM      1  C   UNL     1      -1.695  -6.486  -2.622  0.00  0.00    +0.097 A 
ATOM      2  C   UNL     1      -2.160  -7.208  -3.699  0.00  0.00    +0.053 A 
ATOM      3  C   UNL     1      -3.070  -8.315  -3.447  0.00  0.00    +0.030 A 
ATOM      4  C   UNL     1      -3.671  -9.189  -4.383  0.00  0.00    +0.034 A 
ATOM      5  C   UNL     1      -4.518 -10.189  -3.925  0.00  0.00    +0.092 A 
ATOM      6  C   UNL     1      -4.768 -10.322  -2.542  0.00  0.00    +0.135 A 
ATOM      7  N   UNL     1      -4.196  -9.494  -1.684  0.00  0.00    -0.224 NA
ATOM      8  C   UNL     1      -3.386  -8.534  -2.085  0.00  0.00    +0.113 A 
ATOM      9  S   UNL     1      -2.465  -7.281  -1.226  0.00  0.00    -0.062 S 
ATOM     10  N   UNL     1      -5.611 -11.317  -2.085  0.00  0.00    -0.342 N 
ATOM     11  H   UNL     1      -6.031 -11.924  -2.714  0.00  0.00    +0.144 HD
ATOM     12  H   UNL     1      -5.782 -11.409  -1.135  0.00  0.00    +0.144 HD
ENDROOT
BRANCH   1  14
ATOM     13  N   UNL     1      -0.458  -4.798  -1.460  0.00  0.00    -0.311 N 
ATOM     14  C   UNL     1      -0.811  -5.380  -2.623  0.00  0.00    +0.253 C 
ATOM     15  O   UNL     1      -0.369  -4.955  -3.676  0.00  0.00    -0.270 OA
ATOM     16  H   UNL     1      -0.810  -5.136  -0.622  0.00  0.00    +0.149 HD
BRANCH  13  17
ATOM     17  C   UNL     1       0.457  -3.653  -1.462  0.00  0.00    +0.109 C 
BRANCH  17  18
ATOM     18  C   UNL     1       0.691  -3.186  -0.024  0.00  0.00    +0.052 C 
BRANCH  18  25
ATOM     19  C   UNL     1      -0.016   1.348   0.009  0.00  0.00    +0.001 A 
ATOM     20  C   UNL     1       1.166   2.101   0.002  0.00  0.00    +0.002 A 
ATOM     21  C   UNL     1       2.391   1.535  -0.013  0.00  0.00    +0.026 A 
ATOM     22  C   UNL     1       2.529   0.120  -0.022  0.00  0.00    +0.043 A 
ATOM     23  N   UNL     1       3.587  -0.654  -0.037  0.00  0.00    -0.380 N 
ATOM     24  C   UNL     1       3.143  -2.053  -0.041  0.00  0.00    +0.144 C 
ATOM     25  C   UNL     1       1.631  -2.008  -0.025  0.00  0.00    -0.040 C 
ATOM     26  C   UNL     1       1.295  -0.698  -0.014  0.00  0.00    -0.001 A 
ATOM     27  C   UNL     1       0.002  -0.004   0.002  0.00  0.00    +0.010 A 
ATOM     28  H   UNL     1       4.509  -0.353  -0.045  0.00  0.00    +0.160 HD
ENDBRANCH  18  25
ENDBRANCH  17  18
ENDBRANCH  13  17
ENDBRANCH   1  14
BRANCH   2  29
ATOM     29  N   UNL     1      -1.771  -6.888  -4.991  0.00  0.00    -0.356 N 
ATOM     30  H   UNL     1      -1.163  -6.148  -5.145  0.00  0.00    +0.142 HD
ATOM     31  H   UNL     1      -2.106  -7.404  -5.740  0.00  0.00    +0.142 HD
ENDBRANCH   2  29
BRANCH   5  32
ATOM     32  C   UNL     1      -5.139 -11.084  -4.854  0.00  0.00    +0.103 C 
ATOM     33  N   UNL     1      -5.631 -11.795  -5.592  0.00  0.00    -0.191 NA
ENDBRANCH   5  32
TORSDOF 6
