REMARK  Name = ZINC61713655
REMARK  6 active torsions:
REMARK  status: ('A' for Active; 'I' for Inactive)
REMARK    1  A    between atoms: C_2  and  C_19
REMARK    2  A    between atoms: C_5  and  S_8
REMARK    3  A    between atoms: S_8  and  N_11
REMARK    4  A    between atoms: C_14  and  O_17
REMARK    5  A    between atoms: C_20  and  C_21
REMARK    6  A    between atoms: C_21  and  N_22
REMARK                            x       y       z     vdW  Elec       q    Type
REMARK                         _______ _______ _______ _____ _____    ______ ____
ROOT
ATOM      1  C   UNL     1      -0.017   1.377   0.010  0.00  0.00    +0.039 A 
ATOM      2  C   UNL     1       1.184   2.088   0.002  0.00  0.00    +0.028 A 
ATOM      3  C   UNL     1       2.397   1.399  -0.013  0.00  0.00    +0.039 A 
ATOM      4  C   UNL     1       2.403   0.018  -0.021  0.00  0.00    +0.070 A 
ATOM      5  C   UNL     1       1.209  -0.683  -0.014  0.00  0.00    +0.142 A 
ATOM      6  C   UNL     1       0.002  -0.004   0.002  0.00  0.00    +0.070 A 
ATOM      7 CL   UNL     1      -1.490  -0.891   0.012  0.00  0.00    -0.081 Cl
ATOM      8 CL   UNL     1       3.911  -0.842  -0.040  0.00  0.00    -0.081 Cl
ENDROOT
BRANCH   5   9
ATOM      9  S   UNL     1       1.225  -2.445  -0.024  0.00  0.00    +0.064 S 
ATOM     10  O   UNL     1      -0.022  -2.859  -0.565  0.00  0.00    -0.153 OA
ATOM     11  O   UNL     1       2.468  -2.836  -0.589  0.00  0.00    -0.153 OA
BRANCH   9  12
ATOM     12  N   UNL     1       1.244  -2.943   1.555  0.00  0.00    -0.174 NA
ATOM     13  C   UNL     1       2.452  -3.185   2.365  0.00  0.00    +0.112 C 
ATOM     14  C   UNL     1       1.986  -3.011   3.833  0.00  0.00    +0.050 C 
ATOM     15  C   UNL     1       0.562  -3.625   3.783  0.00  0.00    +0.131 C 
ATOM     16  C   UNL     1       0.059  -3.212   2.383  0.00  0.00    +0.140 C 
BRANCH  15  17
ATOM     17  O   UNL     1      -0.266  -3.065   4.804  0.00  0.00    -0.390 OA
ATOM     18  H   UNL     1       0.052  -3.229   5.702  0.00  0.00    +0.210 HD
ENDBRANCH  15  17
ENDBRANCH   9  12
ENDBRANCH   5   9
BRANCH   2  19
ATOM     19  C   UNL     1       1.171   3.520   0.009  0.00  0.00    -0.068 C 
ATOM     20  C   UNL     1       1.160   4.694   0.015  0.00  0.00    -0.117 C 
BRANCH  20  21
ATOM     21  C   UNL     1       1.147   6.166   0.023  0.00  0.00    +0.005 C 
BRANCH  21  22
ATOM     22  N   UNL     1       2.527   6.668   0.013  0.00  0.00    +0.385 N 
ATOM     23  H   UNL     1       3.014   6.332   0.830  0.00  0.00    -0.089 HD
ATOM     24  H   UNL     1       2.998   6.340  -0.818  0.00  0.00    -0.089 HD
ATOM     25  H   UNL     1       2.518   7.677   0.018  0.00  0.00    -0.089 HD
ENDBRANCH  21  22
ENDBRANCH  20  21
ENDBRANCH   2  19
TORSDOF 6
