REMARK  Name = ZINC49147465
REMARK  7 active torsions:
REMARK  status: ('A' for Active; 'I' for Inactive)
REMARK    1  A    between atoms: C_1  and  C_2
REMARK    2  A    between atoms: C_2  and  C_4
REMARK    3  A    between atoms: C_2  and  N_10
REMARK    4  A    between atoms: N_10  and  S_11
REMARK    5  A    between atoms: S_11  and  C_14
REMARK    6  A    between atoms: C_17  and  C_19
REMARK    7  A    between atoms: C_19  and  N_20
REMARK                            x       y       z     vdW  Elec       q    Type
REMARK                         _______ _______ _______ _____ _____    ______ ____
ROOT
ATOM      1  S   UNL     1      -2.119  -0.907  -1.411  0.00  0.00    +0.065 S 
ATOM      2  O   UNL     1      -3.414  -1.386  -1.071  0.00  0.00    -0.153 OA
ATOM      3  O   UNL     1      -1.920   0.189  -2.293  0.00  0.00    -0.153 OA
ENDROOT
BRANCH   1   4
ATOM      4  C   UNL     1      -1.242  -2.272  -2.098  0.00  0.00    +0.143 A 
ATOM      5  C   UNL     1      -1.452  -3.599  -1.918  0.00  0.00    +0.036 A 
ATOM      6  C   UNL     1      -0.629  -4.502  -2.566  0.00  0.00    +0.011 A 
ATOM      7  C   UNL     1       0.362  -4.033  -3.362  0.00  0.00    -0.026 A 
ATOM      8  S   UNL     1       0.149  -2.267  -3.217  0.00  0.00    -0.075 S 
BRANCH   7   9
ATOM      9  C   UNL     1       1.378  -4.803  -4.166  0.00  0.00    -0.043 C 
BRANCH   9  10
ATOM     10  N   UNL     1       0.845  -5.064  -5.510  0.00  0.00    +0.381 N 
ATOM     11  H   UNL     1       1.525  -5.579  -6.048  0.00  0.00    -0.090 HD
ATOM     12  H   UNL     1      -0.005  -5.603  -5.435  0.00  0.00    -0.090 HD
ATOM     13  H   UNL     1       0.647  -4.187  -5.968  0.00  0.00    -0.090 HD
ENDBRANCH   9  10
ENDBRANCH   7   9
ENDBRANCH   1   4
BRANCH   1  14
ATOM     14  N   UNL     1      -1.372  -0.511   0.012  0.00  0.00    -0.182 NA
ATOM     15  H   UNL     1      -1.845  -0.615   0.853  0.00  0.00    +0.149 HD
BRANCH  14  17
ATOM     16  C   UNL     1      -0.019   1.526   0.010  0.00  0.00    +0.031 C 
ATOM     17  C   UNL     1       0.002  -0.004   0.002  0.00  0.00    +0.110 C 
BRANCH  17  18
ATOM     18  C   UNL     1       0.731  -0.503   1.223  0.00  0.00    +0.009 A 
ATOM     19  C   UNL     1       2.009  -0.938   1.335  0.00  0.00    +0.014 A 
ATOM     20  C   UNL     1       2.471  -1.355   2.570  0.00  0.00    +0.028 A 
ATOM     21  C   UNL     1       1.629  -1.315   3.633  0.00  0.00    +0.078 A 
ATOM     22  S   UNL     1       0.136  -0.668   2.898  0.00  0.00    -0.080 S 
ATOM     23 CL   UNL     1       1.927  -1.770   5.282  0.00  0.00    -0.076 Cl
ENDBRANCH  17  18
ENDBRANCH  14  17
ENDBRANCH   1  14
TORSDOF 6
