REMARK  Name = ZINC58949148
REMARK  6 active torsions:
REMARK  status: ('A' for Active; 'I' for Inactive)
REMARK    1  A    between atoms: C_1  and  C_2
REMARK    2  A    between atoms: C_3  and  C_27
REMARK    3  A    between atoms: C_4  and  C_13
REMARK    4  A    between atoms: C_6  and  C_10
REMARK    5  A    between atoms: C_7  and  N_9
REMARK    6  A    between atoms: C_27  and  C_29
REMARK                            x       y       z     vdW  Elec       q    Type
REMARK                         _______ _______ _______ _____ _____    ______ ____
ROOT
ATOM      1  C   UNL     1      -0.008   1.458  -0.226  0.00  0.00    +0.086 C 
ATOM      2  C   UNL     1       0.013  -0.046  -0.125  0.00  0.00    +0.112 C 
ATOM      3  C   UNL     1      -1.152  -0.715  -0.103  0.00  0.00    +0.044 C 
ATOM      4  C   UNL     1      -1.186  -2.215  -0.004  0.00  0.00    +0.097 C 
ATOM      5  C   UNL     1       0.153  -2.729   0.451  0.00  0.00    +0.083 C 
ATOM      6  C   UNL     1       1.255  -1.940   0.398  0.00  0.00    +0.193 C 
ATOM      7  O   UNL     1       1.195  -0.678  -0.066  0.00  0.00    -0.446 OA
ENDROOT
BRANCH   4   8
ATOM      8  C   UNL     1      -1.511  -2.799  -1.355  0.00  0.00    -0.020 A 
ATOM      9  C   UNL     1      -0.751  -2.451  -2.470  0.00  0.00    -0.013 A 
ATOM     10  C   UNL     1       0.333  -1.553  -2.363  0.00  0.00    +0.009 A 
ATOM     11  C   UNL     1       1.052  -1.236  -3.469  0.00  0.00    +0.001 A 
ATOM     12  C   UNL     1       0.751  -1.776  -4.720  0.00  0.00    +0.001 A 
ATOM     13  C   UNL     1      -0.277  -2.645  -4.894  0.00  0.00    +0.008 A 
ATOM     14  C   UNL     1      -1.067  -3.019  -3.785  0.00  0.00    -0.017 A 
ATOM     15  C   UNL     1      -2.131  -3.909  -3.927  0.00  0.00    +0.017 A 
ATOM     16  C   UNL     1      -2.891  -4.255  -2.812  0.00  0.00    -0.017 A 
ATOM     17  C   UNL     1      -2.570  -3.693  -1.496  0.00  0.00    -0.013 A 
ATOM     18  C   UNL     1      -3.357  -4.072  -0.387  0.00  0.00    +0.009 A 
ATOM     19  C   UNL     1      -4.381  -4.946  -0.560  0.00  0.00    +0.001 A 
ATOM     20  C   UNL     1      -4.682  -5.486  -1.810  0.00  0.00    +0.001 A 
ATOM     21  C   UNL     1      -3.975  -5.154  -2.920  0.00  0.00    +0.008 A 
ENDBRANCH   4   8
BRANCH   5  22
ATOM     22  C   UNL     1       0.262  -4.044   0.938  0.00  0.00    +0.243 C 
ATOM     23  O   UNL     1      -0.223  -4.336   2.017  0.00  0.00    -0.271 OA
ATOM     24  N   UNL     1       0.904  -4.981   0.212  0.00  0.00    -0.325 N 
ATOM     25  H   UNL     1       1.290  -4.748  -0.647  0.00  0.00    +0.145 HD
ATOM     26  H   UNL     1       0.980  -5.887   0.548  0.00  0.00    +0.145 HD
ENDBRANCH   5  22
BRANCH   6  27
ATOM     27  N   UNL     1       2.458  -2.442   0.821  0.00  0.00    -0.329 N 
ATOM     28  H   UNL     1       2.529  -3.372   1.085  0.00  0.00    +0.145 HD
ATOM     29  H   UNL     1       3.238  -1.866   0.856  0.00  0.00    +0.145 HD
ENDBRANCH   6  27
BRANCH   3  30
ATOM     30  C   UNL     1      -2.362   0.001  -0.173  0.00  0.00    +0.160 C 
ATOM     31  O   UNL     1      -2.347   1.213  -0.253  0.00  0.00    -0.293 OA
ATOM     32  C   UNL     1      -3.676  -0.736  -0.150  0.00  0.00    +0.091 C 
ENDBRANCH   3  30
TORSDOF 4
