REMARK  Name = ZINC57845434
REMARK  10 active torsions:
REMARK  status: ('A' for Active; 'I' for Inactive)
REMARK    1  A    between atoms: C_1  and  C_2
REMARK    2  A    between atoms: C_2  and  C_3
REMARK    3  A    between atoms: C_3  and  C_15
REMARK    4  A    between atoms: N_6  and  C_10
REMARK    5  A    between atoms: C_10  and  C_12
REMARK    6  A    between atoms: C_10  and  C_13
REMARK    7  A    between atoms: C_13  and  N_14
REMARK    8  A    between atoms: C_18  and  C_21
REMARK    9  A    between atoms: C_21  and  C_22
REMARK   10  A    between atoms: C_21  and  C_23
REMARK                            x       y       z     vdW  Elec       q    Type
REMARK                         _______ _______ _______ _____ _____    ______ ____
ROOT
ATOM      1  C   UNL     1      -1.433  -0.534   0.013  0.00  0.00    +0.138 C 
ATOM      2  C   UNL     1      -2.192  -0.043  -1.205  0.00  0.00    +0.251 C 
ATOM      3  O   UNL     1      -1.933  -0.267  -2.368  0.00  0.00    -0.272 OA
ATOM      4  N   UNL     1      -3.214   0.692  -0.725  0.00  0.00    -0.223 N 
ATOM      5  C   UNL     1      -3.207   0.734   0.612  0.00  0.00    +0.310 C 
ATOM      6  O   UNL     1      -4.031   1.335   1.273  0.00  0.00    -0.252 OA
ATOM      7  N   UNL     1      -2.187   0.036   1.143  0.00  0.00    -0.281 N 
ATOM      8  H   UNL     1      -1.987  -0.072   2.086  0.00  0.00    +0.152 HD
ENDROOT
BRANCH   1   9
ATOM      9  C   UNL     1      -1.441  -2.039   0.076  0.00  0.00    -0.015 A 
ATOM     10  C   UNL     1      -0.400  -2.759  -0.480  0.00  0.00    +0.006 A 
ATOM     11  C   UNL     1      -0.407  -4.141  -0.423  0.00  0.00    +0.004 A 
ATOM     12  C   UNL     1      -1.454  -4.802   0.191  0.00  0.00    -0.045 A 
ATOM     13  C   UNL     1      -2.495  -4.082   0.748  0.00  0.00    +0.004 A 
ATOM     14  C   UNL     1      -2.486  -2.700   0.694  0.00  0.00    +0.006 A 
BRANCH  12  15
ATOM     15  C   UNL     1      -1.462  -6.307   0.253  0.00  0.00    +0.013 C 
ATOM     16  C   UNL     1      -1.482  -6.758   1.715  0.00  0.00    +0.012 C 
ATOM     17  C   UNL     1      -2.705  -6.840  -0.462  0.00  0.00    +0.012 C 
ENDBRANCH  12  15
ENDBRANCH   1   9
BRANCH   1  19
ATOM     18  C   UNL     1      -0.019   1.526   0.010  0.00  0.00    +0.007 C 
ATOM     19  C   UNL     1       0.002  -0.004   0.002  0.00  0.00    +0.037 C 
ENDBRANCH   1  19
BRANCH   4  20
ATOM     20  C   UNL     1      -4.210   1.363  -1.565  0.00  0.00    +0.065 C 
ATOM     21  C   UNL     1      -4.167   2.869  -1.301  0.00  0.00    +0.026 C 
BRANCH  20  22
ATOM     22  C   UNL     1      -5.604   0.826  -1.231  0.00  0.00    -0.063 C 
BRANCH  22  23
ATOM     23  N   UNL     1      -5.611  -0.636  -1.369  0.00  0.00    +0.379 N 
ATOM     24  H   UNL     1      -5.373  -0.886  -2.317  0.00  0.00    -0.090 HD
ATOM     25  H   UNL     1      -4.936  -1.037  -0.735  0.00  0.00    -0.090 HD
ATOM     26  H   UNL     1      -6.530  -0.990  -1.149  0.00  0.00    -0.090 HD
ENDBRANCH  22  23
ENDBRANCH  20  22
ENDBRANCH   4  20
TORSDOF 6
