REMARK  Name = ZINC67609249
REMARK  10 active torsions:
REMARK  status: ('A' for Active; 'I' for Inactive)
REMARK    1  A    between atoms: C_1  and  C_2
REMARK    2  A    between atoms: N_5  and  C_8
REMARK    3  A    between atoms: C_8  and  C_9
REMARK    4  A    between atoms: C_9  and  C_11
REMARK    5  A    between atoms: C_9  and  O_30
REMARK    6  A    between atoms: C_11  and  N_12
REMARK    7  A    between atoms: N_15  and  C_16
REMARK    8  A    between atoms: C_16  and  C_18
REMARK    9  A    between atoms: C_16  and  C_19
REMARK   10  A    between atoms: C_22  and  N_25
REMARK                            x       y       z     vdW  Elec       q    Type
REMARK                         _______ _______ _______ _____ _____    ______ ____
ROOT
ATOM      1  N   UNL     1       3.964  -6.214   1.958  0.00  0.00    -0.297 N 
ATOM      2  C   UNL     1       4.412  -7.484   2.013  0.00  0.00    +0.300 C 
ATOM      3  O   UNL     1       4.039  -8.296   1.188  0.00  0.00    -0.253 OA
ATOM      4  N   UNL     1       5.272  -7.854   2.982  0.00  0.00    -0.293 N 
ATOM      5  H   UNL     1       4.261  -5.566   2.617  0.00  0.00    +0.150 HD
ATOM      6  H   UNL     1       5.570  -7.207   3.640  0.00  0.00    +0.151 HD
ENDROOT
BRANCH   4   7
ATOM      7  C   UNL     1       5.759  -9.235   3.041  0.00  0.00    +0.102 C 
ATOM      8  C   UNL     1       4.755 -10.097   3.807  0.00  0.00    +0.033 C 
BRANCH   7   9
ATOM      9  C   UNL     1       7.091  -9.268   3.746  0.00  0.00    -0.027 A 
ATOM     10  C   UNL     1       7.302  -8.475   4.859  0.00  0.00    +0.007 A 
ATOM     11  C   UNL     1       8.521  -8.504   5.508  0.00  0.00    +0.028 A 
ATOM     12  C   UNL     1       9.535  -9.330   5.041  0.00  0.00    +0.067 A 
ATOM     13  C   UNL     1       9.320 -10.125   3.923  0.00  0.00    +0.028 A 
ATOM     14  C   UNL     1       8.097 -10.095   3.282  0.00  0.00    +0.007 A 
BRANCH  12  15
ATOM     15  N   UNL     1      10.774  -9.361   5.697  0.00  0.00    -0.220 N 
ATOM     16  C   UNL     1      11.847 -10.102   5.361  0.00  0.00    +0.225 A 
ATOM     17  N   UNL     1      12.801  -9.847   6.220  0.00  0.00    -0.222 NA
ATOM     18  C   UNL     1      12.377  -8.953   7.114  0.00  0.00    +0.245 A 
ATOM     19  N   UNL     1      11.144  -8.621   6.832  0.00  0.00    -0.154 NA
ENDBRANCH  12  15
ENDBRANCH   7   9
ENDBRANCH   4   7
BRANCH   1  20
ATOM     20  C   UNL     1       3.028  -5.812   0.905  0.00  0.00    +0.135 C 
BRANCH  20  21
ATOM     21  C   UNL     1       2.681  -4.331   1.070  0.00  0.00    +0.115 C 
BRANCH  21  22
ATOM     22  O   UNL     1       2.077  -4.123   2.349  0.00  0.00    -0.392 OA
ATOM     23  H   UNL     1       1.262  -4.624   2.485  0.00  0.00    +0.210 HD
ENDBRANCH  21  22
BRANCH  21  24
ATOM     24  C   UNL     1       1.704  -3.911  -0.029  0.00  0.00    -0.046 C 
BRANCH  24  29
ATOM     25  C   UNL     1       0.801   1.694  -0.579  0.00  0.00    +0.007 C 
ATOM     26  C   UNL     1       1.167   0.235  -0.859  0.00  0.00    -0.018 C 
ATOM     27  C   UNL     1       2.284  -0.205   0.093  0.00  0.00    -0.016 C 
ATOM     28  C   UNL     1       2.590  -1.686  -0.138  0.00  0.00    -0.078 C 
ATOM     29  N   UNL     1       1.385  -2.484   0.118  0.00  0.00    +0.381 N 
ATOM     30  C   UNL     1       0.333  -2.118  -0.839  0.00  0.00    -0.078 C 
ATOM     31  C   UNL     1      -0.060  -0.654  -0.635  0.00  0.00    -0.016 C 
ATOM     32  H   UNL     1       1.060  -2.309   1.057  0.00  0.00    -0.082 HD
ENDBRANCH  24  29
ENDBRANCH  21  24
ENDBRANCH  20  21
ENDBRANCH   1  20
TORSDOF 8
