REMARK  Name = ZINC38547796
REMARK  8 active torsions:
REMARK  status: ('A' for Active; 'I' for Inactive)
REMARK    1  A    between atoms: C_1  and  C_2
REMARK    2  A    between atoms: C_2  and  C_3
REMARK    3  A    between atoms: C_5  and  C_16
REMARK    4  A    between atoms: C_6  and  N_8
REMARK    5  A    between atoms: C_9  and  C_11
REMARK    6  A    between atoms: C_16  and  C_18
REMARK    7  A    between atoms: C_16  and  N_25
REMARK    8  A    between atoms: C_28  and  C_32
REMARK                            x       y       z     vdW  Elec       q    Type
REMARK                         _______ _______ _______ _____ _____    ______ ____
ROOT
ATOM      1  C   UNL     1       3.962  -1.512  -2.892  0.00  0.00    +0.137 C 
ENDROOT
BRANCH   1   2
ATOM      2  N   UNL     1       4.711  -0.837  -1.830  0.00  0.00    -0.320 N 
ATOM      3  C   UNL     1       6.081  -0.638  -1.963  0.00  0.00    +0.097 A 
ATOM      4  C   UNL     1       6.732  -1.079  -3.111  0.00  0.00    +0.045 A 
ATOM      5  C   UNL     1       8.095  -0.875  -3.231  0.00  0.00    -0.046 A 
ATOM      6  C   UNL     1       8.763  -0.235  -2.195  0.00  0.00    +0.021 A 
ATOM      7  C   UNL     1       8.053   0.176  -1.085  0.00  0.00    +0.084 A 
ATOM      8  N   UNL     1       6.752  -0.027  -1.000  0.00  0.00    -0.350 N 
ATOM      9  C   UNL     1       8.838  -1.337  -4.457  0.00  0.00    +0.044 C 
ATOM     10  H   UNL     1       4.252  -0.528  -1.033  0.00  0.00    +0.148 HD
ATOM     11  H   UNL     1       6.277   0.275  -0.210  0.00  0.00    +0.166 HD
ENDBRANCH   1   2
BRANCH   1  12
ATOM     12  C   UNL     1       4.126  -3.004  -2.752  0.00  0.00    +0.012 A 
ATOM     13  C   UNL     1       4.418  -3.555  -1.518  0.00  0.00    +0.008 A 
ATOM     14  C   UNL     1       4.569  -4.923  -1.390  0.00  0.00    +0.001 A 
ATOM     15  C   UNL     1       4.428  -5.741  -2.495  0.00  0.00    +0.003 A 
ATOM     16  C   UNL     1       4.137  -5.193  -3.729  0.00  0.00    +0.039 A 
ATOM     17  C   UNL     1       3.980  -3.823  -3.858  0.00  0.00    +0.129 A 
ATOM     18  F   UNL     1       3.690  -3.286  -5.064  0.00  0.00    -0.205 F 
ENDBRANCH   1  12
BRANCH   1  21
ATOM     19  C   UNL     1       0.290  -1.703  -2.169  0.00  0.00    -0.008 A 
ATOM     20  C   UNL     1       1.595  -2.056  -2.254  0.00  0.00    +0.019 A 
ATOM     21  C   UNL     1       2.502  -1.155  -2.782  0.00  0.00    +0.006 A 
ATOM     22  C   UNL     1       2.052   0.061  -3.200  0.00  0.00    +0.078 A 
ATOM     23  S   UNL     1       0.304  -0.054  -2.854  0.00  0.00    -0.078 S 
BRANCH  22  24
ATOM     24  N   UNL     1       2.770   1.120  -3.759  0.00  0.00    -0.273 N 
ATOM     25  C   UNL     1       2.155   2.293  -4.010  0.00  0.00    +0.284 C 
ATOM     26  O   UNL     1       0.974   2.429  -3.750  0.00  0.00    -0.266 OA
ATOM     27  H   UNL     1       3.711   1.012  -3.967  0.00  0.00    +0.156 HD
BRANCH  25  28
ATOM     28  C   UNL     1       2.909   3.405  -4.598  0.00  0.00    +0.189 A 
ATOM     29  C   UNL     1       2.412   4.641  -4.896  0.00  0.00    +0.054 A 
ATOM     30  C   UNL     1       3.475   5.383  -5.436  0.00  0.00    +0.042 A 
ATOM     31  C   UNL     1       4.559   4.577  -5.443  0.00  0.00    +0.196 A 
ATOM     32  O   UNL     1       4.215   3.387  -4.932  0.00  0.00    -0.458 OA
ENDBRANCH  25  28
ENDBRANCH  22  24
BRANCH  19  34
ATOM     33  C   UNL     1      -1.042  -2.224  -0.143  0.00  0.00    +0.009 C 
ATOM     34  C   UNL     1      -0.875  -2.499  -1.639  0.00  0.00    +0.039 C 
ENDBRANCH  19  34
ENDBRANCH   1  21
TORSDOF 6
