REMARK  Name = ZINC63948686
REMARK  3 active torsions:
REMARK  status: ('A' for Active; 'I' for Inactive)
REMARK    1  A    between atoms: C_6  and  C_11
REMARK    2  A    between atoms: C_17  and  C_20
REMARK    3  A    between atoms: N_22  and  C_23
REMARK                            x       y       z     vdW  Elec       q    Type
REMARK                         _______ _______ _______ _____ _____    ______ ____
ROOT
ATOM      1  C   UNL     1       3.642  -2.743  -1.290  0.00  0.00    +0.242 C 
ATOM      2  O   UNL     1       4.295  -2.137  -2.113  0.00  0.00    -0.273 OA
ATOM      3  N   UNL     1       3.345  -4.043  -1.490  0.00  0.00    -0.299 N 
ATOM      4  C   UNL     1       2.548  -4.788  -0.506  0.00  0.00    +0.108 C 
ATOM      5  C   UNL     1       3.314  -6.053  -0.108  0.00  0.00    +0.020 C 
ATOM      6  C   UNL     1       3.664  -6.850  -1.366  0.00  0.00    +0.016 C 
ATOM      7  C   UNL     1       4.563  -6.006  -2.273  0.00  0.00    +0.093 C 
ATOM      8  C   UNL     1       3.806  -4.739  -2.699  0.00  0.00    +0.120 C 
ENDROOT
BRANCH   1  14
ATOM      9  C   UNL     1      -0.000   1.357   0.013  0.00  0.00    +0.001 A 
ATOM     10  C   UNL     1       1.181   2.110  -0.004  0.00  0.00    +0.002 A 
ATOM     11  C   UNL     1       2.407   1.545  -0.025  0.00  0.00    +0.026 A 
ATOM     12  C   UNL     1       2.545   0.130  -0.030  0.00  0.00    +0.043 A 
ATOM     13  N   UNL     1       3.604  -0.644  -0.050  0.00  0.00    -0.370 N 
ATOM     14  C   UNL     1       3.161  -2.043  -0.046  0.00  0.00    +0.190 C 
ATOM     15  C   UNL     1       1.649  -1.999  -0.021  0.00  0.00    +0.016 C 
ATOM     16  C   UNL     1       1.312  -0.689  -0.012  0.00  0.00    -0.004 A 
ATOM     17  C   UNL     1       0.019   0.004   0.010  0.00  0.00    +0.010 A 
ATOM     18  H   UNL     1       4.525  -0.342  -0.064  0.00  0.00    +0.161 HD
ENDBRANCH   1  14
BRANCH   7  19
ATOM     19  C   UNL     1       4.934  -6.804  -3.497  0.00  0.00    +0.222 C 
ATOM     20  O   UNL     1       4.630  -6.400  -4.599  0.00  0.00    -0.275 OA
ATOM     21  N   UNL     1       5.604  -7.966  -3.366  0.00  0.00    -0.285 N 
ATOM     22  H   UNL     1       5.906  -8.256  -2.491  0.00  0.00    +0.155 HD
BRANCH  21  23
ATOM     23  C   UNL     1       5.863  -8.755  -4.492  0.00  0.00    +0.034 A 
ATOM     24  C   UNL     1       5.848 -10.140  -4.391  0.00  0.00    +0.023 A 
ATOM     25  C   UNL     1       6.105 -10.916  -5.504  0.00  0.00    +0.003 A 
ATOM     26  C   UNL     1       6.377 -10.315  -6.720  0.00  0.00    +0.015 A 
ATOM     27  C   UNL     1       6.393  -8.936  -6.825  0.00  0.00    +0.020 A 
ATOM     28  C   UNL     1       6.131  -8.154  -5.715  0.00  0.00    +0.038 A 
ATOM     29 BR   UNL     1       6.766  -8.119  -8.489  0.00  0.00    -0.050 Br
ENDBRANCH  21  23
ENDBRANCH   7  19
TORSDOF 3
