REMARK  Name = ZINC63062061
REMARK  4 active torsions:
REMARK  status: ('A' for Active; 'I' for Inactive)
REMARK    1  A    between atoms: C_1  and  C_2
REMARK    2  A    between atoms: C_7  and  O_8
REMARK    3  A    between atoms: O_8  and  C_9
REMARK    4  A    between atoms: C_14  and  C_15
REMARK                            x       y       z     vdW  Elec       q    Type
REMARK                         _______ _______ _______ _____ _____    ______ ____
ROOT
ATOM      1  C   UNL     1      -0.187  -0.760   3.523  0.00  0.00    +0.140 A 
ATOM      2  C   UNL     1      -0.159  -2.146   3.474  0.00  0.00    +0.067 A 
ATOM      3  C   UNL     1      -0.116  -2.879   4.645  0.00  0.00    +0.044 A 
ATOM      4  C   UNL     1      -0.100  -2.237   5.874  0.00  0.00    +0.021 A 
ATOM      5  C   UNL     1      -0.127  -0.861   5.939  0.00  0.00    +0.016 A 
ATOM      6  C   UNL     1      -0.165  -0.108   4.764  0.00  0.00    +0.054 A 
ATOM      7 CL   UNL     1      -0.082  -4.614   4.577  0.00  0.00    -0.083 Cl
ENDROOT
BRANCH   6   8
ATOM      8  C   UNL     1      -0.188   1.366   4.827  0.00  0.00    +0.098 C 
ATOM      9  N   UNL     1      -1.142   1.988   5.520  0.00  0.00    -0.387 N 
ATOM     10  N   UNL     1       0.745   2.075   4.192  0.00  0.00    -0.344 N 
ATOM     11  H   UNL     1      -1.115   2.953   5.623  0.00  0.00    +0.157 HD
ATOM     12  H   UNL     1       1.439   1.623   3.688  0.00  0.00    +0.144 HD
ATOM     13  H   UNL     1       0.729   3.045   4.234  0.00  0.00    +0.144 HD
ATOM     14  H   UNL     1      -1.862   1.477   5.921  0.00  0.00    +0.157 HD
ENDBRANCH   6   8
BRANCH   1  15
ATOM     15  O   UNL     1      -0.230  -0.039   2.375  0.00  0.00    -0.455 OA
BRANCH  15  22
ATOM     16  C   UNL     1      -2.847  -0.758   1.594  0.00  0.00    +0.047 C 
ATOM     17  C   UNL     1      -1.632  -1.092   0.768  0.00  0.00    -0.007 A 
ATOM     18  C   UNL     1      -1.774  -1.772  -0.426  0.00  0.00    +0.022 A 
ATOM     19  C   UNL     1      -0.659  -2.079  -1.185  0.00  0.00    +0.018 A 
ATOM     20  C   UNL     1       0.600  -1.706  -0.750  0.00  0.00    +0.019 A 
ATOM     21  C   UNL     1       0.747  -1.027   0.443  0.00  0.00    +0.047 A 
ATOM     22  C   UNL     1      -0.371  -0.713   1.204  0.00  0.00    +0.131 A 
ATOM     23 BR   UNL     1      -0.857  -3.010  -2.819  0.00  0.00    -0.050 Br
ENDBRANCH  15  22
ENDBRANCH   1  15
TORSDOF 3
