REMARK  Name = ZINC63138114
REMARK  8 active torsions:
REMARK  status: ('A' for Active; 'I' for Inactive)
REMARK    1  A    between atoms: C_1  and  O_2
REMARK    2  A    between atoms: O_2  and  C_3
REMARK    3  A    between atoms: C_6  and  C_11
REMARK    4  A    between atoms: C_7  and  O_9
REMARK    5  A    between atoms: O_9  and  C_10
REMARK    6  A    between atoms: N_30  and  C_33
REMARK    7  A    between atoms: C_33  and  C_34
REMARK    8  A    between atoms: C_34  and  C_35
REMARK                            x       y       z     vdW  Elec       q    Type
REMARK                         _______ _______ _______ _____ _____    ______ ____
ROOT
ATOM      1  C   UNL     1      -4.989  -2.621   0.037  0.00  0.00    +0.137 C 
ATOM      2  C   UNL     1      -5.346  -2.990   1.476  0.00  0.00    +0.131 C 
ATOM      3  C   UNL     1      -5.784  -1.689   2.145  0.00  0.00    -0.034 C 
ATOM      4  C   UNL     1      -4.943  -1.473   3.148  0.00  0.00    -0.001 A 
ATOM      5  C   UNL     1      -4.877  -0.404   4.158  0.00  0.00    +0.010 A 
ATOM      6  C   UNL     1      -3.861  -0.491   5.057  0.00  0.00    +0.001 A 
ATOM      7  C   UNL     1      -2.917  -1.522   5.053  0.00  0.00    +0.002 A 
ATOM      8  C   UNL     1      -2.902  -2.546   4.163  0.00  0.00    +0.026 A 
ATOM      9  C   UNL     1      -3.923  -2.565   3.168  0.00  0.00    +0.043 A 
ATOM     10  N   UNL     1      -4.151  -3.435   2.205  0.00  0.00    -0.375 N 
ATOM     11  C   UNL     1      -6.952  -0.899   1.624  0.00  0.00    +0.065 C 
ATOM     12  C   UNL     1      -6.925  -0.880   0.117  0.00  0.00    +0.167 C 
ATOM     13  N   UNL     1      -5.986  -1.745  -0.561  0.00  0.00    -0.279 N 
ATOM     14  C   UNL     1      -6.021  -1.686  -1.934  0.00  0.00    +0.234 C 
ATOM     15  O   UNL     1      -5.331  -2.412  -2.618  0.00  0.00    -0.274 OA
ATOM     16  C   UNL     1      -6.961  -0.673  -2.551  0.00  0.00    +0.203 C 
ATOM     17  N   UNL     1      -6.833   0.596  -1.812  0.00  0.00    -0.291 N 
ATOM     18  C   UNL     1      -6.834   0.513  -0.453  0.00  0.00    +0.237 C 
ATOM     19  O   UNL     1      -6.768   1.497   0.252  0.00  0.00    -0.274 OA
ATOM     20  H   UNL     1      -3.628  -4.227   2.003  0.00  0.00    +0.160 HD
ENDROOT
BRANCH   1  24
ATOM     21  C   UNL     1      -1.200  -0.637   0.010  0.00  0.00    +0.124 A 
ATOM     22  C   UNL     1      -2.375   0.102   0.019  0.00  0.00    +0.046 A 
ATOM     23  C   UNL     1      -3.597  -0.541   0.028  0.00  0.00    +0.013 A 
ATOM     24  C   UNL     1      -3.654  -1.922   0.027  0.00  0.00    +0.017 A 
ATOM     25  C   UNL     1      -2.483  -2.666   0.018  0.00  0.00    +0.129 A 
ATOM     26  C   UNL     1      -1.255  -2.022   0.003  0.00  0.00    +0.091 A 
BRANCH  21  28
ATOM     27  C   UNL     1      -0.017   1.425   0.010  0.00  0.00    +0.277 C 
ATOM     28  O   UNL     1       0.002  -0.004   0.002  0.00  0.00    -0.495 OA
ENDBRANCH  21  28
BRANCH  25  29
ATOM     29  O   UNL     1      -2.539  -4.024   0.017  0.00  0.00    -0.495 OA
ATOM     30  C   UNL     1      -1.294  -4.725   0.007  0.00  0.00    +0.277 C 
ENDBRANCH  25  29
ENDBRANCH   1  24
BRANCH  17  31
ATOM     31  C   UNL     1      -6.710   1.881  -2.505  0.00  0.00    +0.112 C 
BRANCH  31  32
ATOM     32  C   UNL     1      -8.102   2.470  -2.739  0.00  0.00    +0.049 C 
BRANCH  32  33
ATOM     33  C   UNL     1      -7.975   3.791  -3.452  0.00  0.00    -0.072 C 
ATOM     34  C   UNL     1      -8.086   3.799  -4.741  0.00  0.00    -0.028 C 
ATOM     35  C   UNL     1      -7.973   5.032  -5.588  0.00  0.00    +0.027 C 
ATOM     36  C   UNL     1      -8.138   6.283  -4.722  0.00  0.00    +0.004 C 
ATOM     37  C   UNL     1      -7.213   6.156  -3.505  0.00  0.00    +0.005 C 
ATOM     38  C   UNL     1      -7.734   5.018  -2.622  0.00  0.00    +0.030 C 
ENDBRANCH  32  33
ENDBRANCH  31  32
ENDBRANCH  17  31
TORSDOF 6
