REMARK  Name = ZINC28052931
REMARK  8 active torsions:
REMARK  status: ('A' for Active; 'I' for Inactive)
REMARK    1  A    between atoms: C_1  and  C_2
REMARK    2  A    between atoms: C_10  and  C_12
REMARK    3  A    between atoms: C_15  and  O_18
REMARK    4  A    between atoms: C_22  and  C_25
REMARK    5  A    between atoms: C_27  and  O_33
REMARK    6  A    between atoms: C_30  and  O_31
REMARK    7  A    between atoms: O_31  and  C_32
REMARK    8  A    between atoms: O_33  and  C_34
REMARK                            x       y       z     vdW  Elec       q    Type
REMARK                         _______ _______ _______ _____ _____    ______ ____
ROOT
ATOM      1  C   UNL     1      -2.071   0.172  -3.159  0.00  0.00    +0.069 C 
ATOM      2  C   UNL     1      -3.156   1.018  -2.544  0.00  0.00    +0.087 A 
ATOM      3  C   UNL     1      -3.308   1.333  -1.196  0.00  0.00    +0.049 A 
ATOM      4  C   UNL     1      -4.434   2.115  -1.152  0.00  0.00    +0.226 A 
ATOM      5  O   UNL     1      -4.865   2.220  -2.404  0.00  0.00    -0.339 OA
ATOM      6  N   UNL     1      -4.147   1.604  -3.169  0.00  0.00    -0.081 NA
ATOM      7  N   UNL     1      -4.907   2.617   0.043  0.00  0.00    -0.286 N 
ATOM      8  C   UNL     1      -4.418   2.092   1.216  0.00  0.00    +0.019 C 
ATOM      9  C   UNL     1      -3.308   1.325   1.261  0.00  0.00    +0.024 C 
ATOM     10  C   UNL     1      -2.513   0.977   0.019  0.00  0.00    +0.091 C 
ATOM     11  C   UNL     1      -2.835   0.808   2.481  0.00  0.00    +0.162 C 
ATOM     12  O   UNL     1      -1.845   0.104   2.483  0.00  0.00    -0.292 OA
ATOM     13  C   UNL     1      -3.526   1.107   3.782  0.00  0.00    +0.088 C 
ATOM     14  C   UNL     1      -4.231   2.463   3.668  0.00  0.00    +0.036 C 
ATOM     15  C   UNL     1      -5.190   2.408   2.477  0.00  0.00    +0.060 C 
ATOM     16  H   UNL     1      -5.659   3.420   0.043  0.00  0.00    +0.155 HD
ENDROOT
BRANCH  10  17
ATOM     17  C   UNL     1      -1.220   1.750   0.017  0.00  0.00    -0.035 A 
ATOM     18  C   UNL     1      -0.013   1.076   0.008  0.00  0.00    +0.008 A 
ATOM     19  C   UNL     1       1.175   1.782   0.000  0.00  0.00    +0.046 A 
ATOM     20  C   UNL     1       1.155   3.169   0.008  0.00  0.00    +0.117 A 
ATOM     21  C   UNL     1      -0.057   3.844   0.023  0.00  0.00    +0.046 A 
ATOM     22  C   UNL     1      -1.242   3.133   0.031  0.00  0.00    +0.008 A 
BRANCH  20  23
ATOM     23  O   UNL     1       2.322   3.866   0.000  0.00  0.00    -0.507 OA
ATOM     24  H   UNL     1       2.305   4.966   0.006  0.00  0.00    +0.292 HD
ENDBRANCH  20  23
ENDBRANCH  10  17
BRANCH  14  25
ATOM     25  C   UNL     1      -5.005   2.741   4.931  0.00  0.00    +0.002 A 
ATOM     26  C   UNL     1      -5.993   1.867   5.342  0.00  0.00    +0.053 A 
ATOM     27  C   UNL     1      -6.705   2.123   6.504  0.00  0.00    +0.121 A 
ATOM     28  C   UNL     1      -6.425   3.256   7.254  0.00  0.00    +0.049 A 
ATOM     29  C   UNL     1      -5.437   4.129   6.843  0.00  0.00    +0.049 A 
ATOM     30  C   UNL     1      -4.722   3.871   5.683  0.00  0.00    +0.124 A 
BRANCH  30  31
ATOM     31  O   UNL     1      -3.745   4.728   5.281  0.00  0.00    -0.495 OA
ATOM     32  C   UNL     1      -3.507   5.871   6.104  0.00  0.00    +0.277 C 
ENDBRANCH  30  31
BRANCH  27  33
ATOM     33  O   UNL     1      -7.678   1.263   6.909  0.00  0.00    -0.495 OA
ATOM     34  C   UNL     1      -8.371   1.589   8.116  0.00  0.00    +0.277 C 
ENDBRANCH  27  33
ENDBRANCH  14  25
TORSDOF 5
