REMARK  Name = ZINC48135043
REMARK  12 active torsions:
REMARK  status: ('A' for Active; 'I' for Inactive)
REMARK    1  A    between atoms: C_1  and  C_2
REMARK    2  A    between atoms: C_5  and  N_8
REMARK    3  A    between atoms: N_8  and  C_9
REMARK    4  A    between atoms: C_9  and  C_10
REMARK    5  A    between atoms: C_9  and  C_11
REMARK    6  A    between atoms: C_9  and  C_12
REMARK    7  A    between atoms: C_18  and  C_21
REMARK    8  A    between atoms: C_21  and  N_22
REMARK    9  A    between atoms: C_24  and  C_27
REMARK   10  A    between atoms: C_27  and  C_28
REMARK   11  A    between atoms: C_27  and  C_29
REMARK   12  A    between atoms: C_27  and  N_30
REMARK                            x       y       z     vdW  Elec       q    Type
REMARK                         _______ _______ _______ _____ _____    ______ ____
ROOT
ATOM      1  C   UNL     1       0.222  -6.285   0.947  0.00  0.00    +0.238 C 
ATOM      2  O   UNL     1       0.789  -7.055   1.693  0.00  0.00    -0.273 OA
ATOM      3  N   UNL     1      -0.272  -6.724  -0.227  0.00  0.00    -0.299 N 
ATOM      4  C   UNL     1      -0.818  -5.779  -1.210  0.00  0.00    +0.108 C 
ATOM      5  C   UNL     1      -2.236  -6.222  -1.586  0.00  0.00    +0.019 C 
ATOM      6  C   UNL     1      -2.201  -7.676  -2.064  0.00  0.00    +0.008 C 
ATOM      7  C   UNL     1      -1.698  -8.575  -0.932  0.00  0.00    +0.028 C 
ATOM      8  C   UNL     1      -0.269  -8.157  -0.551  0.00  0.00    +0.113 C 
ENDROOT
BRANCH   1   9
ATOM      9  C   UNL     1       0.071  -4.836   1.334  0.00  0.00    +0.103 C 
ATOM     10  C   UNL     1       0.951  -3.972   0.427  0.00  0.00    +0.041 C 
ATOM     11  C   UNL     1       0.501  -4.649   2.790  0.00  0.00    +0.041 C 
BRANCH   9  12
ATOM     12  N   UNL     1      -1.329  -4.434   1.183  0.00  0.00    -0.331 N 
ATOM     13  H   UNL     1      -1.562  -3.695   0.598  0.00  0.00    +0.147 HD
BRANCH  12  18
ATOM     14  C   UNL     1      -5.394  -7.194   4.014  0.00  0.00    +0.044 C 
ATOM     15  C   UNL     1      -4.314  -6.460   3.262  0.00  0.00    -0.050 A 
ATOM     16  C   UNL     1      -4.626  -5.323   2.540  0.00  0.00    +0.005 A 
ATOM     17  C   UNL     1      -3.639  -4.648   1.850  0.00  0.00    +0.023 A 
ATOM     18  C   UNL     1      -2.330  -5.114   1.880  0.00  0.00    +0.028 A 
ATOM     19  C   UNL     1      -2.020  -6.256   2.606  0.00  0.00    +0.023 A 
ATOM     20  C   UNL     1      -3.011  -6.923   3.299  0.00  0.00    +0.005 A 
ENDBRANCH  12  18
ENDBRANCH   9  12
ENDBRANCH   1   9
BRANCH   7  21
ATOM     21  C   UNL     1      -1.695 -10.031  -1.400  0.00  0.00    +0.150 C 
BRANCH  21  22
ATOM     22  N   UNL     1      -3.071 -10.464  -1.656  0.00  0.00    -0.251 N 
ATOM     23  C   UNL     1      -3.532 -10.999  -2.810  0.00  0.00    +0.132 A 
ATOM     24  C   UNL     1      -4.847 -11.251  -2.610  0.00  0.00    +0.071 A 
ATOM     25  N   UNL     1      -5.122 -10.863  -1.360  0.00  0.00    -0.136 NA
ATOM     26  N   UNL     1      -4.048 -10.407  -0.820  0.00  0.00    -0.065 NA
BRANCH  24  27
ATOM     27  C   UNL     1      -5.811 -11.850  -3.601  0.00  0.00    -0.030 C 
ATOM     28  C   UNL     1      -7.197 -11.959  -2.962  0.00  0.00    -0.004 C 
ATOM     29  C   UNL     1      -5.890 -10.956  -4.840  0.00  0.00    -0.004 C 
BRANCH  27  30
ATOM     30  N   UNL     1      -5.345 -13.188  -3.991  0.00  0.00    +0.385 N 
ATOM     31  H   UNL     1      -5.293 -13.777  -3.174  0.00  0.00    -0.089 HD
ATOM     32  H   UNL     1      -5.991 -13.589  -4.654  0.00  0.00    -0.089 HD
ATOM     33  H   UNL     1      -4.431 -13.116  -4.412  0.00  0.00    -0.089 HD
ENDBRANCH  27  30
ENDBRANCH  24  27
ENDBRANCH  21  22
ENDBRANCH   7  21
TORSDOF 7
