REMARK  Name = ZINC14731588
REMARK  5 active torsions:
REMARK  status: ('A' for Active; 'I' for Inactive)
REMARK    1  A    between atoms: C_1  and  C_2
REMARK    2  A    between atoms: C_2  and  C_3
REMARK    3  A    between atoms: C_3  and  N_4
REMARK    4  A    between atoms: C_7  and  C_9
REMARK    5  A    between atoms: C_18  and  N_66
REMARK                            x       y       z     vdW  Elec       q    Type
REMARK                         _______ _______ _______ _____ _____    ______ ____
ROOT
ATOM      1  N   UNL     1      -3.350  -1.204   0.262  0.00  0.00    -0.267 N 
ATOM      2  C   UNL     1      -2.729  -2.393   0.312  0.00  0.00    +0.043 A 
ATOM      3  C   UNL     1      -1.397  -2.155   0.228  0.00  0.00    +0.004 A 
ATOM      4  C   UNL     1      -1.261  -0.760   0.121  0.00  0.00    +0.151 A 
ATOM      5  N   UNL     1      -2.483  -0.257   0.155  0.00  0.00    -0.166 NA
ATOM      6  C   UNL     1      -0.336  -3.219   0.251  0.00  0.00    +0.024 C 
ATOM      7  C   UNL     1      -0.963  -4.513   0.787  0.00  0.00    -0.063 C 
ATOM      8  C   UNL     1      -2.266  -4.799   0.035  0.00  0.00    -0.009 C 
ATOM      9  C   UNL     1      -3.330  -3.770   0.437  0.00  0.00    +0.054 C 
ENDROOT
BRANCH   7  23
ATOM     10  C   UNL     1      -0.545  -6.864   1.195  0.00  0.00    -0.073 C 
ATOM     11  C   UNL     1       0.235  -8.068   0.649  0.00  0.00    +0.019 C 
ATOM     12  C   UNL     1       1.707  -7.757   0.758  0.00  0.00    -0.023 A 
ATOM     13  C   UNL     1       2.841  -8.650   0.674  0.00  0.00    +0.003 A 
ATOM     14  C   UNL     1       2.952 -10.030   0.474  0.00  0.00    +0.010 A 
ATOM     15  C   UNL     1       4.221 -10.554   0.451  0.00  0.00    +0.001 A 
ATOM     16  C   UNL     1       5.347  -9.764   0.618  0.00  0.00    +0.002 A 
ATOM     17  C   UNL     1       5.266  -8.397   0.819  0.00  0.00    +0.026 A 
ATOM     18  C   UNL     1       3.991  -7.837   0.846  0.00  0.00    +0.047 A 
ATOM     19  N   UNL     1       3.560  -6.553   1.020  0.00  0.00    -0.359 N 
ATOM     20  H   UNL     1       4.135  -5.785   1.161  0.00  0.00    +0.166 HD
ATOM     21  C   UNL     1       2.193  -6.512   0.965  0.00  0.00    +0.003 A 
ATOM     22  C   UNL     1       1.309  -5.296   1.105  0.00  0.00    -0.024 C 
ATOM     23  N   UNL     1      -0.027  -5.633   0.557  0.00  0.00    +0.386 N 
ATOM     24  H   UNL     1       0.059  -5.794  -0.454  0.00  0.00    -0.081 HD
ENDBRANCH   7  23
BRANCH   4  25
ATOM     25  C   UNL     1       0.002  -0.004   0.002  0.00  0.00    +0.267 C 
ATOM     26  O   UNL     1       1.056  -0.597  -0.119  0.00  0.00    -0.268 OA
ATOM     27  N   UNL     1      -0.014   1.343   0.027  0.00  0.00    -0.292 N 
ATOM     28  C   UNL     1      -1.285   2.085   0.068  0.00  0.00    +0.136 C 
ATOM     29  C   UNL     1      -1.207   3.107   1.214  0.00  0.00    +0.179 C 
ATOM     30  O   UNL     1      -0.020   3.889   1.064  0.00  0.00    -0.377 OA
ATOM     31  C   UNL     1       1.192   3.137   1.152  0.00  0.00    +0.179 C 
ATOM     32  C   UNL     1       1.237   2.117   0.009  0.00  0.00    +0.136 C 
ENDBRANCH   4  25
BRANCH   1  33
ATOM     33  C   UNL     1      -4.801  -1.010   0.324  0.00  0.00    +0.143 C 
BRANCH  33  35
ATOM     34  C   UNL     1      -6.746  -0.640   1.848  0.00  0.00    +0.005 C 
ATOM     35  C   UNL     1      -5.231  -0.843   1.783  0.00  0.00    +0.020 C 
ENDBRANCH  33  35
ENDBRANCH   1  33
TORSDOF 4
