REMARK  Name = ZINC17191847
REMARK  10 active torsions:
REMARK  status: ('A' for Active; 'I' for Inactive)
REMARK    1  A    between atoms: C_1  and  C_2
REMARK    2  A    between atoms: C_7  and  C_8
REMARK    3  A    between atoms: C_8  and  C_10
REMARK    4  A    between atoms: C_8  and  C_12
REMARK    5  A    between atoms: C_12  and  C_21
REMARK    6  A    between atoms: N_13  and  N_14
REMARK    7  A    between atoms: C_15  and  C_17
REMARK    8  A    between atoms: N_19  and  N_20
REMARK    9  A    between atoms: N_23  and  C_24
REMARK   10  A    between atoms: C_28  and  C_30
REMARK                            x       y       z     vdW  Elec       q    Type
REMARK                         _______ _______ _______ _____ _____    ______ ____
ROOT
ATOM      1  C   UNL     1       1.582   7.427  -0.261  0.00  0.00    +0.142 C 
ATOM      2  N   UNL     1       0.349   7.817  -0.115  0.00  0.00    -0.178 NA
ENDROOT
BRANCH   2   3
ATOM      3  N   UNL     1      -0.684   6.872  -0.069  0.00  0.00    -0.199 N 
ATOM      4  C   UNL     1      -1.969   7.278  -0.080  0.00  0.00    +0.319 C 
ATOM      5  O   UNL     1      -2.232   8.461  -0.130  0.00  0.00    -0.263 OA
ATOM      6  H   UNL     1      -0.446   5.799  -0.023  0.00  0.00    +0.178 HD
BRANCH   4   7
ATOM      7  C   UNL     1      -3.071   6.271  -0.030  0.00  0.00    +0.314 C 
ATOM      8  O   UNL     1      -2.808   5.087   0.020  0.00  0.00    -0.264 OA
ATOM      9  N   UNL     1      -4.356   6.676  -0.041  0.00  0.00    -0.246 N 
ATOM     10  H   UNL     1      -4.593   7.749  -0.086  0.00  0.00    +0.169 HD
BRANCH   9  11
ATOM     11  N   UNL     1      -5.363   5.755   0.005  0.00  0.00    -0.254 NA
ATOM     12  H   UNL     1      -6.334   6.272  -0.012  0.00  0.00    +0.140 HD
ATOM     13  H   UNL     1      -5.288   5.086  -0.865  0.00  0.00    +0.140 HD
ENDBRANCH   9  11
ENDBRANCH   4   7
ENDBRANCH   2   3
BRANCH   1  14
ATOM     14  C   UNL     1       1.907   5.997  -0.225  0.00  0.00    +0.266 C 
ATOM     15  O   UNL     1       1.016   5.169  -0.243  0.00  0.00    -0.268 OA
ATOM     16  N   UNL     1       3.194   5.600  -0.171  0.00  0.00    -0.280 N 
ATOM     17  H   UNL     1       3.994   6.343  -0.037  0.00  0.00    +0.155 HD
BRANCH  16  18
ATOM     18  C   UNL     1       3.513   4.243  -0.287  0.00  0.00    +0.034 A 
ATOM     19  C   UNL     1       2.589   3.277   0.089  0.00  0.00    +0.023 A 
ATOM     20  C   UNL     1       2.906   1.938  -0.027  0.00  0.00    +0.002 A 
ATOM     21  C   UNL     1       4.143   1.559  -0.516  0.00  0.00    +0.012 A 
ATOM     22  C   UNL     1       5.067   2.518  -0.886  0.00  0.00    +0.057 A 
ATOM     23  C   UNL     1       4.754   3.859  -0.778  0.00  0.00    +0.035 A 
BRANCH  22  24
ATOM     24  C   UNL     1       6.416   2.101  -1.413  0.00  0.00    +0.417 C 
ATOM     25  F   UNL     1       6.496   0.704  -1.435  0.00  0.00    -0.166 F 
ATOM     26  F   UNL     1       6.584   2.598  -2.710  0.00  0.00    -0.166 F 
ATOM     27  F   UNL     1       7.420   2.613  -0.584  0.00  0.00    -0.166 F 
ENDBRANCH  22  24
ENDBRANCH  16  18
ENDBRANCH   1  14
BRANCH   1  28
ATOM     28  C   UNL     1       2.675   8.444  -0.466  0.00  0.00    +0.177 C 
BRANCH  28  35
ATOM     29  C   UNL     1       3.502  10.159   1.707  0.00  0.00    +0.044 C 
ATOM     30  C   UNL     1       2.496  10.652   0.699  0.00  0.00    -0.046 A 
ATOM     31  C   UNL     1       1.972  11.926   0.811  0.00  0.00    +0.003 A 
ATOM     32  C   UNL     1       1.046  12.376  -0.111  0.00  0.00    +0.000 A 
ATOM     33  C   UNL     1       0.646  11.554  -1.147  0.00  0.00    +0.000 A 
ATOM     34  C   UNL     1       1.173  10.281  -1.262  0.00  0.00    +0.005 A 
ATOM     35  C   UNL     1       2.100   9.831  -0.341  0.00  0.00    -0.022 A 
ENDBRANCH  28  35
BRANCH  28  36
ATOM     36  C   UNL     1       3.258   8.273  -1.807  0.00  0.00    +0.077 C 
ATOM     37  N   UNL     1       3.708   8.142  -2.842  0.00  0.00    -0.196 NA
ENDBRANCH  28  36
ENDBRANCH   1  28
TORSDOF 9
