REMARK  Name = ZINC50586750
REMARK  7 active torsions:
REMARK  status: ('A' for Active; 'I' for Inactive)
REMARK    1  A    between atoms: C_1  and  C_2
REMARK    2  A    between atoms: C_4  and  C_14
REMARK    3  A    between atoms: N_5  and  C_7
REMARK    4  A    between atoms: C_7  and  C_8
REMARK    5  A    between atoms: C_8  and  C_10
REMARK    6  A    between atoms: C_8  and  C_11
REMARK    7  A    between atoms: C_11  and  N_13
REMARK                            x       y       z     vdW  Elec       q    Type
REMARK                         _______ _______ _______ _____ _____    ______ ____
ROOT
ATOM      1  C   UNL     1      -0.018   1.503   0.010  0.00  0.00    +0.069 C 
ATOM      2  C   UNL     1       0.002  -0.004   0.002  0.00  0.00    +0.078 A 
ATOM      3  C   UNL     1       0.008  -0.818  -1.136  0.00  0.00    +0.084 A 
ATOM      4  C   UNL     1       0.028  -2.108  -0.725  0.00  0.00    +0.055 A 
ATOM      5  N   UNL     1       0.034  -2.109   0.625  0.00  0.00    -0.266 N 
ATOM      6  N   UNL     1       0.023  -0.777   1.058  0.00  0.00    -0.175 NA
ATOM      7  C   UNL     1       0.041  -3.324  -1.615  0.00  0.00    +0.067 C 
ATOM      8 CL   UNL     1      -0.008  -0.271  -2.784  0.00  0.00    -0.080 Cl
ENDROOT
BRANCH   5   9
ATOM      9  C   UNL     1       0.055  -3.295   1.486  0.00  0.00    +0.153 C 
BRANCH   9  10
ATOM     10  C   UNL     1       1.504  -3.687   1.779  0.00  0.00    +0.059 C 
ATOM     11  C   UNL     1       2.177  -2.582   2.596  0.00  0.00    +0.016 C 
BRANCH  10  12
ATOM     12  C   UNL     1       1.528  -4.975   2.561  0.00  0.00    +0.051 C 
ATOM     13  S   UNL     1       0.156  -5.700   2.949  0.00  0.00    -0.040 S 
BRANCH  12  14
ATOM     14  N   UNL     1       2.705  -5.516   2.933  0.00  0.00    -0.355 N 
ATOM     15  H   UNL     1       3.537  -5.076   2.698  0.00  0.00    +0.143 HD
ATOM     16  H   UNL     1       2.720  -6.345   3.437  0.00  0.00    +0.143 HD
ENDBRANCH  12  14
ENDBRANCH  10  12
ENDBRANCH   9  10
ENDBRANCH   5   9
TORSDOF 4
