REMARK  Name = ZINC38705360
REMARK  13 active torsions:
REMARK  status: ('A' for Active; 'I' for Inactive)
REMARK    1  A    between atoms: C_1  and  C_2
REMARK    2  A    between atoms: C_2  and  C_3
REMARK    3  A    between atoms: C_3  and  C_4
REMARK    4  A    between atoms: C_4  and  C_5
REMARK    5  A    between atoms: C_5  and  O_6
REMARK    6  A    between atoms: O_6  and  C_7
REMARK    7  A    between atoms: C_10  and  C_13
REMARK    8  A    between atoms: C_16  and  C_32
REMARK    9  A    between atoms: N_23  and  C_24
REMARK   10  A    between atoms: C_24  and  C_25
REMARK   11  A    between atoms: C_33  and  C_40
REMARK   12  A    between atoms: C_35  and  C_39
REMARK   13  A    between atoms: C_37  and  O_38
REMARK                            x       y       z     vdW  Elec       q    Type
REMARK                         _______ _______ _______ _____ _____    ______ ____
ROOT
ATOM      1  C   UNL     1       3.996  -6.444  -6.939  0.00  0.00    +0.142 C 
ATOM      2  C   UNL     1       2.951  -7.031  -7.848  0.00  0.00    +0.035 A 
ATOM      3  C   UNL     1       1.845  -6.804  -8.674  0.00  0.00    +0.102 A 
ATOM      4  N   UNL     1       1.466  -7.971  -9.156  0.00  0.00    -0.173 NA
ATOM      5  N   UNL     1       2.224  -8.912  -8.716  0.00  0.00    -0.272 N 
ATOM      6  H   UNL     1       2.131  -9.852  -8.939  0.00  0.00    +0.189 HD
ATOM      7  C   UNL     1       3.178  -8.393  -7.889  0.00  0.00    +0.126 A 
ATOM      8  C   UNL     1       4.333  -8.699  -7.037  0.00  0.00    +0.266 C 
ATOM      9  O   UNL     1       4.789  -9.812  -6.859  0.00  0.00    -0.268 OA
ATOM     10  N   UNL     1       4.817  -7.572  -6.480  0.00  0.00    -0.281 N 
ENDROOT
BRANCH   3  11
ATOM     11  C   UNL     1       1.213  -5.491  -8.956  0.00  0.00    +0.047 A 
ATOM     12  C   UNL     1      -0.166  -5.337  -8.834  0.00  0.00    -0.037 A 
ATOM     13  C   UNL     1      -0.748  -4.114  -9.097  0.00  0.00    +0.007 A 
ATOM     14  C   UNL     1       0.033  -3.038  -9.482  0.00  0.00    -0.047 A 
ATOM     15  C   UNL     1       1.402  -3.180  -9.606  0.00  0.00    +0.049 A 
ATOM     16  C   UNL     1       2.000  -4.401  -9.339  0.00  0.00    +0.127 A 
ATOM     17  C   UNL     1      -0.613  -1.707  -9.767  0.00  0.00    +0.044 C 
ATOM     18  C   UNL     1      -1.020  -6.506  -8.416  0.00  0.00    +0.044 C 
BRANCH  16  19
ATOM     19  O   UNL     1       3.347  -4.540  -9.454  0.00  0.00    -0.506 OA
ATOM     20  H   UNL     1       3.647  -4.734 -10.353  0.00  0.00    +0.292 HD
ENDBRANCH  16  19
ENDBRANCH   3  11
BRANCH   1  24
ATOM     21  C   UNL     1       2.135  -4.527  -3.603  0.00  0.00    +0.121 A 
ATOM     22  C   UNL     1       2.830  -3.774  -4.539  0.00  0.00    +0.046 A 
ATOM     23  C   UNL     1       3.431  -4.396  -5.616  0.00  0.00    +0.009 A 
ATOM     24  C   UNL     1       3.340  -5.768  -5.762  0.00  0.00    -0.022 A 
ATOM     25  C   UNL     1       2.648  -6.521  -4.832  0.00  0.00    +0.009 A 
ATOM     26  C   UNL     1       2.050  -5.904  -3.749  0.00  0.00    +0.046 A 
BRANCH  21  27
ATOM     27  O   UNL     1       1.544  -3.917  -2.543  0.00  0.00    -0.492 OA
BRANCH  27  28
ATOM     28  C   UNL     1       1.672  -2.496  -2.457  0.00  0.00    +0.229 C 
BRANCH  28  29
ATOM     29  C   UNL     1       0.948  -1.994  -1.206  0.00  0.00    +0.041 C 
BRANCH  29  30
ATOM     30  C   UNL     1       1.085  -0.473  -1.114  0.00  0.00    +0.003 C 
BRANCH  30  32
ATOM     31  C   UNL     1       0.498   1.551   0.228  0.00  0.00    +0.004 C 
ATOM     32  C   UNL     1       0.360   0.030   0.136  0.00  0.00    -0.003 C 
ENDBRANCH  30  32
ENDBRANCH  29  30
ENDBRANCH  28  29
ENDBRANCH  27  28
ENDBRANCH  21  27
ENDBRANCH   1  24
BRANCH  10  33
ATOM     33  C   UNL     1       5.964  -7.486  -5.573  0.00  0.00    +0.144 C 
BRANCH  33  34
ATOM     34  C   UNL     1       5.491  -7.635  -4.150  0.00  0.00    -0.030 A 
ATOM     35  C   UNL     1       5.121  -6.517  -3.425  0.00  0.00    +0.008 A 
ATOM     36  C   UNL     1       4.686  -6.652  -2.120  0.00  0.00    +0.038 A 
ATOM     37  C   UNL     1       4.623  -7.907  -1.538  0.00  0.00    +0.123 A 
ATOM     38  C   UNL     1       4.994  -9.026  -2.265  0.00  0.00    +0.038 A 
ATOM     39  C   UNL     1       5.423  -8.889  -3.572  0.00  0.00    +0.008 A 
ATOM     40  F   UNL     1       4.199  -8.040  -0.262  0.00  0.00    -0.205 F 
ENDBRANCH  33  34
ENDBRANCH  10  33
TORSDOF 10
