REMARK  Name = ZINC12711256
REMARK  11 active torsions:
REMARK  status: ('A' for Active; 'I' for Inactive)
REMARK    1  A    between atoms: C_1  and  C_2
REMARK    2  A    between atoms: C_5  and  N_9
REMARK    3  A    between atoms: C_6  and  C_8
REMARK    4  A    between atoms: N_9  and  C_10
REMARK    5  A    between atoms: C_10  and  C_12
REMARK    6  A    between atoms: C_10  and  C_17
REMARK    7  A    between atoms: N_19  and  C_20
REMARK    8  A    between atoms: C_20  and  C_21
REMARK    9  A    between atoms: C_27  and  C_29
REMARK   10  A    between atoms: C_30  and  N_37
REMARK   11  A    between atoms: C_31  and  C_34
REMARK                            x       y       z     vdW  Elec       q    Type
REMARK                         _______ _______ _______ _____ _____    ______ ____
ROOT
ATOM      1  N   UNL     1      -1.161   1.420   0.296  0.00  0.00    -0.250 N 
ATOM      2  C   UNL     1      -0.171   0.506   0.335  0.00  0.00    +0.262 C 
ATOM      3  O   UNL     1      -0.386  -0.639  -0.017  0.00  0.00    -0.269 OA
ENDROOT
BRANCH   1   8
ATOM      4  C   UNL     1      -0.163   6.757   1.938  0.00  0.00    +0.044 C 
ATOM      5  C   UNL     1      -0.428   5.339   1.502  0.00  0.00    -0.050 A 
ATOM      6  C   UNL     1      -0.302   4.992   0.169  0.00  0.00    +0.005 A 
ATOM      7  C   UNL     1      -0.544   3.694  -0.234  0.00  0.00    +0.024 A 
ATOM      8  C   UNL     1      -0.914   2.736   0.701  0.00  0.00    +0.041 A 
ATOM      9  C   UNL     1      -1.045   3.088   2.038  0.00  0.00    -0.029 A 
ATOM     10  C   UNL     1      -0.797   4.388   2.435  0.00  0.00    +0.008 A 
ATOM     11  C   UNL     1      -1.452   2.054   3.055  0.00  0.00    +0.045 C 
ENDBRANCH   1   8
BRANCH   2  12
ATOM     12  C   UNL     1       1.164   0.892   0.796  0.00  0.00    +0.116 A 
ATOM     13  C   UNL     1       2.320   0.117   0.909  0.00  0.00    +0.076 A 
ATOM     14  C   UNL     1       3.407   0.847   1.390  0.00  0.00    +0.155 A 
ATOM     15  N   UNL     1       3.252   2.121   1.675  0.00  0.00    -0.203 NA
ATOM     16  S   UNL     1       1.750   2.479   1.353  0.00  0.00    +0.019 S 
BRANCH  14  17
ATOM     17  C   UNL     1       4.717   0.196   1.576  0.00  0.00    +0.262 C 
ATOM     18  O   UNL     1       4.854  -0.982   1.311  0.00  0.00    -0.269 OA
ATOM     19  N   UNL     1       5.763   0.908   2.041  0.00  0.00    -0.324 N 
ATOM     20  H   UNL     1       5.654   1.848   2.253  0.00  0.00    +0.145 HD
ATOM     21  H   UNL     1       6.625   0.480   2.164  0.00  0.00    +0.145 HD
ENDBRANCH  14  17
BRANCH  13  22
ATOM     22  N   UNL     1       2.380  -1.230   0.580  0.00  0.00    -0.355 N 
ATOM     23  H   UNL     1       1.589  -1.685   0.249  0.00  0.00    +0.142 HD
ATOM     24  H   UNL     1       3.213  -1.717   0.680  0.00  0.00    +0.142 HD
ENDBRANCH  13  22
ENDBRANCH   2  12
BRANCH   1  25
ATOM     25  C   UNL     1      -2.495   1.035  -0.170  0.00  0.00    +0.204 C 
BRANCH  25  26
ATOM     26  C   UNL     1      -3.517   1.397   0.876  0.00  0.00    +0.019 A 
ATOM     27  C   UNL     1      -4.417   0.600   1.503  0.00  0.00    +0.013 A 
ATOM     28  C   UNL     1      -5.264   1.156   2.443  0.00  0.00    +0.008 A 
ATOM     29  C   UNL     1      -5.177   2.483   2.703  0.00  0.00    +0.045 A 
ATOM     30  S   UNL     1      -3.862   2.989   1.607  0.00  0.00    -0.099 S 
ENDBRANCH  25  26
BRANCH  25  31
ATOM     31  C   UNL     1      -2.809   1.763  -1.452  0.00  0.00    +0.239 C 
ATOM     32  O   UNL     1      -1.998   2.528  -1.929  0.00  0.00    -0.273 OA
ATOM     33  N   UNL     1      -3.991   1.563  -2.068  0.00  0.00    -0.311 N 
ATOM     34  H   UNL     1      -4.640   0.952  -1.687  0.00  0.00    +0.149 HD
BRANCH  33  35
ATOM     35  C   UNL     1      -4.296   2.271  -3.314  0.00  0.00    +0.135 C 
BRANCH  35  36
ATOM     36  C   UNL     1      -5.689   1.869  -3.801  0.00  0.00    +0.135 C 
ATOM     37  C   UNL     1      -6.020   2.608  -5.112  0.00  0.00    +0.035 C 
ATOM     38  C   UNL     1      -6.287   1.474  -6.131  0.00  0.00    +0.031 C 
ATOM     39  C   UNL     1      -6.614   0.276  -5.204  0.00  0.00    +0.160 C 
ATOM     40  O   UNL     1      -5.720   0.460  -4.086  0.00  0.00    -0.375 OA
ENDBRANCH  35  36
ENDBRANCH  33  35
ENDBRANCH  25  31
ENDBRANCH   1  25
TORSDOF 9
