REMARK  Name = ZINC20922646
REMARK  9 active torsions:
REMARK  status: ('A' for Active; 'I' for Inactive)
REMARK    1  A    between atoms: C_4  and  N_7
REMARK    2  A    between atoms: N_7  and  S_8
REMARK    3  A    between atoms: S_8  and  C_11
REMARK    4  A    between atoms: C_14  and  N_17
REMARK    5  A    between atoms: C_18  and  C_20
REMARK    6  A    between atoms: C_20  and  S_21
REMARK    7  A    between atoms: S_21  and  C_22
REMARK    8  A    between atoms: N_26  and  N_27
REMARK    9  A    between atoms: N_28  and  N_29
REMARK                            x       y       z     vdW  Elec       q    Type
REMARK                         _______ _______ _______ _____ _____    ______ ____
ROOT
ATOM      1  N   UNL     1      -1.622  -5.110  -0.458  0.00  0.00    -0.285 N 
ATOM      2  C   UNL     1      -0.501  -5.416  -1.141  0.00  0.00    +0.227 C 
ATOM      3  O   UNL     1      -0.393  -6.499  -1.675  0.00  0.00    -0.275 OA
ATOM      4  H   UNL     1      -1.689  -4.159   0.091  0.00  0.00    +0.155 HD
ENDROOT
BRANCH   1   8
ATOM      5  C   UNL     1      -4.832  -7.765  -0.426  0.00  0.00    +0.109 A 
ATOM      6  C   UNL     1      -3.537  -8.249  -0.435  0.00  0.00    +0.030 A 
ATOM      7  C   UNL     1      -2.470  -7.371  -0.446  0.00  0.00    +0.025 A 
ATOM      8  C   UNL     1      -2.700  -6.002  -0.447  0.00  0.00    +0.034 A 
ATOM      9  C   UNL     1      -4.002  -5.519  -0.432  0.00  0.00    +0.025 A 
ATOM     10  C   UNL     1      -5.064  -6.402  -0.427  0.00  0.00    +0.030 A 
BRANCH   5  11
ATOM     11  S   UNL     1      -6.190  -8.888  -0.413  0.00  0.00    +0.072 S 
ATOM     12  O   UNL     1      -7.270  -8.227  -1.059  0.00  0.00    -0.150 OA
ATOM     13  O   UNL     1      -5.686 -10.139  -0.859  0.00  0.00    -0.150 OA
BRANCH  11  14
ATOM     14  N   UNL     1      -6.639  -9.094   1.168  0.00  0.00    -0.216 N 
ATOM     15  H   UNL     1      -6.558 -10.086   1.638  0.00  0.00    +0.174 HD
BRANCH  14  19
ATOM     16  C   UNL     1      -8.077  -5.862   3.364  0.00  0.00    +0.000 A 
ATOM     17  C   UNL     1      -8.880  -6.461   2.411  0.00  0.00    +0.002 A 
ATOM     18  C   UNL     1      -8.407  -7.533   1.681  0.00  0.00    +0.024 A 
ATOM     19  C   UNL     1      -7.121  -8.010   1.904  0.00  0.00    +0.048 A 
ATOM     20  C   UNL     1      -6.318  -7.409   2.866  0.00  0.00    +0.024 A 
ATOM     21  C   UNL     1      -6.797  -6.334   3.589  0.00  0.00    +0.002 A 
ENDBRANCH  14  19
ENDBRANCH  11  14
ENDBRANCH   5  11
ENDBRANCH   1   8
BRANCH   2  22
ATOM     22  C   UNL     1       0.619  -4.412  -1.240  0.00  0.00    +0.173 C 
BRANCH  22  23
ATOM     23  S   UNL     1       1.976  -5.115  -2.216  0.00  0.00    -0.075 S 
BRANCH  23  24
ATOM     24  C   UNL     1       3.190  -3.838  -2.240  0.00  0.00    +0.210 A 
ATOM     25  N   UNL     1       3.085  -2.664  -1.666  0.00  0.00    -0.119 NA
ATOM     26  N   UNL     1       4.263  -1.950  -1.923  0.00  0.00    -0.110 NA
ATOM     27  C   UNL     1       5.048  -2.711  -2.645  0.00  0.00    +0.248 A 
ATOM     28  N   UNL     1       4.407  -3.897  -2.860  0.00  0.00    -0.211 N 
ATOM     29  N   UNL     1       6.312  -2.370  -3.110  0.00  0.00    -0.251 N 
ATOM     30  H   UNL     1       6.889  -3.088  -3.710  0.00  0.00    +0.169 HD
BRANCH  28  31
ATOM     31  N   UNL     1       4.897  -4.959  -3.566  0.00  0.00    -0.294 N 
ATOM     32  H   UNL     1       5.895  -4.899  -4.026  0.00  0.00    +0.163 HD
ATOM     33  H   UNL     1       4.295  -5.873  -3.673  0.00  0.00    +0.163 HD
ENDBRANCH  28  31
BRANCH  29  34
ATOM     34  N   UNL     1       6.839  -1.143  -2.820  0.00  0.00    -0.254 NA
ATOM     35  H   UNL     1       7.839  -1.058  -3.270  0.00  0.00    +0.140 HD
ATOM     36  H   UNL     1       6.185  -0.358  -3.229  0.00  0.00    +0.140 HD
ENDBRANCH  29  34
ENDBRANCH  23  24
ENDBRANCH  22  23
ENDBRANCH   2  22
TORSDOF 9
