REMARK  Name = ZINC19597327
REMARK  10 active torsions:
REMARK  status: ('A' for Active; 'I' for Inactive)
REMARK    1  A    between atoms: C_1  and  C_2
REMARK    2  A    between atoms: C_2  and  C_3
REMARK    3  A    between atoms: C_2  and  O_4
REMARK    4  A    between atoms: O_4  and  C_5
REMARK    5  A    between atoms: C_5  and  C_7
REMARK    6  A    between atoms: C_7  and  C_35
REMARK    7  A    between atoms: C_12  and  C_32
REMARK    8  A    between atoms: C_15  and  C_29
REMARK    9  A    between atoms: C_17  and  C_19
REMARK   10  A    between atoms: C_24  and  C_25
REMARK                            x       y       z     vdW  Elec       q    Type
REMARK                         _______ _______ _______ _____ _____    ______ ____
ROOT
ATOM      1  C   UNL     1      -1.386   3.172  -1.118  0.00  0.00    +0.184 C 
ATOM      2  C   UNL     1      -0.600   4.344  -0.506  0.00  0.00    +0.128 C 
ATOM      3  C   UNL     1      -1.162   5.669  -0.957  0.00  0.00    -0.002 C 
ATOM      4  C   UNL     1      -1.159   6.691  -0.105  0.00  0.00    +0.012 C 
ATOM      5  C   UNL     1      -0.613   6.549   1.261  0.00  0.00    +0.050 C 
ATOM      6  C   UNL     1      -0.459   5.289   1.792  0.00  0.00    +0.084 C 
ATOM      7  N   UNL     1      -0.802   4.262   0.955  0.00  0.00    -0.314 N 
ATOM      8  C   UNL     1      -1.462   2.998   1.286  0.00  0.00    +0.169 C 
ATOM      9  C   UNL     1      -1.332   2.114   0.020  0.00  0.00    +0.082 C 
ENDROOT
BRANCH   9  10
ATOM     10  C   UNL     1      -0.017   1.378   0.010  0.00  0.00    -0.028 A 
ATOM     11  C   UNL     1       1.164   2.070   0.204  0.00  0.00    +0.004 A 
ATOM     12  C   UNL     1       2.371   1.397   0.187  0.00  0.00    +0.000 A 
ATOM     13  C   UNL     1       2.397   0.030  -0.021  0.00  0.00    +0.001 A 
ATOM     14  C   UNL     1       1.216  -0.662  -0.215  0.00  0.00    +0.012 A 
ATOM     15  C   UNL     1       0.009   0.012  -0.200  0.00  0.00    +0.058 A 
BRANCH  15  16
ATOM     16  C   UNL     1      -1.278  -0.743  -0.411  0.00  0.00    +0.418 C 
ATOM     17  F   UNL     1      -0.997  -2.100  -0.600  0.00  0.00    -0.166 F 
ATOM     18  F   UNL     1      -2.098  -0.588   0.712  0.00  0.00    -0.166 F 
ATOM     19  F   UNL     1      -1.933  -0.240  -1.540  0.00  0.00    -0.166 F 
ENDBRANCH  15  16
ENDBRANCH   9  10
BRANCH   8  20
ATOM     20  C   UNL     1      -2.915   3.237   1.605  0.00  0.00    +0.232 C 
ATOM     21  O   UNL     1      -3.442   4.283   1.287  0.00  0.00    -0.274 OA
ATOM     22  N   UNL     1      -3.630   2.291   2.245  0.00  0.00    -0.328 N 
ATOM     23  H   UNL     1      -4.690   2.466   2.479  0.00  0.00    +0.145 HD
ATOM     24  H   UNL     1      -3.152   1.343   2.534  0.00  0.00    +0.145 HD
ENDBRANCH   8  20
BRANCH   5  25
ATOM     25  C   UNL     1      -0.240   7.734   2.040  0.00  0.00    +0.243 C 
ATOM     26  O   UNL     1       0.209   7.608   3.164  0.00  0.00    -0.270 OA
ATOM     27  N   UNL     1      -0.395   8.964   1.511  0.00  0.00    -0.325 N 
ATOM     28  H   UNL     1      -0.115   9.854   2.095  0.00  0.00    +0.145 HD
ATOM     29  H   UNL     1      -0.801   9.079   0.495  0.00  0.00    +0.145 HD
ENDBRANCH   5  25
BRANCH   1  30
ATOM     30  C   UNL     1      -0.704   2.659  -2.360  0.00  0.00    +0.330 C 
ATOM     31  O   UNL     1      -0.212   1.556  -2.368  0.00  0.00    -0.249 OA
BRANCH  30  32
ATOM     32  O   UNL     1      -0.644   3.428  -3.459  0.00  0.00    -0.461 OA
BRANCH  32  34
ATOM     33  C   UNL     1      -0.594   3.445  -5.894  0.00  0.00    +0.052 C 
ATOM     34  C   UNL     1       0.027   2.870  -4.619  0.00  0.00    +0.170 C 
ATOM     35  C   UNL     1       1.514   3.228  -4.569  0.00  0.00    +0.052 C 
ENDBRANCH  32  34
ENDBRANCH  30  32
ENDBRANCH   1  30
BRANCH   1  36
ATOM     36  C   UNL     1      -2.776   3.560  -1.407  0.00  0.00    +0.084 C 
ATOM     37  N   UNL     1      -3.848   3.861  -1.631  0.00  0.00    -0.195 NA
ENDBRANCH   1  36
TORSDOF 8
