REMARK  Name = ZINC55125996
REMARK  7 active torsions:
REMARK  status: ('A' for Active; 'I' for Inactive)
REMARK    1  A    between atoms: C_1  and  C_2
REMARK    2  A    between atoms: C_5  and  N_18
REMARK    3  A    between atoms: C_9  and  C_11
REMARK    4  A    between atoms: N_13  and  C_14
REMARK    5  A    between atoms: N_13  and  C_15
REMARK    6  A    between atoms: C_15  and  C_16
REMARK    7  A    between atoms: C_16  and  O_17
REMARK                            x       y       z     vdW  Elec       q    Type
REMARK                         _______ _______ _______ _____ _____    ______ ____
ROOT
ATOM      1  C   UNL     1      -0.416   1.500   0.284  0.00  0.00    +0.008 C 
ATOM      2  C   UNL     1      -0.352  -0.028   0.251  0.00  0.00    -0.004 C 
ATOM      3  C   UNL     1       0.094  -0.490  -1.137  0.00  0.00    -0.012 C 
ATOM      4  C   UNL     1       1.478   0.086  -1.446  0.00  0.00    -0.075 C 
ATOM      5  C   UNL     1       2.480  -0.405  -0.399  0.00  0.00    -0.016 C 
ATOM      6  C   UNL     1       2.034   0.057   0.990  0.00  0.00    +0.011 C 
ATOM      7  C   UNL     1       0.650  -0.519   1.298  0.00  0.00    +0.078 C 
ENDROOT
BRANCH   7   8
ATOM      8  C   UNL     1       0.714  -2.024   1.266  0.00  0.00    +0.219 C 
ATOM      9  O   UNL     1       0.102  -2.639   0.418  0.00  0.00    -0.275 OA
ATOM     10  N   UNL     1       1.450  -2.688   2.179  0.00  0.00    -0.302 N 
ATOM     11  C   UNL     1       2.087  -1.957   3.278  0.00  0.00    +0.132 C 
BRANCH  10  12
ATOM     12  C   UNL     1       1.614  -4.139   2.073  0.00  0.00    +0.135 C 
BRANCH  12  13
ATOM     13  C   UNL     1       2.849  -4.453   1.226  0.00  0.00    +0.174 C 
BRANCH  13  14
ATOM     14  O   UNL     1       4.020  -3.988   1.901  0.00  0.00    -0.393 OA
ATOM     15  H   UNL     1       4.843  -4.153   1.421  0.00  0.00    +0.209 HD
ENDBRANCH  13  14
ENDBRANCH  12  13
ENDBRANCH  10  12
ENDBRANCH   7   8
BRANCH   4  16
ATOM     16  N   UNL     1       1.906  -0.358  -2.780  0.00  0.00    +0.380 N 
ATOM     17  H   UNL     1       1.246  -0.034  -3.470  0.00  0.00    -0.090 HD
ATOM     18  H   UNL     1       2.819   0.022  -2.983  0.00  0.00    -0.090 HD
ATOM     19  H   UNL     1       1.949  -1.366  -2.801  0.00  0.00    -0.090 HD
ENDBRANCH   4  16
TORSDOF 5
