REMARK  Name = ZINC16026639
REMARK  7 active torsions:
REMARK  status: ('A' for Active; 'I' for Inactive)
REMARK    1  A    between atoms: C_1  and  C_2
REMARK    2  A    between atoms: C_2  and  C_4
REMARK    3  A    between atoms: C_2  and  O_31
REMARK    4  A    between atoms: C_7  and  C_19
REMARK    5  A    between atoms: N_21  and  C_22
REMARK    6  A    between atoms: C_27  and  O_28
REMARK    7  A    between atoms: O_28  and  C_29
REMARK                            x       y       z     vdW  Elec       q    Type
REMARK                         _______ _______ _______ _____ _____    ______ ____
ROOT
ATOM      1  C   UNL     1      -1.568   2.825   0.664  0.00  0.00    -0.040 C 
ATOM      2  C   UNL     1      -0.798   1.603   1.225  0.00  0.00    -0.001 C 
ATOM      3  C   UNL     1      -0.015   1.091  -0.008  0.00  0.00    +0.076 C 
ATOM      4  C   UNL     1      -0.780   1.640  -1.218  0.00  0.00    +0.049 C 
ATOM      5  C   UNL     1      -1.213   0.526  -2.133  0.00  0.00    -0.028 A 
ATOM      6  C   UNL     1      -2.023  -0.574  -1.964  0.00  0.00    +0.004 A 
ATOM      7  C   UNL     1      -2.239  -1.443  -3.019  0.00  0.00    +0.000 A 
ATOM      8  C   UNL     1      -1.640  -1.202  -4.242  0.00  0.00    +0.002 A 
ATOM      9  C   UNL     1      -0.828  -0.100  -4.416  0.00  0.00    +0.023 A 
ATOM     10  C   UNL     1      -0.606   0.779  -3.359  0.00  0.00    +0.036 A 
ATOM     11  N   UNL     1       0.159   1.945  -3.287  0.00  0.00    -0.286 N 
ATOM     12  C   UNL     1       0.110   2.511  -2.067  0.00  0.00    +0.211 C 
ATOM     13  O   UNL     1       0.673   3.527  -1.717  0.00  0.00    -0.277 OA
ATOM     14  H   UNL     1       0.668   2.305  -4.030  0.00  0.00    +0.155 HD
ATOM     15  N   UNL     1      -1.916   2.391  -0.698  0.00  0.00    +0.395 N 
ATOM     16  H   UNL     1      -2.098   3.209  -1.292  0.00  0.00    -0.083 HD
ATOM     17  H   UNL     1      -2.751   1.794  -0.673  0.00  0.00    -0.083 HD
ENDROOT
BRANCH   3  18
ATOM     18  C   UNL     1       1.394   1.623   0.008  0.00  0.00    +0.220 C 
ATOM     19  O   UNL     1       1.619   2.731   0.449  0.00  0.00    -0.275 OA
ATOM     20  N   UNL     1       2.405   0.870  -0.468  0.00  0.00    -0.282 N 
ATOM     21  H   UNL     1       2.219   0.007  -0.870  0.00  0.00    +0.155 HD
BRANCH  20  22
ATOM     22  C   UNL     1       3.725   1.332  -0.382  0.00  0.00    +0.077 A 
ATOM     23  C   UNL     1       3.982   2.694  -0.322  0.00  0.00    +0.047 A 
ATOM     24  C   UNL     1       5.286   3.147  -0.236  0.00  0.00    +0.043 A 
ATOM     25  C   UNL     1       6.335   2.246  -0.210  0.00  0.00    +0.024 A 
ATOM     26  C   UNL     1       6.085   0.887  -0.270  0.00  0.00    +0.049 A 
ATOM     27  C   UNL     1       4.782   0.425  -0.349  0.00  0.00    +0.141 A 
ATOM     28 CL   UNL     1       5.606   4.852  -0.161  0.00  0.00    -0.083 Cl
BRANCH  27  29
ATOM     29  O   UNL     1       4.535  -0.911  -0.402  0.00  0.00    -0.493 OA
ATOM     30  C   UNL     1       5.667  -1.782  -0.365  0.00  0.00    +0.277 C 
ENDBRANCH  27  29
ENDBRANCH  20  22
ENDBRANCH   3  18
BRANCH   1  32
ATOM     31  C   UNL     1      -3.623   4.234   0.850  0.00  0.00    +0.036 C 
ATOM     32  C   UNL     1      -2.820   3.104   1.498  0.00  0.00    +0.098 C 
BRANCH  32  33
ATOM     33  O   UNL     1      -3.623   1.924   1.562  0.00  0.00    -0.394 OA
ATOM     34  H   UNL     1      -4.435   2.028   2.076  0.00  0.00    +0.210 HD
ENDBRANCH  32  33
ENDBRANCH   1  32
TORSDOF 5
