REMARK  Name = ZINC04347668
REMARK  8 active torsions:
REMARK  status: ('A' for Active; 'I' for Inactive)
REMARK    1  A    between atoms: C_1  and  O_2
REMARK    2  A    between atoms: O_2  and  C_3
REMARK    3  A    between atoms: C_6  and  N_9
REMARK    4  A    between atoms: N_9  and  C_10
REMARK    5  A    between atoms: C_10  and  N_12
REMARK    6  A    between atoms: N_12  and  N_13
REMARK    7  A    between atoms: C_14  and  C_16
REMARK    8  A    between atoms: C_16  and  O_23
REMARK                            x       y       z     vdW  Elec       q    Type
REMARK                         _______ _______ _______ _____ _____    ______ ____
ROOT
ATOM      1  N   UNL     1       0.263   4.142  -0.248  0.00  0.00    -0.233 N 
ATOM      2  C   UNL     1       0.181   5.487  -0.232  0.00  0.00    +0.259 C 
ATOM      3  O   UNL     1      -0.893   6.031  -0.381  0.00  0.00    -0.271 OA
ATOM      4  H   UNL     1       1.121   3.707  -0.130  0.00  0.00    +0.173 HD
ENDROOT
BRANCH   2   5
ATOM      5  C   UNL     1       1.424   6.315  -0.030  0.00  0.00    +0.131 C 
ATOM      6  C   UNL     1       1.041   7.686   0.533  0.00  0.00    -0.034 C 
ATOM      7  C   UNL     1       0.807   8.600  -1.698  0.00  0.00    -0.078 C 
ATOM      8  C   UNL     1       1.183   7.254  -2.325  0.00  0.00    -0.012 C 
ATOM      9  C   UNL     1       2.133   6.513  -1.376  0.00  0.00    +0.024 C 
ATOM     10  C   UNL     1       3.376   7.384  -1.150  0.00  0.00    -0.012 C 
ATOM     11  C   UNL     1       2.939   8.726  -0.556  0.00  0.00    -0.078 C 
ATOM     12  N   UNL     1       1.471   8.761  -0.387  0.00  0.00    +0.382 N 
ATOM     13  H   UNL     1       1.203   9.668   0.013  0.00  0.00    -0.082 HD
BRANCH   5  14
ATOM     14  O   UNL     1       2.301   5.648   0.879  0.00  0.00    -0.381 OA
ATOM     15  H   UNL     1       1.917   5.493   1.754  0.00  0.00    +0.211 HD
ENDBRANCH   5  14
ENDBRANCH   2   5
BRANCH   1  16
ATOM     16  N   UNL     1      -0.893   3.372  -0.436  0.00  0.00    -0.246 N 
ATOM     17  H   UNL     1      -1.752   3.807  -0.554  0.00  0.00    +0.172 HD
BRANCH  16  18
ATOM     18  C   UNL     1      -0.811   2.027  -0.452  0.00  0.00    +0.151 C 
ATOM     19  S   UNL     1      -2.224   1.086  -0.681  0.00  0.00    -0.017 S 
BRANCH  18  20
ATOM     20  N   UNL     1       0.382   1.422  -0.287  0.00  0.00    -0.296 N 
ATOM     21  H   UNL     1       1.169   1.950  -0.081  0.00  0.00    +0.154 HD
BRANCH  20  25
ATOM     22  C   UNL     1       0.693  -2.718  -0.677  0.00  0.00    +0.120 A 
ATOM     23  C   UNL     1      -0.082  -1.993  -1.571  0.00  0.00    +0.047 A 
ATOM     24  C   UNL     1      -0.185  -0.622  -1.442  0.00  0.00    +0.027 A 
ATOM     25  C   UNL     1       0.486   0.031  -0.418  0.00  0.00    +0.033 A 
ATOM     26  C   UNL     1       1.265  -0.694   0.474  0.00  0.00    +0.027 A 
ATOM     27  C   UNL     1       1.364  -2.065   0.347  0.00  0.00    +0.047 A 
BRANCH  22  29
ATOM     28  C   UNL     1       1.610  -4.750   0.150  0.00  0.00    +0.277 C 
ATOM     29  O   UNL     1       0.795  -4.067  -0.805  0.00  0.00    -0.495 OA
ENDBRANCH  22  29
ENDBRANCH  20  25
ENDBRANCH  18  20
ENDBRANCH  16  18
ENDBRANCH   1  16
TORSDOF 7
