REMARK  Name = ZINC35465752
REMARK  13 active torsions:
REMARK  status: ('A' for Active; 'I' for Inactive)
REMARK    1  A    between atoms: C_1  and  C_2
REMARK    2  A    between atoms: C_2  and  C_4
REMARK    3  A    between atoms: C_7  and  C_32
REMARK    4  A    between atoms: C_7  and  O_33
REMARK    5  A    between atoms: C_9  and  O_15
REMARK    6  A    between atoms: C_12  and  C_13
REMARK    7  A    between atoms: C_12  and  C_14
REMARK    8  A    between atoms: O_15  and  C_16
REMARK    9  A    between atoms: C_18  and  O_31
REMARK   10  A    between atoms: C_20  and  O_30
REMARK   11  A    between atoms: C_22  and  O_29
REMARK   12  A    between atoms: C_24  and  C_27
REMARK   13  A    between atoms: C_27  and  O_28
REMARK                            x       y       z     vdW  Elec       q    Type
REMARK                         _______ _______ _______ _____ _____    ______ ____
ROOT
ATOM      1  C   UNL     1      -1.112  -0.764   1.151  0.00  0.00    +0.097 C 
ATOM      2  C   UNL     1      -1.176  -1.958   0.622  0.00  0.00    -0.114 C 
ATOM      3  C   UNL     1      -1.240  -3.151   0.092  0.00  0.00    +0.009 C 
ATOM      4  C   UNL     1      -1.023  -4.387   0.937  0.00  0.00    +0.094 C 
ATOM      5  C   UNL     1       0.028  -5.267   0.253  0.00  0.00    +0.071 C 
ATOM      6  C   UNL     1      -0.408  -5.555  -1.185  0.00  0.00    +0.125 C 
ATOM      7  C   UNL     1      -0.463  -4.250  -1.981  0.00  0.00    +0.043 C 
ATOM      8  C   UNL     1      -1.539  -3.332  -1.379  0.00  0.00    -0.001 C 
ATOM      9  C   UNL     1      -1.508  -1.973  -2.081  0.00  0.00    +0.016 C 
ATOM     10  C   UNL     1      -2.919  -3.971  -1.549  0.00  0.00    +0.016 C 
ATOM     11  C   UNL     1      -2.337  -5.160   1.064  0.00  0.00    +0.047 C 
ENDROOT
BRANCH   1  13
ATOM     12  C   UNL     1       0.174   1.292   1.798  0.00  0.00    +0.091 C 
ATOM     13  C   UNL     1       0.100  -0.084   1.187  0.00  0.00    +0.161 C 
ATOM     14  O   UNL     1       1.101  -0.600   0.727  0.00  0.00    -0.292 OA
ENDBRANCH   1  13
BRANCH   4  15
ATOM     15  O   UNL     1      -0.559  -4.006   2.234  0.00  0.00    -0.384 OA
ATOM     16  H   UNL     1      -0.400  -4.752   2.829  0.00  0.00    +0.211 HD
ENDBRANCH   4  15
BRANCH   6  17
ATOM     17  O   UNL     1       0.528  -6.444  -1.796  0.00  0.00    -0.345 OA
BRANCH  17  18
ATOM     18  C   UNL     1       0.212  -7.827  -1.629  0.00  0.00    +0.282 C 
ATOM     19  C   UNL     1       1.205  -8.678  -2.424  0.00  0.00    +0.201 C 
ATOM     20  C   UNL     1       0.897 -10.161  -2.191  0.00  0.00    +0.179 C 
ATOM     21  C   UNL     1       0.953 -10.453  -0.688  0.00  0.00    +0.177 C 
ATOM     22  C   UNL     1      -0.031  -9.533   0.040  0.00  0.00    +0.178 C 
ATOM     23  O   UNL     1       0.293  -8.170  -0.244  0.00  0.00    -0.341 OA
BRANCH  21  24
ATOM     24  O   UNL     1       0.597 -11.816  -0.453  0.00  0.00    -0.386 OA
ATOM     25  H   UNL     1       1.177 -12.455  -0.889  0.00  0.00    +0.210 HD
ENDBRANCH  21  24
BRANCH  20  26
ATOM     26  O   UNL     1       1.863 -10.963  -2.872  0.00  0.00    -0.386 OA
ATOM     27  H   UNL     1       1.886 -10.824  -3.829  0.00  0.00    +0.210 HD
ENDBRANCH  20  26
BRANCH  19  28
ATOM     28  O   UNL     1       1.086  -8.377  -3.816  0.00  0.00    -0.384 OA
ATOM     29  H   UNL     1       1.264  -7.452  -4.035  0.00  0.00    +0.210 HD
ENDBRANCH  19  28
BRANCH  22  30
ATOM     30  C   UNL     1       0.062  -9.777   1.547  0.00  0.00    +0.190 C 
BRANCH  30  31
ATOM     31  O   UNL     1      -0.936  -9.004   2.217  0.00  0.00    -0.392 OA
ATOM     32  H   UNL     1      -0.935  -9.110   3.179  0.00  0.00    +0.210 HD
ENDBRANCH  30  31
ENDBRANCH  22  30
ENDBRANCH  17  18
ENDBRANCH   6  17
TORSDOF 9
