REMARK  Name = ZINC48857559
REMARK  4 active torsions:
REMARK  status: ('A' for Active; 'I' for Inactive)
REMARK    1  A    between atoms: C_8  and  N_13
REMARK    2  A    between atoms: C_9  and  N_12
REMARK    3  A    between atoms: C_18  and  C_20
REMARK    4  A    between atoms: C_20  and  O_21
REMARK                            x       y       z     vdW  Elec       q    Type
REMARK                         _______ _______ _______ _____ _____    ______ ____
ROOT
ATOM      1  C   UNL     1      -0.017   1.389   0.010  0.00  0.00    +0.017 A 
ATOM      2  C   UNL     1       1.140   2.107   0.003  0.00  0.00    +0.027 A 
ATOM      3  C   UNL     1       2.376   1.439  -0.013  0.00  0.00    +0.048 A 
ATOM      4  C   UNL     1       2.392   0.023  -0.021  0.00  0.00    +0.022 A 
ATOM      5  C   UNL     1       1.182  -0.686  -0.013  0.00  0.00    +0.027 A 
ATOM      6  C   UNL     1       0.002  -0.004   0.002  0.00  0.00    +0.019 A 
ATOM      7 BR   UNL     1      -1.629  -0.960   0.013  0.00  0.00    -0.050 Br
ATOM      8  C   UNL     1       3.636  -0.648  -0.036  0.00  0.00    +0.062 A 
ATOM      9  C   UNL     1       4.792   0.124  -0.043  0.00  0.00    +0.063 A 
ATOM     10  C   UNL     1       4.690   1.514  -0.035  0.00  0.00    +0.107 A 
ATOM     11  N   UNL     1       3.526   2.122  -0.020  0.00  0.00    -0.359 N 
ATOM     12  H   UNL     1       3.500   3.091  -0.015  0.00  0.00    +0.165 HD
ENDROOT
BRANCH   8  13
ATOM     13  N   UNL     1       3.702  -2.038  -0.044  0.00  0.00    -0.323 N 
ATOM     14  C   UNL     1       3.743  -2.793   1.216  0.00  0.00    +0.105 C 
ATOM     15  C   UNL     1       2.624  -3.838   1.202  0.00  0.00    +0.019 C 
ATOM     16  C   UNL     1       2.755  -4.704  -0.053  0.00  0.00    +0.003 C 
ATOM     17  C   UNL     1       2.612  -3.825  -1.298  0.00  0.00    +0.025 C 
ATOM     18  C   UNL     1       3.725  -2.780  -1.312  0.00  0.00    +0.099 C 
BRANCH  18  19
ATOM     19  C   UNL     1       3.502  -1.812  -2.476  0.00  0.00    +0.178 C 
BRANCH  19  20
ATOM     20  O   UNL     1       2.188  -1.256  -2.388  0.00  0.00    -0.393 OA
ATOM     21  H   UNL     1       1.978  -0.632  -3.096  0.00  0.00    +0.209 HD
ENDBRANCH  19  20
ENDBRANCH  18  19
ENDBRANCH   8  13
BRANCH   9  22
ATOM     22  N   UNL     1       6.052  -0.491  -0.058  0.00  0.00    -0.355 N 
ATOM     23  H   UNL     1       6.119  -1.458  -0.063  0.00  0.00    +0.142 HD
ATOM     24  H   UNL     1       6.856   0.051  -0.062  0.00  0.00    +0.142 HD
ENDBRANCH   9  22
TORSDOF 4
