REMARK  Name = ZINC00863459
REMARK  11 active torsions:
REMARK  status: ('A' for Active; 'I' for Inactive)
REMARK    1  A    between atoms: C_1  and  C_2
REMARK    2  A    between atoms: C_2  and  O_3
REMARK    3  A    between atoms: O_3  and  C_4
REMARK    4  A    between atoms: C_4  and  C_6
REMARK    5  A    between atoms: C_7  and  C_37
REMARK    6  A    between atoms: C_11  and  C_13
REMARK    7  A    between atoms: C_24  and  C_27
REMARK    8  A    between atoms: C_30  and  O_35
REMARK    9  A    between atoms: C_31  and  O_33
REMARK   10  A    between atoms: O_33  and  C_34
REMARK   11  A    between atoms: O_35  and  C_36
REMARK                            x       y       z     vdW  Elec       q    Type
REMARK                         _______ _______ _______ _____ _____    ______ ____
ROOT
ATOM      1  C   UNL     1      -3.256   4.293   2.161  0.00  0.00    +0.065 C 
ATOM      2  C   UNL     1      -3.202   4.908   0.967  0.00  0.00    +0.016 C 
ATOM      3  N   UNL     1      -2.213   4.602   0.074  0.00  0.00    -0.321 N 
ATOM      4  C   UNL     1      -1.514   3.429   0.181  0.00  0.00    +0.016 C 
ATOM      5  C   UNL     1      -1.499   2.744   1.345  0.00  0.00    +0.024 C 
ATOM      6  C   UNL     1      -2.237   3.263   2.553  0.00  0.00    +0.094 C 
ATOM      7  C   UNL     1      -0.799   1.530   1.464  0.00  0.00    +0.162 C 
ATOM      8  O   UNL     1      -0.796   0.944   2.528  0.00  0.00    -0.292 OA
ATOM      9  C   UNL     1      -0.055   0.943   0.295  0.00  0.00    +0.088 C 
ATOM     10  C   UNL     1      -0.730   1.393  -1.005  0.00  0.00    +0.032 C 
ATOM     11  C   UNL     1      -0.768   2.923  -1.028  0.00  0.00    +0.059 C 
ATOM     12  C   UNL     1      -4.238   5.942   0.610  0.00  0.00    +0.061 C 
ATOM     13  H   UNL     1      -1.971   5.301  -0.740  0.00  0.00    +0.152 HD
ENDROOT
BRANCH   6  14
ATOM     14  C   UNL     1      -1.250   3.883   3.507  0.00  0.00    -0.015 A 
ATOM     15  C   UNL     1      -0.469   4.948   3.099  0.00  0.00    +0.006 A 
ATOM     16  C   UNL     1       0.434   5.521   3.976  0.00  0.00    +0.002 A 
ATOM     17  C   UNL     1       0.564   5.022   5.258  0.00  0.00    +0.021 A 
ATOM     18  C   UNL     1      -0.212   3.953   5.667  0.00  0.00    +0.060 A 
ATOM     19  C   UNL     1      -1.120   3.383   4.790  0.00  0.00    +0.063 A 
ATOM     20 CL   UNL     1      -2.096   2.041   5.302  0.00  0.00    -0.082 Cl
ATOM     21 CL   UNL     1      -0.049   3.327   7.278  0.00  0.00    -0.082 Cl
ENDBRANCH   6  14
BRANCH  10  22
ATOM     22  C   UNL     1       0.059   0.888  -2.185  0.00  0.00    -0.040 A 
ATOM     23  C   UNL     1       1.377   1.273  -2.350  0.00  0.00    +0.008 A 
ATOM     24  C   UNL     1       2.106   0.808  -3.428  0.00  0.00    +0.049 A 
ATOM     25  C   UNL     1       1.514  -0.036  -4.353  0.00  0.00    +0.161 A 
ATOM     26  C   UNL     1       0.185  -0.419  -4.191  0.00  0.00    +0.162 A 
ATOM     27  C   UNL     1      -0.538   0.046  -3.105  0.00  0.00    +0.053 A 
BRANCH  26  28
ATOM     28  O   UNL     1      -0.401  -1.248  -5.096  0.00  0.00    -0.491 OA
ATOM     29  C   UNL     1      -1.766  -1.599  -4.865  0.00  0.00    +0.277 C 
ENDBRANCH  26  28
BRANCH  25  30
ATOM     30  O   UNL     1       2.228  -0.490  -5.418  0.00  0.00    -0.491 OA
ATOM     31  C   UNL     1       3.586  -0.056  -5.520  0.00  0.00    +0.277 C 
ENDBRANCH  25  30
ENDBRANCH  10  22
BRANCH   1  32
ATOM     32  C   UNL     1      -4.293   4.622   3.064  0.00  0.00    +0.338 C 
ATOM     33  O   UNL     1      -5.062   5.529   2.804  0.00  0.00    -0.245 OA
BRANCH  32  34
ATOM     34  O   UNL     1      -4.430   3.930   4.215  0.00  0.00    -0.462 OA
BRANCH  34  36
ATOM     35  C   UNL     1      -5.495   3.427   6.325  0.00  0.00    +0.048 C 
ATOM     36  C   UNL     1      -5.499   4.317   5.081  0.00  0.00    +0.229 C 
ENDBRANCH  34  36
ENDBRANCH  32  34
ENDBRANCH   1  32
TORSDOF 7
