REMARK  Name = ZINC10342047
REMARK  5 active torsions:
REMARK  status: ('A' for Active; 'I' for Inactive)
REMARK    1  A    between atoms: C_1  and  C_2
REMARK    2  A    between atoms: C_7  and  S_23
REMARK    3  A    between atoms: C_12  and  C_14
REMARK    4  A    between atoms: C_14  and  N_47
REMARK    5  A    between atoms: S_23  and  N_26
REMARK                            x       y       z     vdW  Elec       q    Type
REMARK                         _______ _______ _______ _____ _____    ______ ____
ROOT
ATOM      1  C   UNL     1      -1.197   4.573   0.488  0.00  0.00    +0.029 C 
ATOM      2  C   UNL     1      -0.695   3.626  -0.604  0.00  0.00    +0.083 C 
ATOM      3  C   UNL     1       0.841   3.562  -0.590  0.00  0.00    +0.059 C 
ATOM      4  C   UNL     1       1.159   2.112  -0.302  0.00  0.00    -0.022 A 
ATOM      5  C   UNL     1       2.370   1.459  -0.172  0.00  0.00    +0.034 A 
ATOM      6  C   UNL     1       2.402   0.104   0.097  0.00  0.00    +0.105 A 
ATOM      7  C   UNL     1       1.218  -0.598   0.236  0.00  0.00    +0.030 A 
ATOM      8  C   UNL     1       0.008   0.049   0.106  0.00  0.00    +0.026 A 
ATOM      9  C   UNL     1      -0.032   1.418  -0.166  0.00  0.00    +0.040 A 
ATOM     10  N   UNL     1      -1.139   2.255  -0.338  0.00  0.00    -0.270 N 
ATOM     11  C   UNL     1      -2.426   1.859  -0.268  0.00  0.00    +0.203 C 
ATOM     12  O   UNL     1      -3.318   2.664  -0.433  0.00  0.00    -0.277 OA
ENDROOT
BRANCH   6  13
ATOM     13  S   UNL     1       3.946  -0.727   0.264  0.00  0.00    +0.056 S 
ATOM     14  O   UNL     1       4.901   0.259   0.630  0.00  0.00    -0.153 OA
ATOM     15  O   UNL     1       3.703  -1.882   1.055  0.00  0.00    -0.153 OA
BRANCH  13  16
ATOM     16  N   UNL     1       4.377  -1.267  -1.241  0.00  0.00    -0.204 NA
ATOM     17  H   UNL     1       5.314  -1.350  -1.477  0.00  0.00    +0.144 HD
ATOM     18  H   UNL     1       3.692  -1.501  -1.887  0.00  0.00    +0.144 HD
ENDBRANCH  13  16
ENDBRANCH   6  13
BRANCH  11  19
ATOM     19  C   UNL     1      -2.756   0.417   0.017  0.00  0.00    +0.020 C 
BRANCH  19  28
ATOM     20  C   UNL     1      -4.713   0.962   1.334  0.00  0.00    -0.073 C 
ATOM     21  C   UNL     1      -6.237   1.127   1.206  0.00  0.00    +0.024 C 
ATOM     22  C   UNL     1      -6.803  -0.188   0.780  0.00  0.00    -0.011 A 
ATOM     23  C   UNL     1      -6.108  -1.252   0.289  0.00  0.00    -0.054 A 
ATOM     24  C   UNL     1      -6.852  -2.382  -0.043  0.00  0.00    +0.009 A 
ATOM     25  C   UNL     1      -8.195  -2.382   0.127  0.00  0.00    +0.045 A 
ATOM     26  S   UNL     1      -8.484  -0.744   0.781  0.00  0.00    -0.101 S 
ATOM     27  C   UNL     1      -4.593  -1.155   0.132  0.00  0.00    -0.042 C 
ATOM     28  N   UNL     1      -4.222   0.280   0.113  0.00  0.00    +0.388 N 
ATOM     29  H   UNL     1      -4.652   0.721  -0.709  0.00  0.00    -0.081 HD
ENDBRANCH  19  28
ENDBRANCH  11  19
TORSDOF 4
