REMARK  Name = ZINC12394404
REMARK  7 active torsions:
REMARK  status: ('A' for Active; 'I' for Inactive)
REMARK    1  A    between atoms: C_1  and  C_2
REMARK    2  A    between atoms: C_4  and  C_14
REMARK    3  A    between atoms: N_5  and  C_7
REMARK    4  A    between atoms: C_7  and  C_8
REMARK    5  A    between atoms: C_8  and  C_10
REMARK    6  A    between atoms: C_8  and  C_11
REMARK    7  A    between atoms: C_11  and  N_13
REMARK                            x       y       z     vdW  Elec       q    Type
REMARK                         _______ _______ _______ _____ _____    ______ ____
ROOT
ATOM      1  C   UNL     1      -3.561   2.617   3.211  0.00  0.00    +0.153 C 
ENDROOT
BRANCH   1   6
ATOM      2  C   UNL     1      -0.013   1.086   0.008  0.00  0.00    +0.067 C 
ATOM      3  C   UNL     1      -0.718   1.572   1.248  0.00  0.00    +0.060 A 
ATOM      4  C   UNL     1      -0.116   1.847   2.480  0.00  0.00    +0.047 A 
ATOM      5  C   UNL     1      -1.082   2.258   3.333  0.00  0.00    +0.036 A 
ATOM      6  N   UNL     1      -2.254   2.244   2.665  0.00  0.00    -0.268 N 
ATOM      7  N   UNL     1      -1.999   1.815   1.356  0.00  0.00    -0.176 NA
ATOM      8  C   UNL     1      -0.884   2.660   4.772  0.00  0.00    +0.065 C 
ENDBRANCH   1   6
BRANCH   1   9
ATOM      9  C   UNL     1      -3.799   4.112   2.990  0.00  0.00    +0.059 C 
ATOM     10  C   UNL     1      -3.890   4.397   1.489  0.00  0.00    +0.016 C 
BRANCH   9  11
ATOM     11  C   UNL     1      -5.086   4.521   3.658  0.00  0.00    +0.051 C 
ATOM     12  S   UNL     1      -5.960   3.435   4.442  0.00  0.00    -0.040 S 
BRANCH  11  13
ATOM     13  N   UNL     1      -5.501   5.801   3.595  0.00  0.00    -0.355 N 
ATOM     14  H   UNL     1      -4.971   6.460   3.119  0.00  0.00    +0.143 HD
ATOM     15  H   UNL     1      -6.330   6.064   4.025  0.00  0.00    +0.143 HD
ENDBRANCH  11  13
ENDBRANCH   9  11
ENDBRANCH   1   9
TORSDOF 4
