REMARK  Name = ZINC20323594
REMARK  5 active torsions:
REMARK  status: ('A' for Active; 'I' for Inactive)
REMARK    1  A    between atoms: C_1  and  S_2
REMARK    2  A    between atoms: S_2  and  C_3
REMARK    3  A    between atoms: N_16  and  C_17
REMARK    4  A    between atoms: C_17  and  C_18
REMARK    5  A    between atoms: C_18  and  N_19
REMARK                            x       y       z     vdW  Elec       q    Type
REMARK                         _______ _______ _______ _____ _____    ______ ____
ROOT
ATOM      1  C   UNL     1       2.715   5.873  -0.840  0.00  0.00    +0.191 A 
ATOM      2  N   UNL     1       1.413   5.637  -0.909  0.00  0.00    -0.206 NA
ATOM      3  C   UNL     1       0.873   4.426  -0.806  0.00  0.00    +0.132 A 
ATOM      4  C   UNL     1       1.786   3.349  -0.611  0.00  0.00    +0.051 A 
ATOM      5  C   UNL     1       1.460   1.939  -0.469  0.00  0.00    -0.025 A 
ATOM      6  C   UNL     1       2.498   1.091  -0.290  0.00  0.00    -0.004 A 
ATOM      7  S   UNL     1       3.947   2.117  -0.303  0.00  0.00    -0.073 S 
ATOM      8  C   UNL     1       3.163   3.678  -0.546  0.00  0.00    +0.115 A 
ATOM      9  N   UNL     1       3.621   4.910  -0.658  0.00  0.00    -0.215 NA
ATOM     10  C   UNL     1       2.437  -0.395  -0.120  0.00  0.00    +0.043 C 
ATOM     11  C   UNL     1       0.986  -0.790   0.193  0.00  0.00    +0.005 C 
ATOM     12  C   UNL     1       0.061  -0.088  -0.805  0.00  0.00    +0.005 C 
ATOM     13  C   UNL     1       0.028   1.412  -0.515  0.00  0.00    +0.037 C 
ATOM     14  N   UNL     1      -0.493   4.223  -0.885  0.00  0.00    -0.330 N 
ATOM     15  H   UNL     1      -0.912   3.223  -0.702  0.00  0.00    +0.147 HD
ENDROOT
BRANCH   1  17
ATOM     16  C   UNL     1       5.062   7.281  -0.832  0.00  0.00    +0.093 C 
ATOM     17  S   UNL     1       3.277   7.536  -0.996  0.00  0.00    -0.089 S 
ENDBRANCH   1  17
BRANCH  14  18
ATOM     18  C   UNL     1      -1.382   5.342  -1.212  0.00  0.00    +0.083 C 
BRANCH  18  19
ATOM     19  C   UNL     1      -2.831   4.852  -1.235  0.00  0.00    -0.068 C 
BRANCH  19  20
ATOM     20  N   UNL     1      -3.722   5.973  -1.563  0.00  0.00    +0.379 N 
ATOM     21  H   UNL     1      -4.764   5.620  -1.579  0.00  0.00    -0.090 HD
ATOM     22  H   UNL     1      -3.455   6.376  -2.551  0.00  0.00    -0.090 HD
ATOM     23  H   UNL     1      -3.613   6.761  -0.804  0.00  0.00    -0.090 HD
ENDBRANCH  19  20
ENDBRANCH  18  19
ENDBRANCH  14  18
TORSDOF 4
