REMARK  Name = ZINC05615975
REMARK  5 active torsions:
REMARK  status: ('A' for Active; 'I' for Inactive)
REMARK    1  A    between atoms: C_7  and  C_16
REMARK    2  A    between atoms: C_16  and  N_17
REMARK    3  A    between atoms: N_17  and  C_18
REMARK    4  A    between atoms: C_21  and  S_24
REMARK    5  A    between atoms: S_24  and  N_27
REMARK                            x       y       z     vdW  Elec       q    Type
REMARK                         _______ _______ _______ _____ _____    ______ ____
ROOT
ATOM      1  N   UNL     1       1.415   6.461  -0.376  0.00  0.00    -0.340 N 
ATOM      2  H   UNL     1       0.892   5.976  -1.033  0.00  0.00    +0.146 HD
ENDROOT
BRANCH   1   3
ATOM      3  C   UNL     1       2.660   6.989  -0.725  0.00  0.00    +0.027 A 
ATOM      4  C   UNL     1       3.408   7.689   0.214  0.00  0.00    +0.025 A 
ATOM      5  C   UNL     1       4.641   8.205  -0.133  0.00  0.00    +0.031 A 
ATOM      6  C   UNL     1       5.126   8.036  -1.417  0.00  0.00    +0.111 A 
ATOM      7  C   UNL     1       4.382   7.345  -2.355  0.00  0.00    +0.031 A 
ATOM      8  C   UNL     1       3.151   6.821  -2.013  0.00  0.00    +0.025 A 
BRANCH   6   9
ATOM      9  S   UNL     1       6.697   8.702  -1.857  0.00  0.00    +0.080 S 
ATOM     10  O   UNL     1       7.436   8.833  -0.650  0.00  0.00    -0.148 OA
ATOM     11  O   UNL     1       7.167   7.939  -2.959  0.00  0.00    -0.148 OA
BRANCH   9  12
ATOM     12  N   UNL     1       6.437  10.237  -2.422  0.00  0.00    -0.228 N 
ATOM     13  C   UNL     1       5.951  11.207  -1.577  0.00  0.00    +0.186 C 
ATOM     14  H   UNL     1       5.350  11.534   0.341  0.00  0.00    +0.159 HD
ATOM     15  N   UNL     1       5.735  12.482  -2.046  0.00  0.00    -0.370 N 
ATOM     16  H   UNL     1       6.627  10.452  -3.348  0.00  0.00    +0.191 HD
ATOM     17  H   UNL     1       5.925  12.696  -2.972  0.00  0.00    +0.159 HD
ATOM     18  H   UNL     1       5.392  13.166  -1.450  0.00  0.00    +0.159 HD
ATOM     19  N   UNL     1       5.711  10.850  -0.324  0.00  0.00    -0.370 N 
ATOM     20  H   UNL     1       5.889   9.885  -0.022  0.00  0.00    +0.159 HD
ENDBRANCH   9  12
ENDBRANCH   6   9
ENDBRANCH   1   3
BRANCH   1  21
ATOM     21  C   UNL     1       0.899   6.639   0.984  0.00  0.00    +0.138 C 
BRANCH  21  28
ATOM     22  C   UNL     1       0.405   2.568   2.162  0.00  0.00    +0.001 A 
ATOM     23  C   UNL     1      -0.859   1.986   2.260  0.00  0.00    +0.002 A 
ATOM     24  C   UNL     1      -1.991   2.681   1.981  0.00  0.00    +0.030 A 
ATOM     25  C   UNL     1      -1.901   4.035   1.590  0.00  0.00    +0.093 A 
ATOM     26  C   UNL     1      -0.571   4.644   1.488  0.00  0.00    +0.007 A 
ATOM     27  C   UNL     1       0.565   3.864   1.787  0.00  0.00    +0.010 A 
ATOM     28  C   UNL     1      -0.451   5.980   1.099  0.00  0.00    -0.012 A 
ATOM     29  C   UNL     1      -1.624   6.686   0.821  0.00  0.00    +0.007 A 
ATOM     30  C   UNL     1      -1.589   8.038   0.423  0.00  0.00    +0.010 A 
ATOM     31  C   UNL     1      -2.752   8.689   0.162  0.00  0.00    +0.001 A 
ATOM     32  C   UNL     1      -3.987   8.051   0.278  0.00  0.00    +0.002 A 
ATOM     33  C   UNL     1      -4.090   6.752   0.657  0.00  0.00    +0.030 A 
ATOM     34  C   UNL     1      -2.921   6.014   0.944  0.00  0.00    +0.093 A 
ATOM     35  N   UNL     1      -2.993   4.740   1.317  0.00  0.00    -0.132 N 
ATOM     36  O   UNL     1      -4.262   4.121   1.425  0.00  0.00    -0.163 OA
ENDBRANCH  21  28
ENDBRANCH   1  21
TORSDOF 5
