REMARK  Name = ZINC36146274
REMARK  3 active torsions:
REMARK  status: ('A' for Active; 'I' for Inactive)
REMARK    1  A    between atoms: C_1  and  N_2
REMARK    2  A    between atoms: C_12  and  C_21
REMARK    3  A    between atoms: N_23  and  C_24
REMARK                            x       y       z     vdW  Elec       q    Type
REMARK                         _______ _______ _______ _____ _____    ______ ____
ROOT
ATOM      1  C   UNL     1       2.112   2.381   0.087  0.00  0.00    +0.138 C 
ATOM      2  N   UNL     1       1.512   1.101  -0.298  0.00  0.00    -0.275 N 
ATOM      3  C   UNL     1       1.633   0.534  -1.568  0.00  0.00    +0.038 A 
ATOM      4  C   UNL     1       2.297   0.986  -2.707  0.00  0.00    +0.024 A 
ATOM      5  C   UNL     1       2.274   0.238  -3.865  0.00  0.00    +0.002 A 
ATOM      6  C   UNL     1       1.593  -0.966  -3.906  0.00  0.00    +0.000 A 
ATOM      7  C   UNL     1       0.932  -1.421  -2.779  0.00  0.00    +0.004 A 
ATOM      8  C   UNL     1       0.953  -0.677  -1.621  0.00  0.00    -0.027 A 
ATOM      9  C   UNL     1       0.356  -0.879  -0.254  0.00  0.00    +0.052 C 
ATOM     10  C   UNL     1       0.785   0.332   0.534  0.00  0.00    +0.214 C 
ATOM     11  O   UNL     1       0.523   0.570   1.694  0.00  0.00    -0.276 OA
ATOM     12  C   UNL     1       0.900  -2.162   0.394  0.00  0.00    +0.076 C 
ATOM     13  C   UNL     1      -0.328  -2.700   1.177  0.00  0.00    -0.003 C 
ATOM     14  C   UNL     1      -1.497  -2.304   0.244  0.00  0.00    -0.066 C 
ATOM     15  N   UNL     1      -1.106  -0.986  -0.321  0.00  0.00    +0.394 N 
ATOM     16  C   UNL     1      -1.709   0.035   0.572  0.00  0.00    -0.077 C 
ATOM     17  C   UNL     1      -3.081  -0.575   0.950  0.00  0.00    -0.020 C 
ATOM     18  C   UNL     1      -2.768  -2.099   1.085  0.00  0.00    -0.017 C 
ATOM     19  H   UNL     1      -1.431  -0.890  -1.271  0.00  0.00    -0.079 HD
ENDROOT
BRANCH  12  20
ATOM     20  C   UNL     1       1.340  -3.147  -0.659  0.00  0.00    +0.220 C 
ATOM     21  O   UNL     1       0.513  -3.713  -1.343  0.00  0.00    -0.275 OA
ATOM     22  N   UNL     1       2.651  -3.398  -0.841  0.00  0.00    -0.281 N 
ATOM     23  H   UNL     1       3.309  -2.988  -0.257  0.00  0.00    +0.155 HD
BRANCH  22  24
ATOM     24  C   UNL     1       3.065  -4.251  -1.874  0.00  0.00    +0.111 A 
ATOM     25  C   UNL     1       2.800  -5.613  -1.800  0.00  0.00    +0.185 A 
ATOM     26  C   UNL     1       3.209  -6.454  -2.821  0.00  0.00    +0.198 A 
ATOM     27  C   UNL     1       3.883  -5.939  -3.917  0.00  0.00    +0.199 A 
ATOM     28  C   UNL     1       4.149  -4.580  -3.993  0.00  0.00    +0.198 A 
ATOM     29  C   UNL     1       3.736  -3.735  -2.976  0.00  0.00    +0.185 A 
ATOM     30  F   UNL     1       3.990  -2.410  -3.053  0.00  0.00    -0.200 F 
ATOM     31  F   UNL     1       4.807  -4.080  -5.061  0.00  0.00    -0.199 F 
ATOM     32  F   UNL     1       4.282  -6.761  -4.912  0.00  0.00    -0.199 F 
ATOM     33  F   UNL     1       2.951  -7.779  -2.749  0.00  0.00    -0.199 F 
ATOM     34  F   UNL     1       2.144  -6.116  -0.731  0.00  0.00    -0.200 F 
ENDBRANCH  22  24
ENDBRANCH  12  20
TORSDOF 2
