REMARK  Name = ZINC63746547
REMARK  7 active torsions:
REMARK  status: ('A' for Active; 'I' for Inactive)
REMARK    1  A    between atoms: C_1  and  C_2
REMARK    2  A    between atoms: C_5  and  C_32
REMARK    3  A    between atoms: C_6  and  C_24
REMARK    4  A    between atoms: C_10  and  N_12
REMARK    5  A    between atoms: N_15  and  C_16
REMARK    6  A    between atoms: C_21  and  O_22
REMARK    7  A    between atoms: O_22  and  C_23
REMARK                            x       y       z     vdW  Elec       q    Type
REMARK                         _______ _______ _______ _____ _____    ______ ____
ROOT
ATOM      1  C   UNL     1      -0.847   0.990   1.290  0.00  0.00    +0.044 C 
ATOM      2  C   UNL     1      -0.617  -0.448   0.903  0.00  0.00    -0.048 A 
ATOM      3  C   UNL     1      -0.497  -0.759  -0.409  0.00  0.00    +0.013 A 
ATOM      4  C   UNL     1      -0.280  -2.100  -0.810  0.00  0.00    +0.006 A 
ATOM      5  C   UNL     1      -0.124  -2.694  -2.050  0.00  0.00    -0.000 C 
ATOM      6  C   UNL     1       0.074  -4.168  -1.775  0.00  0.00    +0.198 C 
ATOM      7  N   UNL     1       0.014  -4.320  -0.318  0.00  0.00    -0.368 N 
ATOM      8  C   UNL     1      -0.187  -3.144   0.229  0.00  0.00    +0.065 A 
ATOM      9  C   UNL     1      -0.327  -2.727   1.632  0.00  0.00    +0.059 A 
ATOM     10  C   UNL     1      -0.528  -1.411   1.912  0.00  0.00    +0.028 A 
ATOM     11  H   UNL     1       0.108  -5.156   0.165  0.00  0.00    +0.161 HD
ENDROOT
BRANCH   6  12
ATOM     12  C   UNL     1       1.418  -4.616  -2.290  0.00  0.00    +0.243 C 
ATOM     13  O   UNL     1       2.387  -4.588  -1.561  0.00  0.00    -0.273 OA
ATOM     14  N   UNL     1       1.543  -5.047  -3.561  0.00  0.00    -0.295 N 
ATOM     15  C   UNL     1       0.414  -4.970  -4.502  0.00  0.00    +0.136 C 
ATOM     16  C   UNL     1       0.901  -4.293  -5.787  0.00  0.00    +0.179 C 
ATOM     17  O   UNL     1       2.074  -4.962  -6.257  0.00  0.00    -0.377 OA
ATOM     18  C   UNL     1       3.183  -4.899  -5.357  0.00  0.00    +0.179 C 
ATOM     19  C   UNL     1       2.815  -5.602  -4.051  0.00  0.00    +0.136 C 
ENDBRANCH   6  12
BRANCH   9  20
ATOM     20  N   UNL     1      -0.248  -3.667   2.664  0.00  0.00    -0.267 N 
ATOM     21  C   UNL     1       0.120  -3.282   3.901  0.00  0.00    +0.308 C 
ATOM     22  O   UNL     1       0.479  -2.137   4.100  0.00  0.00    -0.252 OA
ATOM     23  N   UNL     1       0.091  -4.165   4.919  0.00  0.00    -0.266 N 
ATOM     24  H   UNL     1      -0.459  -4.598   2.488  0.00  0.00    +0.156 HD
ATOM     25  H   UNL     1      -0.121  -5.096   4.748  0.00  0.00    +0.156 HD
BRANCH  23  26
ATOM     26  C   UNL     1       0.367  -3.738   6.225  0.00  0.00    +0.077 A 
ATOM     27  C   UNL     1      -0.004  -2.465   6.634  0.00  0.00    +0.027 A 
ATOM     28  C   UNL     1       0.268  -2.046   7.922  0.00  0.00    +0.002 A 
ATOM     29  C   UNL     1       0.910  -2.893   8.807  0.00  0.00    +0.004 A 
ATOM     30  C   UNL     1       1.283  -4.163   8.407  0.00  0.00    +0.047 A 
ATOM     31  C   UNL     1       1.008  -4.592   7.119  0.00  0.00    +0.141 A 
BRANCH  31  32
ATOM     32  O   UNL     1       1.369  -5.843   6.725  0.00  0.00    -0.493 OA
ATOM     33  C   UNL     1       2.024  -6.664   7.695  0.00  0.00    +0.277 C 
ENDBRANCH  31  32
ENDBRANCH  23  26
ENDBRANCH   9  20
BRANCH   5  34
ATOM     34  C   UNL     1      -0.147  -2.033  -3.356  0.00  0.00    -0.019 A 
ATOM     35  C   UNL     1      -1.142  -2.352  -4.292  0.00  0.00    +0.008 A 
ATOM     36  C   UNL     1      -1.155  -1.725  -5.518  0.00  0.00    +0.001 A 
ATOM     37  C   UNL     1      -0.190  -0.782  -5.829  0.00  0.00    +0.000 A 
ATOM     38  C   UNL     1       0.797  -0.460  -4.912  0.00  0.00    +0.001 A 
ATOM     39  C   UNL     1       0.823  -1.072  -3.678  0.00  0.00    +0.008 A 
ENDBRANCH   5  34
TORSDOF 5
