REMARK  Name = ZINC12558546
REMARK  12 active torsions:
REMARK  status: ('A' for Active; 'I' for Inactive)
REMARK    1  A    between atoms: C_1  and  C_2
REMARK    2  A    between atoms: C_2  and  C_4
REMARK    3  A    between atoms: C_2  and  N_14
REMARK    4  A    between atoms: C_15  and  C_17
REMARK    5  A    between atoms: C_17  and  S_18
REMARK    6  A    between atoms: S_18  and  C_19
REMARK    7  A    between atoms: C_22  and  C_31
REMARK    8  A    between atoms: N_23  and  C_24
REMARK    9  A    between atoms: C_31  and  C_33
REMARK   10  A    between atoms: C_31  and  N_62
REMARK   11  A    between atoms: C_34  and  N_62
REMARK   12  A    between atoms: C_35  and  N_62
REMARK                            x       y       z     vdW  Elec       q    Type
REMARK                         _______ _______ _______ _____ _____    ______ ____
ROOT
ATOM      1  S   UNL     1       1.655  -2.070  -0.294  0.00  0.00    -0.076 S 
ENDROOT
BRANCH   1   2
ATOM      2  C   UNL     1       1.089  -0.402  -0.345  0.00  0.00    +0.197 A 
ATOM      3  N   UNL     1      -0.161  -0.000  -0.319  0.00  0.00    -0.122 NA
ATOM      4  N   UNL     1      -0.210   1.283  -0.370  0.00  0.00    -0.135 NA
ATOM      5  C   UNL     1       0.995   1.776  -0.432  0.00  0.00    +0.125 A 
ATOM      6  N   UNL     1       1.868   0.720  -0.418  0.00  0.00    -0.275 N 
BRANCH   6   7
ATOM      7  C   UNL     1       3.269   0.777  -0.468  0.00  0.00    +0.050 A 
ATOM      8  C   UNL     1       3.978   1.363   0.572  0.00  0.00    +0.029 A 
ATOM      9  C   UNL     1       5.357   1.413   0.524  0.00  0.00    +0.040 A 
ATOM     10  C   UNL     1       6.032   0.890  -0.566  0.00  0.00    +0.124 A 
ATOM     11  C   UNL     1       5.327   0.311  -1.607  0.00  0.00    +0.040 A 
ATOM     12  C   UNL     1       3.947   0.253  -1.559  0.00  0.00    +0.029 A 
ATOM     13  F   UNL     1       7.381   0.946  -0.614  0.00  0.00    -0.205 F 
ENDBRANCH   6   7
BRANCH   5  14
ATOM     14  C   UNL     1       1.361   3.236  -0.505  0.00  0.00    -0.003 C 
ATOM     15  C   UNL     1       1.075   3.763  -1.912  0.00  0.00    -0.005 C 
BRANCH  14  18
ATOM     16  C   UNL     1       0.976   5.399   0.513  0.00  0.00    -0.096 C 
ATOM     17  C   UNL     1      -0.872   3.869   0.185  0.00  0.00    -0.096 C 
ATOM     18  N   UNL     1       0.568   3.978   0.498  0.00  0.00    +0.382 N 
ATOM     19  H   UNL     1       0.740   3.572   1.426  0.00  0.00    -0.082 HD
ENDBRANCH  14  18
ENDBRANCH   5  14
ENDBRANCH   1   2
BRANCH   1  20
ATOM     20  C   UNL     1       0.069  -2.937  -0.205  0.00  0.00    +0.173 C 
BRANCH  20  22
ATOM     21  N   UNL     1      -0.731  -5.275  -0.081  0.00  0.00    -0.308 N 
ATOM     22  C   UNL     1       0.312  -4.424  -0.151  0.00  0.00    +0.224 C 
ATOM     23  O   UNL     1       1.446  -4.854  -0.171  0.00  0.00    -0.275 OA
ATOM     24  H   UNL     1      -1.638  -4.931  -0.065  0.00  0.00    +0.149 HD
BRANCH  21  26
ATOM     25  C   UNL     1      -0.392  -7.271  -1.452  0.00  0.00    +0.033 C 
ATOM     26  C   UNL     1      -0.495  -6.720  -0.029  0.00  0.00    +0.101 C 
BRANCH  26  27
ATOM     27  C   UNL     1      -1.638  -7.390   0.689  0.00  0.00    -0.020 A 
ATOM     28  C   UNL     1      -2.875  -6.822   0.686  0.00  0.00    +0.006 A 
ATOM     29  C   UNL     1      -3.944  -7.427   1.344  0.00  0.00    +0.001 A 
ATOM     30  C   UNL     1      -3.783  -8.604   2.008  0.00  0.00    +0.008 A 
ATOM     31  C   UNL     1      -2.520  -9.221   2.033  0.00  0.00    -0.018 A 
ATOM     32  C   UNL     1      -1.434  -8.608   1.360  0.00  0.00    -0.013 A 
ATOM     33  C   UNL     1      -0.173  -9.228   1.380  0.00  0.00    +0.009 A 
ATOM     34  C   UNL     1      -0.013 -10.407   2.039  0.00  0.00    +0.001 A 
ATOM     35  C   UNL     1      -1.082 -11.012   2.697  0.00  0.00    +0.001 A 
ATOM     36  C   UNL     1      -2.315 -10.436   2.708  0.00  0.00    +0.008 A 
ENDBRANCH  26  27
ENDBRANCH  21  26
ENDBRANCH  20  22
ENDBRANCH   1  20
TORSDOF 8
