REMARK  Name = ZINC11871137
REMARK  9 active torsions:
REMARK  status: ('A' for Active; 'I' for Inactive)
REMARK    1  A    between atoms: C_1  and  O_2
REMARK    2  A    between atoms: O_2  and  C_3
REMARK    3  A    between atoms: C_8  and  C_9
REMARK    4  A    between atoms: C_10  and  C_11
REMARK    5  A    between atoms: C_11  and  N_67
REMARK    6  A    between atoms: C_23  and  N_29
REMARK    7  A    between atoms: C_25  and  O_27
REMARK    8  A    between atoms: O_27  and  C_28
REMARK    9  A    between atoms: C_30  and  C_32
REMARK                            x       y       z     vdW  Elec       q    Type
REMARK                         _______ _______ _______ _____ _____    ______ ____
ROOT
ATOM      1  C   UNL     1      -0.731   1.580   1.267  0.00  0.00    -0.077 C 
ATOM      2  C   UNL     1      -0.013   1.086   0.008  0.00  0.00    -0.005 C 
ATOM      3  C   UNL     1      -0.752   1.592  -1.228  0.00  0.00    +0.021 C 
ATOM      4  C   UNL     1      -2.212   1.148  -1.191  0.00  0.00    -0.005 C 
ATOM      5  C   UNL     1      -2.859   1.640   0.106  0.00  0.00    -0.077 C 
ATOM      6  C   UNL     1      -0.081   1.091  -2.484  0.00  0.00    -0.034 A 
ATOM      7  C   UNL     1       0.409  -0.164  -2.806  0.00  0.00    +0.004 A 
ATOM      8  C   UNL     1       0.993  -0.388  -4.037  0.00  0.00    +0.000 A 
ATOM      9  C   UNL     1       1.090   0.643  -4.953  0.00  0.00    +0.000 A 
ATOM     10  C   UNL     1       0.602   1.895  -4.635  0.00  0.00    +0.006 A 
ATOM     11  C   UNL     1       0.015   2.122  -3.401  0.00  0.00    -0.021 A 
ATOM     12  C   UNL     1      -0.588   3.383  -2.819  0.00  0.00    +0.133 C 
ATOM     13  C   UNL     1      -0.671   3.128  -1.298  0.00  0.00    +0.153 C 
ATOM     14  N   UNL     1      -2.120   1.073   1.255  0.00  0.00    +0.382 N 
ATOM     15  H   UNL     1      -2.100   0.050   1.166  0.00  0.00    -0.081 HD
ENDROOT
BRANCH  12  16
ATOM     16  N   UNL     1      -1.926   3.608  -3.370  0.00  0.00    -0.302 N 
ATOM     17  C   UNL     1      -2.077   4.322  -4.503  0.00  0.00    +0.251 C 
ATOM     18  O   UNL     1      -1.101   4.780  -5.069  0.00  0.00    -0.270 OA
ATOM     19  H   UNL     1      -2.704   3.243  -2.920  0.00  0.00    +0.150 HD
BRANCH  17  20
ATOM     20  C   UNL     1      -3.416   4.546  -5.055  0.00  0.00    +0.074 A 
ATOM     21  C   UNL     1      -3.786   5.243  -6.195  0.00  0.00    +0.021 A 
ATOM     22  C   UNL     1      -5.126   5.300  -6.486  0.00  0.00    +0.008 A 
ATOM     23  C   UNL     1      -6.011   4.683  -5.660  0.00  0.00    +0.046 A 
ATOM     24  S   UNL     1      -4.995   3.988  -4.439  0.00  0.00    -0.092 S 
ENDBRANCH  17  20
ENDBRANCH  12  16
BRANCH  13  25
ATOM     25  O   UNL     1       0.500   3.606  -0.633  0.00  0.00    -0.377 OA
ATOM     26  C   UNL     1       0.353   4.906  -0.060  0.00  0.00    +0.194 C 
ENDBRANCH  13  25
BRANCH  14  27
ATOM     27  C   UNL     1      -2.799   1.431   2.517  0.00  0.00    -0.051 C 
BRANCH  27  29
ATOM     28  C   UNL     1      -1.695   1.313   4.708  0.00  0.00    +0.005 C 
ATOM     29  C   UNL     1      -2.157   0.666   3.646  0.00  0.00    -0.045 C 
BRANCH  28  35
ATOM     30  C   UNL     1      -0.578   1.242   6.936  0.00  0.00    +0.127 A 
ATOM     31  C   UNL     1       0.010   0.530   7.969  0.00  0.00    +0.046 A 
ATOM     32  C   UNL     1       0.113  -0.846   7.891  0.00  0.00    +0.004 A 
ATOM     33  C   UNL     1      -0.370  -1.522   6.783  0.00  0.00    +0.001 A 
ATOM     34  C   UNL     1      -0.962  -0.827   5.749  0.00  0.00    +0.011 A 
ATOM     35  C   UNL     1      -1.066   0.563   5.814  0.00  0.00    +0.016 A 
BRANCH  30  37
ATOM     36  C   UNL     1      -0.158   3.219   8.187  0.00  0.00    +0.277 C 
ATOM     37  O   UNL     1      -0.679   2.595   7.012  0.00  0.00    -0.495 OA
ENDBRANCH  30  37
ENDBRANCH  28  35
ENDBRANCH  27  29
ENDBRANCH  14  27
TORSDOF 7
