REMARK  Name = ZINC62249989
REMARK  5 active torsions:
REMARK  status: ('A' for Active; 'I' for Inactive)
REMARK    1  A    between atoms: C_1  and  N_2
REMARK    2  A    between atoms: C_6  and  C_7
REMARK    3  A    between atoms: C_7  and  N_8
REMARK    4  A    between atoms: N_8  and  C_9
REMARK    5  A    between atoms: N_8  and  C_10
REMARK                            x       y       z     vdW  Elec       q    Type
REMARK                         _______ _______ _______ _____ _____    ______ ____
ROOT
ATOM      1  N   UNL     1       1.406  -0.072   2.937  0.00  0.00    -0.322 N 
ATOM      2  C   UNL     1       1.963   1.272   2.763  0.00  0.00    +0.130 C 
ENDROOT
BRANCH   1   3
ATOM      3  C   UNL     1       2.194  -1.094   3.505  0.00  0.00    +0.089 A 
ATOM      4  C   UNL     1       3.003  -1.946   2.830  0.00  0.00    +0.130 A 
ATOM      5  N   UNL     1       3.583  -2.774   3.741  0.00  0.00    -0.281 N 
ATOM      6  H   UNL     1       4.211  -3.487   3.546  0.00  0.00    +0.188 HD
ATOM      7  N   UNL     1       3.112  -2.416   5.011  0.00  0.00    -0.157 NA
ATOM      8  C   UNL     1       2.285  -1.407   4.874  0.00  0.00    +0.159 A 
ATOM      9  N   UNL     1       1.606  -0.754   5.913  0.00  0.00    -0.340 N 
ATOM     10  H   UNL     1       1.010  -0.016   5.714  0.00  0.00    +0.144 HD
ATOM     11  H   UNL     1       1.733  -1.042   6.830  0.00  0.00    +0.144 HD
ENDBRANCH   1   3
BRANCH   1  12
ATOM     12  C   UNL     1       0.030  -0.354   2.521  0.00  0.00    +0.177 C 
BRANCH  12  18
ATOM     13  C   UNL     1      -0.018   1.461   0.010  0.00  0.00    +0.150 C 
ATOM     14  N   UNL     1       0.002  -0.004   0.002  0.00  0.00    -0.338 N 
ATOM     15  C   UNL     1       0.009  -0.810  -1.104  0.00  0.00    +0.104 A 
ATOM     16  C   UNL     1       0.029  -2.081  -0.660  0.00  0.00    +0.101 A 
ATOM     17  N   UNL     1       0.034  -2.052   0.681  0.00  0.00    -0.348 N 
ATOM     18  C   UNL     1       0.023  -0.811   1.085  0.00  0.00    +0.104 A 
ATOM     19  H   UNL     1       0.048  -2.831   1.260  0.00  0.00    +0.166 HD
ENDBRANCH  12  18
ENDBRANCH   1  12
TORSDOF 3
