REMARK  Name = ZINC53994231
REMARK  6 active torsions:
REMARK  status: ('A' for Active; 'I' for Inactive)
REMARK    1  A    between atoms: C_1  and  C_2
REMARK    2  A    between atoms: N_4  and  C_5
REMARK    3  A    between atoms: C_6  and  N_26
REMARK    4  A    between atoms: N_7  and  C_18
REMARK    5  A    between atoms: C_9  and  S_10
REMARK    6  A    between atoms: S_10  and  C_11
REMARK                            x       y       z     vdW  Elec       q    Type
REMARK                         _______ _______ _______ _____ _____    ______ ____
ROOT
ATOM      1  C   UNL     1       0.226  -2.067  -1.148  0.00  0.00    +0.107 A 
ATOM      2  C   UNL     1       0.624  -2.828  -2.207  0.00  0.00    +0.137 A 
ATOM      3  N   UNL     1       0.543  -4.133  -1.827  0.00  0.00    -0.243 N 
ATOM      4  N   UNL     1       0.085  -4.171  -0.505  0.00  0.00    -0.161 NA
ATOM      5  C   UNL     1      -0.100  -2.937  -0.093  0.00  0.00    +0.146 A 
ENDROOT
BRANCH   3   6
ATOM      6  C   UNL     1       0.876  -5.293  -2.657  0.00  0.00    +0.132 C 
ATOM      7  C   UNL     1       1.996  -6.100  -1.980  0.00  0.00    +0.051 C 
ATOM      8  C   UNL     1       2.111  -7.471  -2.705  0.00  0.00    +0.168 C 
ATOM      9  S   UNL     1       0.330  -7.870  -2.957  0.00  0.00    -0.029 S 
ATOM     10  O   UNL     1      -0.129  -8.648  -1.860  0.00  0.00    -0.174 OA
ATOM     11  O   UNL     1       0.147  -8.352  -4.281  0.00  0.00    -0.174 OA
ATOM     12  C   UNL     1      -0.381  -6.179  -2.829  0.00  0.00    +0.192 C 
ENDBRANCH   3   6
BRANCH   1  16
ATOM     13  C   UNL     1       0.987   1.542  -0.337  0.00  0.00    +0.109 C 
ATOM     14  C   UNL     1       0.957   0.037  -0.275  0.00  0.00    +0.214 C 
ATOM     15  O   UNL     1       1.648  -0.551   0.529  0.00  0.00    -0.276 OA
ATOM     16  N   UNL     1       0.160  -0.656  -1.115  0.00  0.00    -0.281 N 
ATOM     17  H   UNL     1      -0.459  -0.186  -1.695  0.00  0.00    +0.155 HD
ENDBRANCH   1  16
BRANCH   2  18
ATOM     18  N   UNL     1       1.038  -2.356  -3.453  0.00  0.00    -0.342 N 
ATOM     19  H   UNL     1       1.061  -1.402  -3.627  0.00  0.00    +0.144 HD
ATOM     20  H   UNL     1       1.302  -2.982  -4.145  0.00  0.00    +0.144 HD
ENDBRANCH   2  18
BRANCH   5  21
ATOM     21  S   UNL     1      -0.663  -2.456   1.506  0.00  0.00    -0.066 S 
BRANCH  21  22
ATOM     22  C   UNL     1      -0.659  -3.957   2.429  0.00  0.00    +0.014 A 
ATOM     23  C   UNL     1       0.512  -4.401   3.031  0.00  0.00    +0.016 A 
ATOM     24  C   UNL     1       0.512  -5.578   3.754  0.00  0.00    +0.021 A 
ATOM     25  C   UNL     1      -0.653  -6.315   3.879  0.00  0.00    +0.041 A 
ATOM     26  C   UNL     1      -1.821  -5.875   3.280  0.00  0.00    +0.021 A 
ATOM     27  C   UNL     1      -1.828  -4.697   2.561  0.00  0.00    +0.016 A 
ATOM     28 CL   UNL     1      -0.649  -7.793   4.788  0.00  0.00    -0.084 Cl
ENDBRANCH  21  22
ENDBRANCH   5  21
TORSDOF 5
