REMARK  Name = ZINC09203866
REMARK  8 active torsions:
REMARK  status: ('A' for Active; 'I' for Inactive)
REMARK    1  A    between atoms: C_1  and  C_2
REMARK    2  A    between atoms: C_5  and  N_8
REMARK    3  A    between atoms: N_8  and  S_9
REMARK    4  A    between atoms: S_9  and  C_12
REMARK    5  A    between atoms: C_15  and  C_18
REMARK    6  A    between atoms: N_20  and  N_21
REMARK    7  A    between atoms: C_22  and  C_24
REMARK    8  A    between atoms: C_24  and  N_25
REMARK                            x       y       z     vdW  Elec       q    Type
REMARK                         _______ _______ _______ _____ _____    ______ ____
ROOT
ATOM      1  C   UNL     1       0.308   2.284  -0.421  0.00  0.00    +0.260 C 
ATOM      2  O   UNL     1       0.535   1.091  -0.454  0.00  0.00    -0.269 OA
ATOM      3  N   UNL     1       1.325   3.166  -0.490  0.00  0.00    -0.230 N 
ATOM      4  H   UNL     1       1.143   4.119  -0.464  0.00  0.00    +0.173 HD
ENDROOT
BRANCH   1   8
ATOM      5  C   UNL     1      -3.693   3.676  -0.108  0.00  0.00    +0.109 A 
ATOM      6  C   UNL     1      -3.437   2.317  -0.145  0.00  0.00    +0.029 A 
ATOM      7  C   UNL     1      -2.140   1.858  -0.247  0.00  0.00    +0.015 A 
ATOM      8  C   UNL     1      -1.085   2.769  -0.313  0.00  0.00    +0.038 A 
ATOM      9  C   UNL     1      -1.349   4.139  -0.270  0.00  0.00    +0.015 A 
ATOM     10  C   UNL     1      -2.651   4.584  -0.173  0.00  0.00    +0.029 A 
BRANCH   5  11
ATOM     11  S   UNL     1      -5.352   4.254   0.022  0.00  0.00    +0.072 S 
ATOM     12  O   UNL     1      -5.344   5.612  -0.395  0.00  0.00    -0.150 OA
ATOM     13  O   UNL     1      -6.174   3.273  -0.596  0.00  0.00    -0.150 OA
BRANCH  11  14
ATOM     14  N   UNL     1      -5.745   4.255   1.631  0.00  0.00    -0.216 N 
ATOM     15  H   UNL     1      -6.454   3.678   1.957  0.00  0.00    +0.174 HD
BRANCH  14  20
ATOM     16  C   UNL     1      -2.950   7.628   5.231  0.00  0.00    +0.044 C 
ATOM     17  C   UNL     1      -3.693   6.732   4.275  0.00  0.00    -0.050 A 
ATOM     18  C   UNL     1      -4.619   7.272   3.401  0.00  0.00    +0.005 A 
ATOM     19  C   UNL     1      -5.301   6.453   2.523  0.00  0.00    +0.025 A 
ATOM     20  C   UNL     1      -5.057   5.086   2.518  0.00  0.00    +0.048 A 
ATOM     21  C   UNL     1      -4.130   4.546   3.400  0.00  0.00    +0.025 A 
ATOM     22  C   UNL     1      -3.447   5.371   4.272  0.00  0.00    +0.005 A 
ENDBRANCH  14  20
ENDBRANCH  11  14
ENDBRANCH   5  11
ENDBRANCH   1   8
BRANCH   3  23
ATOM     23  N   UNL     1       2.644   2.707  -0.599  0.00  0.00    -0.233 N 
ATOM     24  C   UNL     1       3.661   3.589  -0.667  0.00  0.00    +0.246 C 
ATOM     25  O   UNL     1       3.434   4.780  -0.635  0.00  0.00    -0.273 OA
ATOM     26  H   UNL     1       2.826   1.755  -0.625  0.00  0.00    +0.173 HD
BRANCH  24  27
ATOM     27  C   UNL     1       5.080   3.095  -0.784  0.00  0.00    +0.200 C 
BRANCH  27  28
ATOM     28  N   UNL     1       5.992   4.240  -0.842  0.00  0.00    -0.315 N 
ATOM     29  C   UNL     1       7.353   4.034  -0.950  0.00  0.00    +0.160 A 
ATOM     30  N   UNL     1       8.318   4.922  -1.015  0.00  0.00    -0.225 NA
ATOM     31  C   UNL     1       9.619   4.573  -1.120  0.00  0.00    +0.080 A 
ATOM     32  C   UNL     1      10.747   5.422  -1.197  0.00  0.00    +0.029 A 
ATOM     33  C   UNL     1      12.010   4.901  -1.301  0.00  0.00    +0.002 A 
ATOM     34  C   UNL     1      12.229   3.531  -1.334  0.00  0.00    +0.001 A 
ATOM     35  C   UNL     1      11.148   2.671  -1.261  0.00  0.00    +0.017 A 
ATOM     36  C   UNL     1       9.880   3.185  -1.157  0.00  0.00    +0.041 A 
ATOM     37  S   UNL     1       8.249   2.490  -1.031  0.00  0.00    -0.052 S 
ATOM     38  H   UNL     1       5.640   5.143  -0.803  0.00  0.00    +0.148 HD
ENDBRANCH  27  28
ENDBRANCH  24  27
ENDBRANCH   3  23
TORSDOF 7
