REMARK  Name = ZINC64375925
REMARK  7 active torsions:
REMARK  status: ('A' for Active; 'I' for Inactive)
REMARK    1  A    between atoms: C_6  and  S_7
REMARK    2  A    between atoms: S_7  and  N_10
REMARK    3  A    between atoms: N_10  and  N_11
REMARK    4  A    between atoms: N_14  and  C_15
REMARK    5  A    between atoms: C_15  and  C_16
REMARK    6  A    between atoms: C_16  and  C_17
REMARK    7  A    between atoms: C_17  and  N_18
REMARK                            x       y       z     vdW  Elec       q    Type
REMARK                         _______ _______ _______ _____ _____    ______ ____
ROOT
ATOM      1  N   UNL     1      -1.942  -1.152  -1.571  0.00  0.00    -0.107 NA
ATOM      2  H   UNL     1      -2.786  -0.805  -1.902  0.00  0.00    +0.172 HD
ENDROOT
BRANCH   1   3
ATOM      3  N   UNL     1      -1.090  -1.857  -2.430  0.00  0.00    -0.216 N 
ATOM      4  C   UNL     1      -1.548  -2.933  -3.100  0.00  0.00    +0.315 C 
ATOM      5  O   UNL     1      -0.808  -3.546  -3.846  0.00  0.00    -0.251 OA
ATOM      6  N   UNL     1      -2.827  -3.330  -2.944  0.00  0.00    -0.298 N 
ATOM      7  H   UNL     1      -0.170  -1.572  -2.543  0.00  0.00    +0.172 HD
ATOM      8  H   UNL     1      -3.417  -2.841  -2.349  0.00  0.00    +0.150 HD
BRANCH   6   9
ATOM      9  C   UNL     1      -3.325  -4.499  -3.672  0.00  0.00    +0.107 C 
BRANCH   9  10
ATOM     10  C   UNL     1      -4.795  -4.732  -3.319  0.00  0.00    +0.040 C 
BRANCH  10  11
ATOM     11  C   UNL     1      -5.316  -5.953  -4.079  0.00  0.00    +0.124 C 
BRANCH  11  12
ATOM     12  N   UNL     1      -6.724  -6.176  -3.741  0.00  0.00    -0.338 N 
ATOM     13  C   UNL     1      -7.200  -6.945  -2.713  0.00  0.00    +0.104 A 
ATOM     14  C   UNL     1      -8.544  -6.873  -2.764  0.00  0.00    +0.101 A 
ATOM     15  N   UNL     1      -8.879  -6.082  -3.793  0.00  0.00    -0.352 N 
ATOM     16  C   UNL     1      -7.793  -5.657  -4.380  0.00  0.00    +0.173 A 
ATOM     17  H   UNL     1      -9.785  -5.858  -4.058  0.00  0.00    +0.166 HD
ENDBRANCH  11  12
ENDBRANCH  10  11
ENDBRANCH   9  10
ENDBRANCH   6   9
ENDBRANCH   1   3
BRANCH   1  18
ATOM     18  S   UNL     1      -1.510  -0.909   0.009  0.00  0.00    +0.074 S 
ATOM     19  O   UNL     1      -1.215  -2.189   0.550  0.00  0.00    -0.152 OA
ATOM     20  O   UNL     1      -2.494  -0.051   0.572  0.00  0.00    -0.152 OA
BRANCH  18  26
ATOM     21  C   UNL     1      -0.017   1.378   0.010  0.00  0.00    +0.029 A 
ATOM     22  C   UNL     1       1.171   2.079   0.002  0.00  0.00    +0.006 A 
ATOM     23  C   UNL     1       2.387   1.408  -0.012  0.00  0.00    -0.044 A 
ATOM     24  C   UNL     1       2.406   0.031  -0.014  0.00  0.00    -0.042 A 
ATOM     25  C   UNL     1       1.209  -0.673  -0.010  0.00  0.00    +0.032 A 
ATOM     26  C   UNL     1       0.002  -0.004   0.002  0.00  0.00    +0.107 A 
ATOM     27  C   UNL     1       3.686  -0.762  -0.012  0.00  0.00    +0.035 C 
ATOM     28  C   UNL     1       4.861   0.113  -0.446  0.00  0.00    +0.005 C 
ATOM     29  C   UNL     1       4.847   1.394   0.396  0.00  0.00    +0.005 C 
ATOM     30  C   UNL     1       3.645   2.236  -0.027  0.00  0.00    +0.035 C 
ENDBRANCH  18  26
ENDBRANCH   1  18
TORSDOF 7
