REMARK  Name = ZINC35666531
REMARK  11 active torsions:
REMARK  status: ('A' for Active; 'I' for Inactive)
REMARK    1  A    between atoms: C_1  and  C_2
REMARK    2  A    between atoms: C_2  and  C_3
REMARK    3  A    between atoms: C_3  and  C_5
REMARK    4  A    between atoms: C_3  and  N_26
REMARK    5  A    between atoms: C_9  and  O_24
REMARK    6  A    between atoms: C_10  and  O_22
REMARK    7  A    between atoms: N_18  and  C_19
REMARK    8  A    between atoms: C_19  and  C_20
REMARK    9  A    between atoms: C_19  and  C_21
REMARK   10  A    between atoms: O_22  and  C_23
REMARK   11  A    between atoms: O_24  and  C_25
REMARK                            x       y       z     vdW  Elec       q    Type
REMARK                         _______ _______ _______ _____ _____    ______ ____
ROOT
ATOM      1  C   UNL     1       0.764  -2.045   1.231  0.00  0.00    +0.094 C 
ATOM      2  C   UNL     1       1.673  -2.530   0.130  0.00  0.00    -0.022 A 
ATOM      3  C   UNL     1       1.240  -2.377  -1.180  0.00  0.00    +0.055 A 
ATOM      4  C   UNL     1       2.031  -2.791  -2.235  0.00  0.00    +0.162 A 
ATOM      5  C   UNL     1       3.273  -3.366  -1.978  0.00  0.00    +0.162 A 
ATOM      6  C   UNL     1       3.698  -3.520  -0.672  0.00  0.00    +0.053 A 
ATOM      7  C   UNL     1       2.897  -3.107   0.387  0.00  0.00    -0.037 A 
ATOM      8  C   UNL     1       3.417  -3.334   1.782  0.00  0.00    +0.054 C 
ATOM      9  C   UNL     1       2.698  -2.431   2.784  0.00  0.00    +0.114 C 
ATOM     10  N   UNL     1       1.253  -2.531   2.526  0.00  0.00    -0.280 N 
ATOM     11  C   UNL     1       0.412  -3.047   3.444  0.00  0.00    +0.303 C 
ATOM     12  O   UNL     1       0.829  -3.360   4.542  0.00  0.00    -0.253 OA
ATOM     13  N   UNL     1      -0.891  -3.218   3.144  0.00  0.00    -0.297 N 
ATOM     14  H   UNL     1      -1.239  -2.901   2.296  0.00  0.00    +0.150 HD
ENDROOT
BRANCH  13  15
ATOM     15  C   UNL     1      -1.782  -3.881   4.100  0.00  0.00    +0.068 C 
ATOM     16  C   UNL     1      -2.299  -2.856   5.111  0.00  0.00    +0.027 C 
ATOM     17  C   UNL     1      -2.963  -4.500   3.350  0.00  0.00    +0.027 C 
ENDBRANCH  13  15
BRANCH   5  18
ATOM     18  O   UNL     1       4.063  -3.774  -3.007  0.00  0.00    -0.491 OA
ATOM     19  C   UNL     1       5.324  -4.354  -2.666  0.00  0.00    +0.277 C 
ENDBRANCH   5  18
BRANCH   4  20
ATOM     20  O   UNL     1       1.599  -2.639  -3.516  0.00  0.00    -0.491 OA
ATOM     21  C   UNL     1       0.315  -2.042  -3.701  0.00  0.00    +0.277 C 
ENDBRANCH   4  20
BRANCH   1  22
ATOM     22  C   UNL     1       0.742  -0.515   1.237  0.00  0.00    -0.050 C 
BRANCH  22  23
ATOM     23  N   UNL     1      -0.008  -0.040   2.407  0.00  0.00    +0.381 N 
ATOM     24  H   UNL     1       0.437  -0.373   3.249  0.00  0.00    -0.090 HD
ATOM     25  H   UNL     1      -0.022   0.969   2.411  0.00  0.00    -0.090 HD
ATOM     26  H   UNL     1      -0.954  -0.390   2.365  0.00  0.00    -0.090 HD
ENDBRANCH  22  23
BRANCH  22  28
ATOM     27  C   UNL     1       0.054   1.520  -0.039  0.00  0.00    +0.002 C 
ATOM     28  C   UNL     1       0.068  -0.010  -0.040  0.00  0.00    -0.018 C 
ENDBRANCH  22  28
ENDBRANCH   1  22
TORSDOF 6
