REMARK  Name = ZINC08791057
REMARK  7 active torsions:
REMARK  status: ('A' for Active; 'I' for Inactive)
REMARK    1  A    between atoms: C_1  and  C_2
REMARK    2  A    between atoms: C_7  and  C_8
REMARK    3  A    between atoms: C_17  and  C_19
REMARK    4  A    between atoms: C_19  and  C_20
REMARK    5  A    between atoms: N_25  and  C_28
REMARK    6  A    between atoms: C_28  and  C_29
REMARK    7  A    between atoms: C_29  and  C_30
REMARK                            x       y       z     vdW  Elec       q    Type
REMARK                         _______ _______ _______ _____ _____    ______ ____
ROOT
ATOM      1  C   UNL     1       6.240   2.892  -3.474  0.00  0.00    +0.044 C 
ATOM      2  C   UNL     1       4.867   3.173  -2.921  0.00  0.00    -0.046 A 
ATOM      3  C   UNL     1       3.960   2.140  -2.771  0.00  0.00    +0.004 A 
ATOM      4  C   UNL     1       2.699   2.398  -2.263  0.00  0.00    +0.005 A 
ATOM      5  C   UNL     1       2.349   3.682  -1.908  0.00  0.00    -0.027 A 
ATOM      6  C   UNL     1       3.253   4.730  -2.056  0.00  0.00    +0.039 A 
ATOM      7  C   UNL     1       4.520   4.461  -2.568  0.00  0.00    -0.026 A 
ATOM      8  C   UNL     1       5.515   5.580  -2.736  0.00  0.00    +0.046 C 
ATOM      9  N   UNL     1       2.675   5.929  -1.633  0.00  0.00    -0.286 N 
ATOM     10  C   UNL     1       1.412   5.759  -1.198  0.00  0.00    +0.211 C 
ATOM     11  O   UNL     1       0.669   6.619  -0.774  0.00  0.00    -0.277 OA
ATOM     12  C   UNL     1       1.100   4.294  -1.341  0.00  0.00    +0.050 C 
ATOM     13  C   UNL     1       0.730   3.667   0.009  0.00  0.00    +0.088 C 
ATOM     14  C   UNL     1      -0.824   3.644   0.034  0.00  0.00    +0.073 C 
ATOM     15  C   UNL     1      -1.236   4.274  -1.332  0.00  0.00    -0.049 C 
ATOM     16  C   UNL     1      -1.153   2.169   0.019  0.00  0.00    +0.224 C 
ATOM     17  O   UNL     1      -2.271   1.700   0.018  0.00  0.00    -0.275 OA
ATOM     18  N   UNL     1      -0.018   1.461   0.010  0.00  0.00    -0.241 N 
ATOM     19  C   UNL     1       1.098   2.200   0.003  0.00  0.00    +0.225 C 
ATOM     20  O   UNL     1       2.228   1.761  -0.006  0.00  0.00    -0.275 OA
ATOM     21  H   UNL     1       3.131   6.785  -1.650  0.00  0.00    +0.155 HD
ATOM     22  N   UNL     1      -0.062   4.083  -2.186  0.00  0.00    +0.394 N 
ATOM     23  H   UNL     1      -0.053   3.130  -2.569  0.00  0.00    -0.083 HD
ATOM     24  H   UNL     1      -0.069   4.761  -2.956  0.00  0.00    -0.083 HD
ENDROOT
BRANCH  15  25
ATOM     25  C   UNL     1      -2.463   3.559  -1.901  0.00  0.00    +0.080 C 
BRANCH  25  26
ATOM     26  C   UNL     1      -2.876   4.220  -3.191  0.00  0.00    +0.209 C 
ATOM     27  O   UNL     1      -2.250   5.169  -3.614  0.00  0.00    -0.276 OA
ATOM     28  N   UNL     1      -3.940   3.756  -3.876  0.00  0.00    -0.329 N 
ATOM     29  H   UNL     1      -4.441   2.997  -3.537  0.00  0.00    +0.145 HD
ATOM     30  H   UNL     1      -4.206   4.181  -4.706  0.00  0.00    +0.145 HD
ENDBRANCH  25  26
ENDBRANCH  15  25
BRANCH  18  31
ATOM     31  C   UNL     1       0.002  -0.004   0.002  0.00  0.00    +0.121 C 
BRANCH  31  32
ATOM     32  C   UNL     1       0.023  -0.522   1.442  0.00  0.00    +0.054 C 
BRANCH  32  33
ATOM     33  C   UNL     1       0.043  -2.029   1.433  0.00  0.00    -0.046 A 
ATOM     34  C   UNL     1      -1.144  -2.736   1.447  0.00  0.00    +0.004 A 
ATOM     35  C   UNL     1      -1.126  -4.118   1.435  0.00  0.00    +0.000 A 
ATOM     36  C   UNL     1       0.081  -4.793   1.419  0.00  0.00    +0.000 A 
ATOM     37  C   UNL     1       1.268  -4.086   1.411  0.00  0.00    +0.000 A 
ATOM     38  C   UNL     1       1.250  -2.703   1.418  0.00  0.00    +0.004 A 
ENDBRANCH  32  33
ENDBRANCH  31  32
ENDBRANCH  18  31
TORSDOF 5
