REMARK  Name = ZINC49532576
REMARK  9 active torsions:
REMARK  status: ('A' for Active; 'I' for Inactive)
REMARK    1  A    between atoms: C_1  and  C_2
REMARK    2  A    between atoms: C_4  and  N_10
REMARK    3  A    between atoms: C_7  and  O_8
REMARK    4  A    between atoms: O_8  and  C_9
REMARK    5  A    between atoms: N_10  and  S_11
REMARK    6  A    between atoms: S_11  and  C_14
REMARK    7  A    between atoms: C_17  and  C_19
REMARK    8  A    between atoms: C_19  and  C_20
REMARK    9  A    between atoms: C_20  and  N_21
REMARK                            x       y       z     vdW  Elec       q    Type
REMARK                         _______ _______ _______ _____ _____    ______ ____
ROOT
ATOM      1  S   UNL     1       1.036  -4.080  -2.524  0.00  0.00    +0.079 S 
ATOM      2  O   UNL     1       0.872  -4.618  -3.829  0.00  0.00    -0.149 OA
ATOM      3  O   UNL     1       2.300  -3.659  -2.027  0.00  0.00    -0.149 OA
ENDROOT
BRANCH   1   4
ATOM      4  C   UNL     1       0.431  -5.293  -1.399  0.00  0.00    +0.146 A 
ATOM      5  C   UNL     1      -0.391  -6.343  -1.637  0.00  0.00    +0.037 A 
ATOM      6  C   UNL     1      -0.737  -7.175  -0.589  0.00  0.00    +0.013 A 
ATOM      7  C   UNL     1      -0.244  -6.916   0.647  0.00  0.00    -0.010 A 
ATOM      8  S   UNL     1       0.749  -5.461   0.350  0.00  0.00    -0.073 S 
BRANCH   7   9
ATOM      9  C   UNL     1      -0.470  -7.664   1.935  0.00  0.00    +0.023 C 
BRANCH   9  10
ATOM     10  C   UNL     1       0.598  -8.748   2.089  0.00  0.00    -0.081 C 
BRANCH  10  11
ATOM     11  N   UNL     1       0.378  -9.478   3.345  0.00  0.00    +0.378 N 
ATOM     12  H   UNL     1      -0.536  -9.905   3.330  0.00  0.00    -0.090 HD
ATOM     13  H   UNL     1       1.083 -10.193   3.447  0.00  0.00    -0.090 HD
ATOM     14  H   UNL     1       0.436  -8.836   4.122  0.00  0.00    -0.090 HD
ENDBRANCH  10  11
ENDBRANCH   9  10
ENDBRANCH   7   9
ENDBRANCH   1   4
BRANCH   1  15
ATOM     15  N   UNL     1       0.028  -2.770  -2.422  0.00  0.00    -0.216 N 
ATOM     16  H   UNL     1       0.375  -1.912  -2.132  0.00  0.00    +0.174 HD
BRANCH  15  20
ATOM     17  C   UNL     1      -4.693  -1.916  -1.348  0.00  0.00    +0.047 C 
ATOM     18  C   UNL     1      -3.635  -2.497  -2.251  0.00  0.00    -0.007 A 
ATOM     19  C   UNL     1      -2.300  -2.367  -1.922  0.00  0.00    +0.031 A 
ATOM     20  C   UNL     1      -1.325  -2.902  -2.754  0.00  0.00    +0.049 A 
ATOM     21  C   UNL     1      -1.694  -3.568  -3.916  0.00  0.00    +0.028 A 
ATOM     22  C   UNL     1      -3.030  -3.697  -4.242  0.00  0.00    +0.048 A 
ATOM     23  C   UNL     1      -4.003  -3.166  -3.408  0.00  0.00    +0.123 A 
BRANCH  23  24
ATOM     24  O   UNL     1      -5.318  -3.298  -3.729  0.00  0.00    -0.495 OA
ATOM     25  C   UNL     1      -5.625  -3.999  -4.935  0.00  0.00    +0.277 C 
ENDBRANCH  23  24
ENDBRANCH  15  20
ENDBRANCH   1  15
TORSDOF 7
