REMARK  Name = ZINC40138983
REMARK  6 active torsions:
REMARK  status: ('A' for Active; 'I' for Inactive)
REMARK    1  A    between atoms: C_1  and  C_2
REMARK    2  A    between atoms: N_8  and  C_9
REMARK    3  A    between atoms: C_9  and  C_10
REMARK    4  A    between atoms: C_10  and  C_11
REMARK    5  A    between atoms: C_11  and  N_12
REMARK    6  A    between atoms: N_15  and  C_16
REMARK                            x       y       z     vdW  Elec       q    Type
REMARK                         _______ _______ _______ _____ _____    ______ ____
ROOT
ATOM      1  N   UNL     1       0.108  -8.629  -1.760  0.00  0.00    -0.299 N 
ATOM      2  C   UNL     1       0.116  -9.542  -2.751  0.00  0.00    +0.300 C 
ATOM      3  O   UNL     1       0.105  -9.180  -3.912  0.00  0.00    -0.253 OA
ATOM      4  N   UNL     1       0.135 -10.857  -2.456  0.00  0.00    -0.292 N 
ATOM      5  H   UNL     1       0.117  -8.918  -0.834  0.00  0.00    +0.150 HD
ATOM      6  H   UNL     1       0.143 -11.146  -1.530  0.00  0.00    +0.151 HD
ENDROOT
BRANCH   4   7
ATOM      7  C   UNL     1       0.142 -11.850  -3.533  0.00  0.00    +0.111 C 
ATOM      8  C   UNL     1      -0.450 -13.164  -3.019  0.00  0.00    +0.068 C 
ATOM      9  C   UNL     1      -0.163 -14.259  -4.054  0.00  0.00    +0.231 C 
ATOM     10  O   UNL     1       1.251 -14.450  -4.127  0.00  0.00    -0.492 OA
ATOM     11  C   UNL     1       2.034 -13.349  -4.268  0.00  0.00    +0.125 A 
ATOM     12  C   UNL     1       1.560 -12.078  -3.994  0.00  0.00    +0.015 A 
ATOM     13  C   UNL     1       2.395 -10.985  -4.147  0.00  0.00    +0.009 A 
ATOM     14  C   UNL     1       3.699 -11.157  -4.571  0.00  0.00    +0.001 A 
ATOM     15  C   UNL     1       4.174 -12.425  -4.846  0.00  0.00    +0.004 A 
ATOM     16  C   UNL     1       3.346 -13.517  -4.697  0.00  0.00    +0.046 A 
ENDBRANCH   4   7
BRANCH   1  17
ATOM     17  C   UNL     1       0.088  -7.200  -2.081  0.00  0.00    +0.107 C 
BRANCH  17  18
ATOM     18  C   UNL     1       0.084  -6.386  -0.785  0.00  0.00    +0.037 C 
BRANCH  18  19
ATOM     19  C   UNL     1       0.062  -4.893  -1.120  0.00  0.00    +0.104 C 
BRANCH  19  27
ATOM     20  C   UNL     1      -0.018   1.503   0.010  0.00  0.00    +0.045 C 
ATOM     21  C   UNL     1       0.002  -0.004   0.002  0.00  0.00    -0.034 A 
ATOM     22  C   UNL     1       0.006  -0.699  -1.200  0.00  0.00    +0.008 A 
ATOM     23  C   UNL     1       0.025  -2.081  -1.164  0.00  0.00    +0.042 A 
ATOM     24  C   UNL     1       0.039  -2.725   0.069  0.00  0.00    +0.096 A 
ATOM     25  N   UNL     1       0.035  -2.027   1.194  0.00  0.00    -0.350 N 
ATOM     26  C   UNL     1       0.023  -0.708   1.189  0.00  0.00    +0.087 A 
ATOM     27  N   UNL     1       0.058  -4.114   0.121  0.00  0.00    -0.330 N 
ATOM     28  H   UNL     1       0.068  -4.568   0.978  0.00  0.00    +0.147 HD
ATOM     29  H   UNL     1       0.045  -2.497   2.043  0.00  0.00    +0.167 HD
ENDBRANCH  19  27
ENDBRANCH  18  19
ENDBRANCH  17  18
ENDBRANCH   1  17
TORSDOF 5
