REMARK  Name = ZINC42399444
REMARK  7 active torsions:
REMARK  status: ('A' for Active; 'I' for Inactive)
REMARK    1  A    between atoms: C_1  and  N_2
REMARK    2  A    between atoms: N_2  and  C_3
REMARK    3  A    between atoms: N_2  and  C_14
REMARK    4  A    between atoms: C_3  and  C_4
REMARK    5  A    between atoms: C_9  and  C_10
REMARK    6  A    between atoms: N_11  and  O_12
REMARK    7  A    between atoms: C_14  and  C_15
REMARK                            x       y       z     vdW  Elec       q    Type
REMARK                         _______ _______ _______ _____ _____    ______ ____
ROOT
ATOM      1  C   UNL     1      -0.059  -0.109   2.429  0.00  0.00    -0.053 A 
ATOM      2  C   UNL     1       0.322   0.991   3.170  0.00  0.00    +0.002 A 
ATOM      3  C   UNL     1      -0.386   1.342   4.305  0.00  0.00    +0.000 A 
ATOM      4  C   UNL     1      -1.479   0.595   4.705  0.00  0.00    +0.001 A 
ATOM      5  C   UNL     1      -1.870  -0.507   3.973  0.00  0.00    +0.011 A 
ATOM      6  C   UNL     1      -1.164  -0.864   2.824  0.00  0.00    +0.019 A 
ENDROOT
BRANCH   6   7
ATOM      7  C   UNL     1      -1.582  -2.041   2.029  0.00  0.00    +0.163 C 
ATOM      8  N   UNL     1      -0.919  -2.374   0.961  0.00  0.00    -0.072 NA
ATOM      9  N   UNL     1      -2.679  -2.788   2.424  0.00  0.00    -0.340 N 
ATOM     10  H   UNL     1      -3.174  -2.540   3.220  0.00  0.00    +0.144 HD
ATOM     11  H   UNL     1      -2.953  -3.559   1.903  0.00  0.00    +0.144 HD
BRANCH   8  12
ATOM     12  O   UNL     1      -1.318  -3.500   0.202  0.00  0.00    -0.408 OA
ATOM     13  H   UNL     1      -0.765  -3.668  -0.573  0.00  0.00    +0.328 HD
ENDBRANCH   8  12
ENDBRANCH   6   7
BRANCH   1  14
ATOM     14  C   UNL     1       0.713  -0.491   1.192  0.00  0.00    -0.042 C 
BRANCH  14  16
ATOM     15  C   UNL     1      -0.018   1.465   0.010  0.00  0.00    -0.095 C 
ATOM     16  N   UNL     1       0.002  -0.004   0.002  0.00  0.00    +0.384 N 
ATOM     17  H   UNL     1      -0.945  -0.353   0.009  0.00  0.00    -0.081 HD
BRANCH  16  18
ATOM     18  C   UNL     1       0.690  -0.478  -1.207  0.00  0.00    -0.036 C 
BRANCH  18  19
ATOM     19  C   UNL     1      -0.106  -0.083  -2.424  0.00  0.00    -0.026 A 
ATOM     20  C   UNL     1      -0.021   1.045  -3.170  0.00  0.00    +0.024 A 
ATOM     21  C   UNL     1      -0.862   1.195  -4.258  0.00  0.00    +0.025 A 
ATOM     22  C   UNL     1      -1.746   0.208  -4.545  0.00  0.00    +0.060 A 
ATOM     23  S   UNL     1      -1.399  -0.984  -3.263  0.00  0.00    -0.102 S 
ATOM     24 BR   UNL     1      -0.780   2.752  -5.327  0.00  0.00    -0.050 Br
ENDBRANCH  18  19
ENDBRANCH  16  18
ENDBRANCH  14  16
ENDBRANCH   1  14
TORSDOF 6
