REMARK  Name = ZINC09605757
REMARK  11 active torsions:
REMARK  status: ('A' for Active; 'I' for Inactive)
REMARK    1  A    between atoms: C_1  and  C_2
REMARK    2  A    between atoms: C_2  and  O_3
REMARK    3  A    between atoms: O_3  and  C_4
REMARK    4  A    between atoms: C_7  and  S_27
REMARK    5  A    between atoms: C_9  and  N_10
REMARK    6  A    between atoms: C_11  and  C_13
REMARK    7  A    between atoms: C_13  and  N_65
REMARK    8  A    between atoms: C_14  and  C_16
REMARK    9  A    between atoms: C_14  and  C_17
REMARK   10  A    between atoms: C_14  and  N_65
REMARK   11  A    between atoms: S_27  and  N_30
REMARK                            x       y       z     vdW  Elec       q    Type
REMARK                         _______ _______ _______ _____ _____    ______ ____
ROOT
ATOM      1  N   UNL     1      -3.493   0.532   3.693  0.00  0.00    -0.284 N 
ATOM      2  C   UNL     1      -3.364  -0.797   3.511  0.00  0.00    +0.200 C 
ATOM      3  O   UNL     1      -2.393  -1.238   2.934  0.00  0.00    -0.278 OA
ATOM      4  H   UNL     1      -4.227   0.880   4.223  0.00  0.00    +0.155 HD
ENDROOT
BRANCH   1  10
ATOM      5  C   UNL     1      -2.359   2.671   3.673  0.00  0.00    +0.142 A 
ATOM      6  C   UNL     1      -1.442   3.536   3.097  0.00  0.00    +0.049 A 
ATOM      7  C   UNL     1      -0.735   3.147   1.975  0.00  0.00    +0.032 A 
ATOM      8  C   UNL     1      -0.946   1.900   1.417  0.00  0.00    +0.107 A 
ATOM      9  C   UNL     1      -1.858   1.031   1.985  0.00  0.00    +0.055 A 
ATOM     10  C   UNL     1      -2.568   1.412   3.115  0.00  0.00    +0.077 A 
BRANCH   8  11
ATOM     11  S   UNL     1      -0.045   1.414  -0.017  0.00  0.00    +0.061 S 
ATOM     12  O   UNL     1      -0.023  -0.006  -0.021  0.00  0.00    -0.153 OA
ATOM     13  O   UNL     1       1.141   2.195  -0.035  0.00  0.00    -0.153 OA
BRANCH  11  14
ATOM     14  N   UNL     1      -0.936   1.877  -1.335  0.00  0.00    -0.172 NA
ATOM     15  C   UNL     1      -1.929   0.970  -1.933  0.00  0.00    +0.137 C 
ATOM     16  C   UNL     1      -3.253   1.738  -2.079  0.00  0.00    +0.177 C 
ATOM     17  O   UNL     1      -3.010   2.963  -2.775  0.00  0.00    -0.377 OA
ATOM     18  C   UNL     1      -2.131   3.860  -2.093  0.00  0.00    +0.177 C 
ATOM     19  C   UNL     1      -0.754   3.203  -1.944  0.00  0.00    +0.137 C 
ENDBRANCH  11  14
ENDBRANCH   8  11
BRANCH   5  20
ATOM     20  O   UNL     1      -3.052   3.050   4.779  0.00  0.00    -0.490 OA
BRANCH  20  22
ATOM     21  C   UNL     1      -3.653   4.600   6.533  0.00  0.00    +0.048 C 
ATOM     22  C   UNL     1      -2.785   4.355   5.296  0.00  0.00    +0.226 C 
ENDBRANCH  20  22
ENDBRANCH   5  20
ENDBRANCH   1  10
BRANCH   2  23
ATOM     23  C   UNL     1      -4.425  -1.735   4.026  0.00  0.00    +0.016 C 
BRANCH  23  24
ATOM     24  N   UNL     1      -4.043  -3.122   3.700  0.00  0.00    +0.389 N 
ATOM     25  H   UNL     1      -3.143  -3.339   4.142  0.00  0.00    -0.084 HD
ATOM     26  H   UNL     1      -3.957  -3.219   2.682  0.00  0.00    -0.084 HD
BRANCH  24  27
ATOM     27  C   UNL     1      -5.066  -4.064   4.193  0.00  0.00    -0.043 C 
ATOM     28  C   UNL     1      -4.788  -4.398   5.660  0.00  0.00    -0.009 C 
BRANCH  27  29
ATOM     29  C   UNL     1      -5.014  -5.326   3.372  0.00  0.00    -0.054 A 
ATOM     30  C   UNL     1      -3.865  -5.680   2.734  0.00  0.00    +0.002 A 
ATOM     31  C   UNL     1      -3.797  -6.843   1.970  0.00  0.00    +0.001 A 
ATOM     32  C   UNL     1      -4.878  -7.660   1.839  0.00  0.00    +0.008 A 
ATOM     33  C   UNL     1      -6.082  -7.327   2.483  0.00  0.00    -0.018 A 
ATOM     34  C   UNL     1      -6.149  -6.146   3.264  0.00  0.00    -0.016 A 
ATOM     35  C   UNL     1      -7.352  -5.817   3.913  0.00  0.00    +0.009 A 
ATOM     36  C   UNL     1      -8.431  -6.636   3.787  0.00  0.00    +0.001 A 
ATOM     37  C   UNL     1      -8.364  -7.800   3.023  0.00  0.00    +0.001 A 
ATOM     38  C   UNL     1      -7.220  -8.145   2.372  0.00  0.00    +0.008 A 
ENDBRANCH  27  29
ENDBRANCH  24  27
ENDBRANCH  23  24
ENDBRANCH   2  23
TORSDOF 9
