REMARK  Name = ZINC30881648
REMARK  9 active torsions:
REMARK  status: ('A' for Active; 'I' for Inactive)
REMARK    1  A    between atoms: C_1  and  C_2
REMARK    2  A    between atoms: C_4  and  C_29
REMARK    3  A    between atoms: C_6  and  C_26
REMARK    4  A    between atoms: C_9  and  C_11
REMARK    5  A    between atoms: C_11  and  C_12
REMARK    6  A    between atoms: C_26  and  C_27
REMARK    7  A    between atoms: C_26  and  C_28
REMARK    8  A    between atoms: C_29  and  N_30
REMARK    9  A    between atoms: N_33  and  C_34
REMARK                            x       y       z     vdW  Elec       q    Type
REMARK                         _______ _______ _______ _____ _____    ______ ____
ROOT
ATOM      1  C   UNL     1      -2.093   3.578  -2.601  0.00  0.00    +0.039 C 
ATOM      2  C   UNL     1      -1.518   2.771  -1.466  0.00  0.00    -0.073 C 
ATOM      3  C   UNL     1      -1.671   3.220  -0.262  0.00  0.00    -0.022 C 
ATOM      4  C   UNL     1      -1.147   2.534   0.966  0.00  0.00    +0.032 C 
ATOM      5  C   UNL     1      -0.801   1.078   0.652  0.00  0.00    +0.000 C 
ATOM      6  C   UNL     1       0.058   1.046  -0.619  0.00  0.00    +0.012 C 
ATOM      7  C   UNL     1      -0.803   1.495  -1.802  0.00  0.00    +0.023 C 
ENDROOT
BRANCH   5   8
ATOM      8  C   UNL     1      -0.018   0.469   1.817  0.00  0.00    -0.013 C 
ATOM      9  C   UNL     1       0.223  -1.018   1.548  0.00  0.00    +0.007 C 
ATOM     10  C   UNL     1       1.326   1.186   1.959  0.00  0.00    +0.007 C 
ENDBRANCH   5   8
BRANCH   7  11
ATOM     11  C   UNL     1      -1.830   0.407  -2.123  0.00  0.00    +0.103 C 
BRANCH  11  12
ATOM     12  C   UNL     1      -1.122  -0.810  -2.659  0.00  0.00    +0.216 C 
ATOM     13  O   UNL     1       0.087  -0.815  -2.755  0.00  0.00    -0.276 OA
ATOM     14  N   UNL     1      -1.833  -1.894  -3.031  0.00  0.00    -0.298 N 
ATOM     15  C   UNL     1      -3.299  -1.911  -2.916  0.00  0.00    +0.126 C 
ATOM     16  C   UNL     1      -3.883  -2.346  -4.269  0.00  0.00    +0.125 C 
ATOM     17  N   UNL     1      -3.277  -3.623  -4.670  0.00  0.00    -0.314 N 
ATOM     18  C   UNL     1      -1.829  -3.484  -4.879  0.00  0.00    +0.125 C 
ATOM     19  C   UNL     1      -1.161  -3.092  -3.556  0.00  0.00    +0.126 C 
ATOM     20  C   UNL     1      -3.896  -4.134  -5.805  0.00  0.00    +0.099 A 
ATOM     21  C   UNL     1      -5.272  -4.340  -5.805  0.00  0.00    +0.042 A 
ATOM     22  C   UNL     1      -5.876  -4.849  -6.941  0.00  0.00    +0.005 A 
ATOM     23  C   UNL     1      -5.080  -5.137  -8.042  0.00  0.00    +0.018 A 
ATOM     24  C   UNL     1      -3.721  -4.908  -7.972  0.00  0.00    +0.084 A 
ATOM     25  N   UNL     1      -3.173  -4.416  -6.877  0.00  0.00    -0.350 N 
ATOM     26  H   UNL     1      -2.087  -4.241  -6.869  0.00  0.00    +0.166 HD
ENDBRANCH  11  12
ENDBRANCH   7  11
BRANCH   4  27
ATOM     27  C   UNL     1      -2.212   2.575   2.063  0.00  0.00    +0.113 C 
BRANCH  27  28
ATOM     28  N   UNL     1      -2.434   3.963   2.477  0.00  0.00    -0.299 N 
ATOM     29  C   UNL     1      -3.335   4.244   3.439  0.00  0.00    +0.304 C 
ATOM     30  O   UNL     1      -3.964   3.345   3.964  0.00  0.00    -0.253 OA
ATOM     31  N   UNL     1      -3.539   5.520   3.820  0.00  0.00    -0.269 N 
ATOM     32  H   UNL     1      -1.865   4.776   2.003  0.00  0.00    +0.150 HD
ATOM     33  H   UNL     1      -2.916   6.325   3.402  0.00  0.00    +0.156 HD
BRANCH  31  34
ATOM     34  C   UNL     1      -4.543   5.822   4.747  0.00  0.00    +0.035 A 
ATOM     35  C   UNL     1      -5.263   7.004   4.633  0.00  0.00    +0.023 A 
ATOM     36  C   UNL     1      -6.256   7.297   5.546  0.00  0.00    +0.002 A 
ATOM     37  C   UNL     1      -6.528   6.419   6.580  0.00  0.00    +0.000 A 
ATOM     38  C   UNL     1      -5.809   5.244   6.699  0.00  0.00    +0.002 A 
ATOM     39  C   UNL     1      -4.818   4.943   5.786  0.00  0.00    +0.023 A 
ENDBRANCH  31  34
ENDBRANCH  27  28
ENDBRANCH   4  27
TORSDOF 6
