REMARK  Name = ZINC41070090
REMARK  5 active torsions:
REMARK  status: ('A' for Active; 'I' for Inactive)
REMARK    1  A    between atoms: C_1  and  C_2
REMARK    2  A    between atoms: N_8  and  S_9
REMARK    3  A    between atoms: S_9  and  C_12
REMARK    4  A    between atoms: C_17  and  N_18
REMARK    5  A    between atoms: N_18  and  N_19
REMARK                            x       y       z     vdW  Elec       q    Type
REMARK                         _______ _______ _______ _____ _____    ______ ____
ROOT
ATOM      1  C   UNL     1      -0.339   0.352   3.601  0.00  0.00    +0.147 A 
ATOM      2  C   UNL     1      -0.023  -0.015   4.896  0.00  0.00    +0.048 A 
ATOM      3  C   UNL     1      -1.047  -0.091   5.832  0.00  0.00    +0.038 A 
ATOM      4  C   UNL     1      -2.340   0.199   5.444  0.00  0.00    +0.128 A 
ATOM      5  N   UNL     1      -2.612   0.546   4.201  0.00  0.00    -0.236 NA
ATOM      6  C   UNL     1      -1.663   0.636   3.282  0.00  0.00    +0.159 A 
ATOM      7 BR   UNL     1      -0.673  -0.588   7.618  0.00  0.00    -0.049 Br
ENDROOT
BRANCH   1   8
ATOM      8  S   UNL     1       0.919   0.466   2.373  0.00  0.00    +0.065 S 
ATOM      9  O   UNL     1       2.135   0.079   2.999  0.00  0.00    -0.153 OA
ATOM     10  O   UNL     1       0.756   1.728   1.739  0.00  0.00    -0.153 OA
BRANCH   8  17
ATOM     11  C   UNL     1       1.292  -2.303   2.934  0.00  0.00    +0.028 C 
ATOM     12  C   UNL     1       0.899  -2.103   1.468  0.00  0.00    +0.102 C 
ATOM     13  C   UNL     1      -0.352  -2.931   1.152  0.00  0.00    +0.180 C 
ATOM     14  O   UNL     1      -0.819  -2.596  -0.157  0.00  0.00    -0.377 OA
ATOM     15  C   UNL     1      -1.225  -1.233  -0.303  0.00  0.00    +0.177 C 
ATOM     16  C   UNL     1      -0.019  -0.319  -0.061  0.00  0.00    +0.138 C 
ATOM     17  N   UNL     1       0.591  -0.684   1.227  0.00  0.00    -0.169 NA
ENDBRANCH   8  17
ENDBRANCH   1   8
BRANCH   6  18
ATOM     18  N   UNL     1      -1.993   1.013   1.985  0.00  0.00    -0.266 N 
ATOM     19  H   UNL     1      -1.293   1.185   1.336  0.00  0.00    +0.167 HD
BRANCH  18  20
ATOM     20  N   UNL     1      -3.304   1.140   1.623  0.00  0.00    -0.255 NA
ATOM     21  H   UNL     1      -3.785   1.788   2.229  0.00  0.00    +0.140 HD
ATOM     22  H   UNL     1      -3.388   1.417   0.657  0.00  0.00    +0.140 HD
ENDBRANCH  18  20
ENDBRANCH   6  18
TORSDOF 4
