REMARK  Name = ZINC15499937
REMARK  13 active torsions:
REMARK  status: ('A' for Active; 'I' for Inactive)
REMARK    1  A    between atoms: C_1  and  C_2
REMARK    2  A    between atoms: C_5  and  O_27
REMARK    3  A    between atoms: C_6  and  C_8
REMARK    4  A    between atoms: C_8  and  C_10
REMARK    5  A    between atoms: C_8  and  N_52
REMARK    6  A    between atoms: C_11  and  C_13
REMARK    7  A    between atoms: C_11  and  C_14
REMARK    8  A    between atoms: C_11  and  N_52
REMARK    9  A    between atoms: C_14  and  C_16
REMARK   10  A    between atoms: C_17  and  N_26
REMARK   11  A    between atoms: N_18  and  C_25
REMARK   12  A    between atoms: N_21  and  C_24
REMARK   13  A    between atoms: O_27  and  C_28
REMARK                            x       y       z     vdW  Elec       q    Type
REMARK                         _______ _______ _______ _____ _____    ______ ____
ROOT
ATOM      1  C   UNL     1      -2.539   4.013  -0.342  0.00  0.00    -0.001 C 
ATOM      2  C   UNL     1      -2.375   3.391  -1.730  0.00  0.00    -0.006 C 
ENDROOT
BRANCH   1   3
ATOM      3  N   UNL     1      -1.442   3.559   0.533  0.00  0.00    +0.390 N 
ATOM      4  H   UNL     1      -0.584   3.462  -0.022  0.00  0.00    -0.084 HD
ATOM      5  H   UNL     1      -1.292   4.252   1.276  0.00  0.00    -0.084 HD
BRANCH   3   6
ATOM      6  C   UNL     1      -1.777   2.258   1.142  0.00  0.00    -0.040 C 
ATOM      7  C   UNL     1      -2.608   2.486   2.407  0.00  0.00    -0.009 C 
BRANCH   6  13
ATOM      8  C   UNL     1       3.088   2.375   2.304  0.00  0.00    +0.044 C 
ATOM      9  C   UNL     1       1.825   1.591   2.054  0.00  0.00    -0.050 A 
ATOM     10  C   UNL     1       1.839   0.212   2.149  0.00  0.00    +0.007 A 
ATOM     11  C   UNL     1       0.682  -0.509   1.921  0.00  0.00    +0.046 A 
ATOM     12  C   UNL     1      -0.493   0.153   1.596  0.00  0.00    +0.122 A 
ATOM     13  C   UNL     1      -0.504   1.537   1.501  0.00  0.00    -0.020 A 
ATOM     14  C   UNL     1       0.655   2.253   1.730  0.00  0.00    +0.009 A 
BRANCH  12  15
ATOM     15  O   UNL     1      -1.632  -0.553   1.372  0.00  0.00    -0.495 OA
ATOM     16  C   UNL     1      -1.547  -1.975   1.488  0.00  0.00    +0.277 C 
ENDBRANCH  12  15
ENDBRANCH   6  13
ENDBRANCH   3   6
ENDBRANCH   1   3
BRANCH   1  17
ATOM     17  C   UNL     1      -2.492   5.515  -0.456  0.00  0.00    +0.158 C 
ATOM     18  O   UNL     1      -1.468   6.112  -0.190  0.00  0.00    -0.294 OA
BRANCH  17  19
ATOM     19  C   UNL     1      -3.637   6.227  -0.871  0.00  0.00    +0.118 A 
ATOM     20  C   UNL     1      -3.583   7.611  -1.113  0.00  0.00    +0.116 A 
ATOM     21  N   UNL     1      -4.716   8.256  -1.519  0.00  0.00    -0.284 N 
ATOM     22  C   UNL     1      -5.875   7.597  -1.679  0.00  0.00    +0.333 A 
ATOM     23  O   UNL     1      -6.856   8.217  -2.037  0.00  0.00    -0.246 OA
ATOM     24  N   UNL     1      -5.989   6.277  -1.457  0.00  0.00    -0.263 N 
ATOM     25  C   UNL     1      -4.926   5.548  -1.058  0.00  0.00    +0.269 A 
ATOM     26  O   UNL     1      -5.032   4.352  -0.859  0.00  0.00    -0.267 OA
ATOM     27  C   UNL     1      -7.284   5.621  -1.649  0.00  0.00    +0.157 C 
ATOM     28  C   UNL     1      -4.668   9.696  -1.780  0.00  0.00    +0.155 C 
BRANCH  20  29
ATOM     29  N   UNL     1      -2.418   8.296  -0.952  0.00  0.00    -0.344 N 
ATOM     30  H   UNL     1      -1.571   7.823  -0.969  0.00  0.00    +0.144 HD
ATOM     31  H   UNL     1      -2.435   9.256  -0.819  0.00  0.00    +0.144 HD
ENDBRANCH  20  29
ENDBRANCH  17  19
ENDBRANCH   1  17
TORSDOF 7
