REMARK  Name = ZINC38748348
REMARK  8 active torsions:
REMARK  status: ('A' for Active; 'I' for Inactive)
REMARK    1  A    between atoms: C_1  and  C_2
REMARK    2  A    between atoms: C_7  and  N_8
REMARK    3  A    between atoms: C_9  and  C_11
REMARK    4  A    between atoms: C_11  and  S_12
REMARK    5  A    between atoms: S_12  and  C_13
REMARK    6  A    between atoms: C_17  and  C_21
REMARK    7  A    between atoms: N_19  and  N_20
REMARK    8  A    between atoms: C_24  and  C_27
REMARK                            x       y       z     vdW  Elec       q    Type
REMARK                         _______ _______ _______ _____ _____    ______ ____
ROOT
ATOM      1  C   UNL     1       0.496  -0.461   7.974  0.00  0.00    +0.214 C 
ATOM      2  N   UNL     1      -0.525   0.602   8.113  0.00  0.00    -0.228 NA
ATOM      3  N   UNL     1       0.176   1.698   8.800  0.00  0.00    -0.234 NA
ATOM      4  C   UNL     1       1.535   1.655   8.200  0.00  0.00    +0.185 C 
ATOM      5  N   UNL     1       1.812   0.209   8.029  0.00  0.00    -0.197 NA
ATOM      6  H   UNL     1      -1.312   0.279   8.657  0.00  0.00    +0.143 HD
ATOM      7  H   UNL     1      -0.272   2.584   8.619  0.00  0.00    +0.143 HD
ENDROOT
BRANCH   4   8
ATOM      8  C   UNL     1       2.558   2.290   9.145  0.00  0.00    +0.186 C 
ATOM      9  C   UNL     1       2.189   3.732   9.445  0.00  0.00    +0.029 C 
ATOM     10  C   UNL     1       3.222   4.433   8.973  0.00  0.00    +0.058 C 
ATOM     11  N   UNL     1       4.152   3.613   8.435  0.00  0.00    -0.159 NA
ATOM     12  N   UNL     1       3.870   2.409   8.488  0.00  0.00    -0.177 NA
ATOM     13  C   UNL     1       3.336   5.934   9.031  0.00  0.00    +0.067 C 
ENDBRANCH   4   8
BRANCH   5  14
ATOM     14  N   UNL     1       2.572  -0.036   6.814  0.00  0.00    -0.264 NA
ATOM     15  H   UNL     1       2.671  -1.026   6.643  0.00  0.00    +0.137 HD
ATOM     16  H   UNL     1       2.150   0.427   6.024  0.00  0.00    +0.137 HD
ENDBRANCH   5  14
BRANCH   1  17
ATOM     17  S   UNL     1       0.296  -1.311   6.384  0.00  0.00    -0.115 S 
BRANCH  17  18
ATOM     18  C   UNL     1      -1.104  -2.431   6.658  0.00  0.00    +0.168 C 
BRANCH  18  20
ATOM     19  N   UNL     1      -2.292  -4.209   5.415  0.00  0.00    -0.285 N 
ATOM     20  C   UNL     1      -1.302  -3.295   5.439  0.00  0.00    +0.227 C 
ATOM     21  O   UNL     1      -0.570  -3.168   4.480  0.00  0.00    -0.275 OA
ATOM     22  H   UNL     1      -2.920  -4.264   6.152  0.00  0.00    +0.155 HD
BRANCH  19  29
ATOM     23  C   UNL     1      -3.221  -6.853   5.905  0.00  0.00    +0.045 C 
ATOM     24  C   UNL     1      -2.864  -6.378   4.520  0.00  0.00    -0.029 A 
ATOM     25  C   UNL     1      -2.990  -7.234   3.442  0.00  0.00    +0.006 A 
ATOM     26  C   UNL     1      -2.662  -6.799   2.172  0.00  0.00    +0.020 A 
ATOM     27  C   UNL     1      -2.208  -5.506   1.974  0.00  0.00    +0.043 A 
ATOM     28  C   UNL     1      -2.081  -4.646   3.049  0.00  0.00    +0.043 A 
ATOM     29  C   UNL     1      -2.414  -5.079   4.326  0.00  0.00    +0.038 A 
ATOM     30 CL   UNL     1      -1.798  -4.965   0.377  0.00  0.00    -0.083 Cl
ENDBRANCH  19  29
ENDBRANCH  18  20
ENDBRANCH  17  18
ENDBRANCH   1  17
TORSDOF 6
