REMARK  Name = ZINC56443353
REMARK  8 active torsions:
REMARK  status: ('A' for Active; 'I' for Inactive)
REMARK    1  A    between atoms: C_1  and  N_2
REMARK    2  A    between atoms: N_2  and  C_3
REMARK    3  A    between atoms: N_2  and  C_22
REMARK    4  A    between atoms: C_3  and  C_4
REMARK    5  A    between atoms: C_9  and  N_10
REMARK    6  A    between atoms: C_11  and  C_13
REMARK    7  A    between atoms: C_16  and  S_18
REMARK    8  A    between atoms: S_18  and  N_21
REMARK                            x       y       z     vdW  Elec       q    Type
REMARK                         _______ _______ _______ _____ _____    ______ ____
ROOT
ATOM      1  C   UNL     1      -2.081  -0.122  -1.270  0.00  0.00    -0.043 A 
ATOM      2  C   UNL     1      -2.940   0.960  -1.290  0.00  0.00    +0.003 A 
ATOM      3  C   UNL     1      -3.578   1.316  -2.464  0.00  0.00    +0.000 A 
ATOM      4  C   UNL     1      -3.359   0.592  -3.621  0.00  0.00    +0.002 A 
ATOM      5  C   UNL     1      -2.502  -0.491  -3.608  0.00  0.00    +0.023 A 
ATOM      6  C   UNL     1      -1.854  -0.848  -2.432  0.00  0.00    +0.035 A 
ENDROOT
BRANCH   6   7
ATOM      7  N   UNL     1      -0.981  -1.940  -2.417  0.00  0.00    -0.279 N 
ATOM      8  C   UNL     1      -0.374  -2.333  -3.554  0.00  0.00    +0.284 C 
ATOM      9  O   UNL     1      -0.507  -1.680  -4.572  0.00  0.00    -0.266 OA
ATOM     10  H   UNL     1      -0.811  -2.414  -1.588  0.00  0.00    +0.155 HD
BRANCH   8  11
ATOM     11  C   UNL     1       0.446  -3.549  -3.565  0.00  0.00    +0.192 A 
ATOM     12  C   UNL     1       1.116  -4.055  -4.642  0.00  0.00    +0.057 A 
ATOM     13  C   UNL     1       1.764  -5.220  -4.203  0.00  0.00    +0.072 A 
ATOM     14  C   UNL     1       1.464  -5.372  -2.894  0.00  0.00    +0.258 A 
ATOM     15  O   UNL     1       0.674  -4.360  -2.512  0.00  0.00    -0.432 OA
BRANCH  14  16
ATOM     16  S   UNL     1       2.025  -6.683  -1.858  0.00  0.00    +0.089 S 
ATOM     17  O   UNL     1       1.087  -6.792  -0.796  0.00  0.00    -0.150 OA
ATOM     18  O   UNL     1       2.335  -7.773  -2.715  0.00  0.00    -0.150 OA
BRANCH  16  19
ATOM     19  N   UNL     1       3.454  -6.194  -1.180  0.00  0.00    -0.201 NA
ATOM     20  H   UNL     1       3.817  -5.319  -1.391  0.00  0.00    +0.144 HD
ATOM     21  H   UNL     1       3.928  -6.781  -0.571  0.00  0.00    +0.144 HD
ENDBRANCH  16  19
ENDBRANCH  14  16
ENDBRANCH   8  11
ENDBRANCH   6   7
BRANCH   1  22
ATOM     22  C   UNL     1      -1.386  -0.510   0.009  0.00  0.00    -0.041 C 
BRANCH  22  24
ATOM     23  C   UNL     1      -0.043   1.478   0.001  0.00  0.00    -0.095 C 
ATOM     24  N   UNL     1      -0.011   0.009  -0.003  0.00  0.00    +0.382 N 
ATOM     25  H   UNL     1       0.463  -0.314  -0.833  0.00  0.00    -0.081 HD
BRANCH  24  26
ATOM     26  C   UNL     1       0.704  -0.469   1.188  0.00  0.00    -0.069 C 
ATOM     27  C   UNL     1       2.135   0.072   1.175  0.00  0.00    -0.015 C 
ATOM     28  C   UNL     1       2.879  -0.426   2.415  0.00  0.00    -0.002 C 
ATOM     29  C   UNL     1       2.912  -1.956   2.410  0.00  0.00    -0.000 C 
ATOM     30  C   UNL     1       1.481  -2.496   2.423  0.00  0.00    -0.002 C 
ATOM     31  C   UNL     1       0.736  -1.998   1.183  0.00  0.00    -0.015 C 
ENDBRANCH  24  26
ENDBRANCH  22  24
ENDBRANCH   1  22
TORSDOF 7
