REMARK  Name = ZINC20832735
REMARK  13 active torsions:
REMARK  status: ('A' for Active; 'I' for Inactive)
REMARK    1  A    between atoms: C_1  and  C_2
REMARK    2  A    between atoms: C_2  and  C_32
REMARK    3  A    between atoms: C_4  and  N_10
REMARK    4  A    between atoms: C_6  and  C_8
REMARK    5  A    between atoms: C_6  and  C_9
REMARK    6  A    between atoms: C_11  and  C_13
REMARK    7  A    between atoms: C_13  and  S_14
REMARK    8  A    between atoms: S_14  and  C_15
REMARK    9  A    between atoms: N_20  and  N_21
REMARK   10  A    between atoms: C_22  and  C_23
REMARK   11  A    between atoms: C_26  and  N_29
REMARK   12  A    between atoms: N_29  and  C_30
REMARK   13  A    between atoms: N_29  and  C_31
REMARK                            x       y       z     vdW  Elec       q    Type
REMARK                         _______ _______ _______ _____ _____    ______ ____
ROOT
ATOM      1  C   UNL     1      -8.214   2.043   0.091  0.00  0.00    +0.211 A 
ATOM      2  N   UNL     1      -7.289   1.039   0.064  0.00  0.00    -0.186 NA
ATOM      3  C   UNL     1      -6.046   1.609   0.061  0.00  0.00    +0.232 A 
ATOM      4  N   UNL     1      -6.198   2.911   0.090  0.00  0.00    -0.245 N 
ATOM      5  N   UNL     1      -7.571   3.187   0.103  0.00  0.00    -0.144 NA
ATOM      6  N   UNL     1      -4.837   0.929   0.037  0.00  0.00    -0.205 N 
ATOM      7  H   UNL     1      -4.824  -0.170   0.019  0.00  0.00    +0.177 HD
ATOM      8  H   UNL     1      -5.315   3.568   0.099  0.00  0.00    +0.192 HD
ENDROOT
BRANCH   6   9
ATOM      9  N   UNL     1      -3.632   1.644   0.037  0.00  0.00    -0.188 NA
ATOM     10  C   UNL     1      -2.500   1.007   0.015  0.00  0.00    +0.138 C 
BRANCH  10  11
ATOM     11  C   UNL     1      -1.232   1.759   0.014  0.00  0.00    -0.005 A 
ATOM     12  C   UNL     1      -0.013   1.076  -0.010  0.00  0.00    +0.011 A 
ATOM     13  C   UNL     1       1.170   1.782  -0.016  0.00  0.00    +0.024 A 
ATOM     14  C   UNL     1       1.153   3.172   0.006  0.00  0.00    +0.029 A 
ATOM     15  C   UNL     1      -0.058   3.855   0.036  0.00  0.00    +0.024 A 
ATOM     16  C   UNL     1      -1.246   3.156   0.043  0.00  0.00    +0.011 A 
BRANCH  14  17
ATOM     17  N   UNL     1       2.353   3.884  -0.001  0.00  0.00    -0.336 N 
ATOM     18  C   UNL     1       3.629   3.170   0.094  0.00  0.00    +0.129 C 
ATOM     19  C   UNL     1       2.338   5.345  -0.104  0.00  0.00    +0.129 C 
ENDBRANCH  14  17
ENDBRANCH  10  11
ENDBRANCH   6   9
BRANCH   1  20
ATOM     20  S   UNL     1      -9.964   1.839   0.106  0.00  0.00    -0.075 S 
BRANCH  20  21
ATOM     21  C   UNL     1     -10.604   3.536   0.141  0.00  0.00    +0.173 C 
BRANCH  21  23
ATOM     22  N   UNL     1     -12.808   4.657   0.183  0.00  0.00    -0.312 N 
ATOM     23  C   UNL     1     -12.111   3.505   0.157  0.00  0.00    +0.224 C 
ATOM     24  O   UNL     1     -12.695   2.442   0.145  0.00  0.00    -0.275 OA
ATOM     25  H   UNL     1     -12.278   5.621   0.194  0.00  0.00    +0.149 HD
BRANCH  22  29
ATOM     26  C   UNL     1     -16.835   4.970   1.938  0.00  0.00    -0.010 C 
ATOM     27  C   UNL     1     -16.326   5.919   0.846  0.00  0.00    -0.072 C 
ATOM     28  C   UNL     1     -14.800   5.914   0.836  0.00  0.00    +0.009 C 
ATOM     29  C   UNL     1     -14.276   4.627   0.199  0.00  0.00    +0.070 C 
ATOM     30  C   UNL     1     -14.793   4.551  -1.238  0.00  0.00    +0.009 C 
ATOM     31  C   UNL     1     -16.320   4.541  -1.254  0.00  0.00    -0.072 C 
ATOM     32  N   UNL     1     -16.901   5.590  -0.442  0.00  0.00    +0.386 N 
ATOM     33  C   UNL     1     -16.828   3.160  -0.822  0.00  0.00    -0.010 C 
ATOM     34  C   UNL     1     -16.770   4.757  -2.716  0.00  0.00    -0.010 C 
ATOM     35  C   UNL     1     -16.785   7.344   1.228  0.00  0.00    -0.010 C 
ATOM     36  H   UNL     1     -17.945   5.270  -0.307  0.00  0.00    -0.084 HD
ATOM     37  H   UNL     1     -16.870   6.475  -1.094  0.00  0.00    -0.084 HD
ENDBRANCH  22  29
ENDBRANCH  21  23
ENDBRANCH  20  21
ENDBRANCH   1  20
TORSDOF 7
