REMARK  Name = ZINC59170480
REMARK  8 active torsions:
REMARK  status: ('A' for Active; 'I' for Inactive)
REMARK    1  A    between atoms: C_1  and  C_2
REMARK    2  A    between atoms: C_5  and  N_9
REMARK    3  A    between atoms: C_7  and  C_8
REMARK    4  A    between atoms: C_10  and  C_12
REMARK    5  A    between atoms: C_17  and  O_33
REMARK    6  A    between atoms: N_22  and  C_23
REMARK    7  A    between atoms: C_26  and  S_29
REMARK    8  A    between atoms: S_29  and  N_32
REMARK                            x       y       z     vdW  Elec       q    Type
REMARK                         _______ _______ _______ _____ _____    ______ ____
ROOT
ATOM      1  C   UNL     1      -0.192  -6.280  -1.174  0.00  0.00    +0.098 A 
ATOM      2  C   UNL     1      -0.177  -6.981  -2.372  0.00  0.00    +0.030 A 
ATOM      3  C   UNL     1      -0.237  -8.396  -2.321  0.00  0.00    +0.018 A 
ATOM      4  C   UNL     1      -0.024  -9.158  -3.480  0.00  0.00    +0.015 A 
ATOM      5  C   UNL     1      -0.042 -10.520  -3.411  0.00  0.00    +0.046 A 
ATOM      6  C   UNL     1      -0.279 -11.164  -2.198  0.00  0.00    +0.120 A 
ATOM      7  C   UNL     1      -0.512 -10.428  -1.045  0.00  0.00    +0.092 A 
ATOM      8  C   UNL     1      -0.504  -9.044  -1.099  0.00  0.00    +0.141 A 
ATOM      9  O   UNL     1      -0.773  -8.315   0.012  0.00  0.00    -0.438 OA
ATOM     10  C   UNL     1      -0.230  -7.069   0.073  0.00  0.00    +0.212 A 
ATOM     11  N   UNL     1       0.240  -6.582   1.201  0.00  0.00    -0.325 N 
ATOM     12  H   UNL     1       0.723  -5.741   1.202  0.00  0.00    +0.169 HD
ENDROOT
BRANCH  11  13
ATOM     13  C   UNL     1       0.048  -7.262   2.372  0.00  0.00    +0.042 A 
ATOM     14  C   UNL     1      -1.204  -7.806   2.671  0.00  0.00    +0.027 A 
ATOM     15  C   UNL     1      -1.390  -8.491   3.853  0.00  0.00    +0.030 A 
ATOM     16  C   UNL     1      -0.340  -8.640   4.743  0.00  0.00    +0.105 A 
ATOM     17  C   UNL     1       0.902  -8.104   4.454  0.00  0.00    +0.030 A 
ATOM     18  C   UNL     1       1.105  -7.421   3.272  0.00  0.00    +0.027 A 
BRANCH  16  19
ATOM     19  S   UNL     1      -0.588  -9.515   6.252  0.00  0.00    +0.056 S 
ATOM     20  O   UNL     1       0.400  -9.047   7.160  0.00  0.00    -0.153 OA
ATOM     21  O   UNL     1      -1.978  -9.448   6.537  0.00  0.00    -0.153 OA
BRANCH  19  22
ATOM     22  N   UNL     1      -0.242 -11.107   5.957  0.00  0.00    -0.204 NA
ATOM     23  H   UNL     1       0.106 -11.668   6.667  0.00  0.00    +0.144 HD
ATOM     24  H   UNL     1      -0.388 -11.479   5.073  0.00  0.00    +0.144 HD
ENDBRANCH  19  22
ENDBRANCH  16  19
ENDBRANCH  11  13
BRANCH   1  26
ATOM     25  N   UNL     1      -0.325  -4.153   0.019  0.00  0.00    -0.281 N 
ATOM     26  C   UNL     1      -0.165  -4.809  -1.148  0.00  0.00    +0.253 C 
ATOM     27  O   UNL     1       0.001  -4.185  -2.179  0.00  0.00    -0.270 OA
ATOM     28  H   UNL     1      -0.402  -4.650   0.848  0.00  0.00    +0.155 HD
BRANCH  25  33
ATOM     29  C   UNL     1      -0.546   1.515   0.076  0.00  0.00    +0.044 C 
ATOM     30  C   UNL     1      -0.487   0.009   0.061  0.00  0.00    -0.047 A 
ATOM     31  C   UNL     1       0.328  -0.641  -0.848  0.00  0.00    +0.005 A 
ATOM     32  C   UNL     1       0.385  -2.020  -0.864  0.00  0.00    +0.023 A 
ATOM     33  C   UNL     1      -0.379  -2.756   0.033  0.00  0.00    +0.034 A 
ATOM     34  C   UNL     1      -1.196  -2.101   0.945  0.00  0.00    +0.027 A 
ATOM     35  C   UNL     1      -1.244  -0.720   0.960  0.00  0.00    -0.046 A 
ATOM     36  C   UNL     1      -2.126  -0.008   1.952  0.00  0.00    +0.044 C 
ENDBRANCH  25  33
ENDBRANCH   1  26
BRANCH   6  37
ATOM     37  O   UNL     1      -0.283 -12.519  -2.143  0.00  0.00    -0.507 OA
ATOM     38  H   UNL     1       0.583 -12.908  -1.956  0.00  0.00    +0.292 HD
ENDBRANCH   6  37
TORSDOF 6
