REMARK  Name = ZINC48142178
REMARK  10 active torsions:
REMARK  status: ('A' for Active; 'I' for Inactive)
REMARK    1  A    between atoms: C_1  and  C_2
REMARK    2  A    between atoms: C_2  and  O_3
REMARK    3  A    between atoms: O_3  and  C_4
REMARK    4  A    between atoms: C_7  and  N_11
REMARK    5  A    between atoms: C_8  and  C_10
REMARK    6  A    between atoms: N_14  and  C_15
REMARK    7  A    between atoms: C_17  and  C_23
REMARK    8  A    between atoms: C_17  and  C_24
REMARK    9  A    between atoms: C_19  and  C_21
REMARK   10  A    between atoms: C_19  and  C_22
REMARK                            x       y       z     vdW  Elec       q    Type
REMARK                         _______ _______ _______ _____ _____    ______ ____
ROOT
ATOM      1  N   UNL     1      -1.363  -6.116  -0.018  0.00  0.00    -0.269 N 
ATOM      2  C   UNL     1      -0.338  -6.963  -0.238  0.00  0.00    +0.304 C 
ATOM      3  O   UNL     1       0.794  -6.533  -0.341  0.00  0.00    -0.253 OA
ATOM      4  N   UNL     1      -0.569  -8.287  -0.343  0.00  0.00    -0.296 N 
ATOM      5  H   UNL     1      -2.257  -6.463   0.126  0.00  0.00    +0.156 HD
ATOM      6  H   UNL     1      -1.472  -8.630  -0.260  0.00  0.00    +0.151 HD
ENDROOT
BRANCH   4   7
ATOM      7  C   UNL     1       0.548  -9.210  -0.582  0.00  0.00    +0.072 C 
ATOM      8  C   UNL     1       0.797  -9.317  -2.088  0.00  0.00    +0.009 C 
ATOM      9  C   UNL     1       1.949 -10.285  -2.355  0.00  0.00    -0.072 C 
ATOM     10  N   UNL     1       1.731 -11.582  -1.731  0.00  0.00    +0.386 N 
ATOM     11  C   UNL     1       1.288 -11.600  -0.346  0.00  0.00    -0.072 C 
ATOM     12  C   UNL     1       0.176 -10.596  -0.058  0.00  0.00    +0.009 C 
ATOM     13  C   UNL     1       2.452 -11.383   0.624  0.00  0.00    -0.010 C 
ATOM     14  C   UNL     1       0.719 -13.010  -0.059  0.00  0.00    -0.010 C 
ATOM     15  C   UNL     1       3.276  -9.657  -1.929  0.00  0.00    -0.010 C 
ATOM     16  C   UNL     1       2.017 -10.507  -3.883  0.00  0.00    -0.010 C 
ATOM     17  H   UNL     1       1.050 -12.098  -2.294  0.00  0.00    -0.084 HD
ATOM     18  H   UNL     1       2.598 -12.121  -1.799  0.00  0.00    -0.084 HD
ENDBRANCH   4   7
BRANCH   1  22
ATOM     19  C   UNL     1      -0.689  -2.001   0.042  0.00  0.00    +0.121 A 
ATOM     20  C   UNL     1       0.331  -2.875   0.387  0.00  0.00    +0.047 A 
ATOM     21  C   UNL     1       0.108  -4.238   0.367  0.00  0.00    +0.027 A 
ATOM     22  C   UNL     1      -1.137  -4.733   0.003  0.00  0.00    +0.038 A 
ATOM     23  C   UNL     1      -2.157  -3.857  -0.342  0.00  0.00    -0.026 A 
ATOM     24  C   UNL     1      -1.935  -2.494  -0.317  0.00  0.00    +0.050 A 
ATOM     25  C   UNL     1      -3.509  -4.393  -0.738  0.00  0.00    +0.046 C 
BRANCH  19  26
ATOM     26  O   UNL     1      -0.470  -0.659   0.062  0.00  0.00    -0.492 OA
BRANCH  26  28
ATOM     27  C   UNL     1       0.892   1.308   0.405  0.00  0.00    +0.048 C 
ATOM     28  C   UNL     1       0.837  -0.221   0.442  0.00  0.00    +0.225 C 
ENDBRANCH  26  28
ENDBRANCH  19  26
ENDBRANCH   1  22
TORSDOF 4
