REMARK  Name = ZINC03840047
REMARK  9 active torsions:
REMARK  status: ('A' for Active; 'I' for Inactive)
REMARK    1  A    between atoms: C_1  and  C_2
REMARK    2  A    between atoms: C_5  and  N_8
REMARK    3  A    between atoms: N_11  and  C_12
REMARK    4  A    between atoms: C_15  and  C_23
REMARK    5  A    between atoms: C_17  and  O_22
REMARK    6  A    between atoms: C_19  and  O_21
REMARK    7  A    between atoms: N_25  and  C_26
REMARK    8  A    between atoms: C_26  and  C_28
REMARK    9  A    between atoms: C_26  and  C_29
REMARK                            x       y       z     vdW  Elec       q    Type
REMARK                         _______ _______ _______ _____ _____    ______ ____
ROOT
ATOM      1  C   UNL     1       0.946   2.001   0.122  0.00  0.00    +0.129 C 
ATOM      2  C   UNL     1      -0.238   1.102   0.332  0.00  0.00    +0.006 C 
ATOM      3  C   UNL     1      -0.160  -0.210   0.392  0.00  0.00    +0.015 C 
ATOM      4  C   UNL     1       1.123  -0.977   0.249  0.00  0.00    +0.074 C 
ATOM      5  C   UNL     1       2.319  -0.045   0.456  0.00  0.00    +0.149 C 
ATOM      6  C   UNL     1       2.127   1.196  -0.424  0.00  0.00    +0.167 C 
ENDROOT
BRANCH   1  10
ATOM      7  N   UNL     1       1.053   4.298   2.991  0.00  0.00    -0.269 N 
ATOM      8  C   UNL     1       0.706   3.736   1.816  0.00  0.00    +0.304 C 
ATOM      9  O   UNL     1      -0.164   4.241   1.133  0.00  0.00    -0.252 OA
ATOM     10  N   UNL     1       1.323   2.612   1.399  0.00  0.00    -0.290 N 
ATOM     11  H   UNL     1       1.691   3.855   3.571  0.00  0.00    +0.156 HD
ATOM     12  H   UNL     1       2.017   2.209   1.943  0.00  0.00    +0.151 HD
BRANCH   7  17
ATOM     13  C   UNL     1      -1.216   9.263   4.538  0.00  0.00    +0.044 C 
ATOM     14  C   UNL     1      -0.613   7.944   4.127  0.00  0.00    -0.050 A 
ATOM     15  C   UNL     1      -0.298   7.000   5.087  0.00  0.00    +0.005 A 
ATOM     16  C   UNL     1       0.255   5.791   4.714  0.00  0.00    +0.023 A 
ATOM     17  C   UNL     1       0.493   5.523   3.372  0.00  0.00    +0.035 A 
ATOM     18  C   UNL     1       0.181   6.475   2.411  0.00  0.00    +0.023 A 
ATOM     19  C   UNL     1      -0.376   7.680   2.790  0.00  0.00    +0.005 A 
ENDBRANCH   7  17
ENDBRANCH   1  10
BRANCH   3  20
ATOM     20  C   UNL     1      -1.400  -0.969   0.612  0.00  0.00    +0.240 C 
ATOM     21  O   UNL     1      -2.459  -0.383   0.732  0.00  0.00    -0.271 OA
ATOM     22  N   UNL     1      -1.363  -2.315   0.679  0.00  0.00    -0.301 N 
ATOM     23  H   UNL     1      -0.519  -2.782   0.584  0.00  0.00    +0.150 HD
BRANCH  22  24
ATOM     24  C   UNL     1      -2.599  -3.071   0.898  0.00  0.00    +0.156 C 
ATOM     25  C   UNL     1      -2.890  -3.150   2.398  0.00  0.00    +0.038 C 
BRANCH  24  26
ATOM     26  C   UNL     1      -2.441  -4.463   0.344  0.00  0.00    +0.231 C 
ATOM     27  O   UNL     1      -1.398  -4.792  -0.182  0.00  0.00    -0.274 OA
ATOM     28  N   UNL     1      -3.457  -5.344   0.432  0.00  0.00    -0.328 N 
ATOM     29  H   UNL     1      -4.291  -5.081   0.853  0.00  0.00    +0.145 HD
ATOM     30  H   UNL     1      -3.355  -6.240   0.075  0.00  0.00    +0.145 HD
ENDBRANCH  24  26
ENDBRANCH  22  24
ENDBRANCH   3  20
BRANCH   6  31
ATOM     31  O   UNL     1       3.312   1.995  -0.393  0.00  0.00    -0.387 OA
ATOM     32  H   UNL     1       4.102   1.539  -0.714  0.00  0.00    +0.210 HD
ENDBRANCH   6  31
BRANCH   5  33
ATOM     33  O   UNL     1       3.522  -0.719   0.079  0.00  0.00    -0.389 OA
ATOM     34  H   UNL     1       3.698  -1.523   0.587  0.00  0.00    +0.210 HD
ENDBRANCH   5  33
TORSDOF 7
