REMARK  Name = ZINC12481965
REMARK  10 active torsions:
REMARK  status: ('A' for Active; 'I' for Inactive)
REMARK    1  A    between atoms: C_1  and  O_2
REMARK    2  A    between atoms: O_2  and  C_3
REMARK    3  A    between atoms: C_8  and  N_9
REMARK    4  A    between atoms: C_15  and  C_17
REMARK    5  A    between atoms: C_17  and  C_18
REMARK    6  A    between atoms: C_23  and  C_25
REMARK    7  A    between atoms: C_25  and  C_26
REMARK    8  A    between atoms: C_28  and  C_31
REMARK    9  A    between atoms: C_31  and  S_32
REMARK   10  A    between atoms: S_32  and  C_33
REMARK                            x       y       z     vdW  Elec       q    Type
REMARK                         _______ _______ _______ _____ _____    ______ ____
ROOT
ATOM      1  C   UNL     1      -3.421   1.369   6.521  0.00  0.00    -0.002 C 
ATOM      2  C   UNL     1      -4.556   2.396   6.469  0.00  0.00    -0.015 C 
ATOM      3  C   UNL     1      -3.977   3.800   6.654  0.00  0.00    -0.082 C 
ATOM      4  C   UNL     1      -1.876   3.127   5.651  0.00  0.00    -0.079 C 
ATOM      5  C   UNL     1      -2.393   1.703   5.436  0.00  0.00    -0.019 C 
ATOM      6  N   UNL     1      -3.000   4.080   5.583  0.00  0.00    +0.379 N 
ATOM      7  H   UNL     1      -2.641   5.036   5.695  0.00  0.00    -0.086 HD
ATOM      8  H   UNL     1      -3.463   3.993   4.671  0.00  0.00    -0.086 HD
ENDROOT
BRANCH   1   9
ATOM      9  C   UNL     1      -3.986  -0.032   6.276  0.00  0.00    +0.099 C 
BRANCH   9  16
ATOM     10  N   UNL     1      -5.944  -4.318   7.895  0.00  0.00    -0.324 N 
ATOM     11  C   UNL     1      -5.996  -3.374   9.019  0.00  0.00    +0.124 C 
ATOM     12  C   UNL     1      -6.421  -1.994   8.504  0.00  0.00    +0.126 C 
ATOM     13  N   UNL     1      -5.521  -1.607   7.407  0.00  0.00    -0.298 N 
ATOM     14  C   UNL     1      -5.315  -2.560   6.306  0.00  0.00    +0.126 C 
ATOM     15  C   UNL     1      -4.929  -3.919   6.910  0.00  0.00    +0.124 C 
ATOM     16  C   UNL     1      -4.904  -0.408   7.409  0.00  0.00    +0.216 C 
ATOM     17  O   UNL     1      -5.090   0.367   8.323  0.00  0.00    -0.276 OA
BRANCH  10  23
ATOM     18  C   UNL     1      -6.651  -6.624   8.081  0.00  0.00    +0.141 A 
ATOM     19  C   UNL     1      -6.423  -7.915   8.531  0.00  0.00    +0.047 A 
ATOM     20  C   UNL     1      -5.273  -8.207   9.240  0.00  0.00    +0.004 A 
ATOM     21  C   UNL     1      -4.348  -7.214   9.504  0.00  0.00    +0.002 A 
ATOM     22  C   UNL     1      -4.565  -5.926   9.054  0.00  0.00    +0.027 A 
ATOM     23  C   UNL     1      -5.719  -5.623   8.346  0.00  0.00    +0.072 A 
BRANCH  18  25
ATOM     24  C   UNL     1      -8.693  -7.411   7.149  0.00  0.00    +0.277 C 
ATOM     25  O   UNL     1      -7.782  -6.335   7.383  0.00  0.00    -0.493 OA
ENDBRANCH  18  25
ENDBRANCH  10  23
ENDBRANCH   9  16
ENDBRANCH   1   9
BRANCH   5  26
ATOM     26  C   UNL     1      -3.051   1.601   4.059  0.00  0.00    +0.061 C 
BRANCH  26  27
ATOM     27  C   UNL     1      -2.012   1.811   2.988  0.00  0.00    +0.084 A 
ATOM     28  C   UNL     1      -1.712   0.939   1.916  0.00  0.00    +0.071 A 
ATOM     29  C   UNL     1      -0.718   1.572   1.248  0.00  0.00    +0.148 A 
ATOM     30  O   UNL     1      -0.482   2.713   1.910  0.00  0.00    -0.359 OA
ATOM     31  N   UNL     1      -1.211   2.830   2.868  0.00  0.00    -0.083 NA
BRANCH  29  32
ATOM     32  C   UNL     1      -0.013   1.086   0.008  0.00  0.00    +0.151 C 
BRANCH  32  33
ATOM     33  S   UNL     1      -0.890   1.687  -1.462  0.00  0.00    -0.117 S 
BRANCH  33  34
ATOM     34  C   UNL     1       0.045   1.043  -2.809  0.00  0.00    +0.008 A 
ATOM     35  C   UNL     1       1.176   0.273  -2.567  0.00  0.00    +0.015 A 
ATOM     36  C   UNL     1       1.903  -0.235  -3.626  0.00  0.00    +0.001 A 
ATOM     37  C   UNL     1       1.513   0.032  -4.926  0.00  0.00    +0.000 A 
ATOM     38  C   UNL     1       0.391   0.802  -5.170  0.00  0.00    +0.001 A 
ATOM     39  C   UNL     1      -0.344   1.308  -4.117  0.00  0.00    +0.015 A 
ENDBRANCH  33  34
ENDBRANCH  32  33
ENDBRANCH  29  32
ENDBRANCH  26  27
ENDBRANCH   5  26
TORSDOF 9
