REMARK  Name = ZINC40674572
REMARK  8 active torsions:
REMARK  status: ('A' for Active; 'I' for Inactive)
REMARK    1  A    between atoms: C_1  and  C_2
REMARK    2  A    between atoms: C_2  and  C_3
REMARK    3  A    between atoms: C_2  and  C_4
REMARK    4  A    between atoms: C_2  and  N_7
REMARK    5  A    between atoms: N_7  and  C_8
REMARK    6  A    between atoms: C_8  and  C_9
REMARK    7  A    between atoms: C_14  and  O_15
REMARK    8  A    between atoms: O_15  and  C_16
REMARK                            x       y       z     vdW  Elec       q    Type
REMARK                         _______ _______ _______ _____ _____    ______ ____
ROOT
ATOM      1  C   UNL     1       2.068   0.031  -1.217  0.00  0.00    -0.042 C 
ENDROOT
BRANCH   1   2
ATOM      2  C   UNL     1       2.773  -0.455  -2.457  0.00  0.00    -0.021 A 
ATOM      3  C   UNL     1       3.623  -1.542  -2.387  0.00  0.00    +0.020 A 
ATOM      4  C   UNL     1       4.271  -1.989  -3.525  0.00  0.00    +0.018 A 
ATOM      5  C   UNL     1       4.069  -1.348  -4.735  0.00  0.00    +0.019 A 
ATOM      6  C   UNL     1       3.220  -0.262  -4.809  0.00  0.00    +0.047 A 
ATOM      7  C   UNL     1       2.565   0.185  -3.670  0.00  0.00    +0.128 A 
ATOM      8 BR   UNL     1       5.435  -3.476  -3.427  0.00  0.00    -0.050 Br
BRANCH   7   9
ATOM      9  O   UNL     1       1.725   1.251  -3.741  0.00  0.00    -0.434 OA
BRANCH   9  10
ATOM     10  C   UNL     1       1.558   1.861  -5.023  0.00  0.00    +0.541 C 
ATOM     11  F   UNL     1       2.795   2.325  -5.483  0.00  0.00    -0.166 F 
ATOM     12  F   UNL     1       1.049   0.920  -5.924  0.00  0.00    -0.166 F 
ENDBRANCH   9  10
ENDBRANCH   7   9
ENDBRANCH   1   2
BRANCH   1  13
ATOM     13  N   UNL     1       0.690  -0.478  -1.207  0.00  0.00    +0.391 N 
ATOM     14  H   UNL     1       0.703  -1.487  -1.212  0.00  0.00    -0.084 HD
ATOM     15  H   UNL     1       0.202  -0.144  -2.024  0.00  0.00    -0.084 HD
BRANCH  13  17
ATOM     16  C   UNL     1      -0.019   1.526   0.010  0.00  0.00    -0.001 C 
ATOM     17  C   UNL     1       0.002  -0.004   0.002  0.00  0.00    +0.004 C 
ATOM     18  C   UNL     1       0.742  -0.511   1.242  0.00  0.00    -0.001 C 
BRANCH  17  19
ATOM     19  C   UNL     1      -1.412  -0.526   0.013  0.00  0.00    +0.199 C 
ATOM     20  O   UNL     1      -1.939  -0.827   1.062  0.00  0.00    -0.278 OA
ATOM     21  N   UNL     1      -2.090  -0.657  -1.144  0.00  0.00    -0.330 N 
ATOM     22  H   UNL     1      -1.669  -0.416  -1.984  0.00  0.00    +0.145 HD
ATOM     23  H   UNL     1      -3.000  -0.993  -1.137  0.00  0.00    +0.145 HD
ENDBRANCH  17  19
ENDBRANCH  13  17
ENDBRANCH   1  13
TORSDOF 6
