REMARK  Name = ZINC59942136
REMARK  14 active torsions:
REMARK  status: ('A' for Active; 'I' for Inactive)
REMARK    1  A    between atoms: C_1  and  C_2
REMARK    2  A    between atoms: C_4  and  C_36
REMARK    3  A    between atoms: C_5  and  O_9
REMARK    4  A    between atoms: C_6  and  C_8
REMARK    5  A    between atoms: O_9  and  C_10
REMARK    6  A    between atoms: C_10  and  C_11
REMARK    7  A    between atoms: N_13  and  N_14
REMARK    8  A    between atoms: N_19  and  N_20
REMARK    9  A    between atoms: C_21  and  C_23
REMARK   10  A    between atoms: C_23  and  O_24
REMARK   11  A    between atoms: O_24  and  C_25
REMARK   12  A    between atoms: C_26  and  C_33
REMARK   13  A    between atoms: C_28  and  C_32
REMARK   14  A    between atoms: C_30  and  C_31
REMARK                            x       y       z     vdW  Elec       q    Type
REMARK                         _______ _______ _______ _____ _____    ______ ____
ROOT
ATOM      1  N   UNL     1       2.078  -8.457  -0.071  0.00  0.00    -0.189 NA
ATOM      2  C   UNL     1       3.099  -9.222  -0.173  0.00  0.00    +0.038 C 
ATOM      3  C   UNL     1       4.497  -8.646  -0.172  0.00  0.00    +0.058 C 
ATOM      4  C   UNL     1       5.304  -9.324   0.942  0.00  0.00    +0.058 C 
ATOM      5  C   UNL     1       5.134 -10.821   0.819  0.00  0.00    +0.038 C 
ATOM      6  N   UNL     1       6.154 -11.587   0.719  0.00  0.00    -0.189 NA
ATOM      7  C   UNL     1       3.736 -11.397   0.818  0.00  0.00    +0.058 C 
ATOM      8  C   UNL     1       2.928 -10.720  -0.290  0.00  0.00    +0.058 C 
ENDROOT
BRANCH   1  11
ATOM      9  C   UNL     1       1.161  -6.260  -0.083  0.00  0.00    +0.270 C 
ATOM     10  O   UNL     1       0.047  -6.739  -0.058  0.00  0.00    -0.270 OA
ATOM     11  N   UNL     1       2.242  -7.065  -0.091  0.00  0.00    -0.204 N 
ATOM     12  H   UNL     1       3.133  -6.682  -0.111  0.00  0.00    +0.177 HD
BRANCH   9  13
ATOM     13  C   UNL     1       1.337  -4.763  -0.105  0.00  0.00    +0.326 C 
BRANCH  13  14
ATOM     14  O   UNL     1       0.055  -4.133  -0.091  0.00  0.00    -0.482 OA
BRANCH  14  19
ATOM     15  C   UNL     1      -0.028   1.499  -0.160  0.00  0.00    +0.044 C 
ATOM     16  C   UNL     1      -0.006  -0.008  -0.141  0.00  0.00    -0.050 A 
ATOM     17  C   UNL     1      -0.015  -0.713  -1.331  0.00  0.00    +0.010 A 
ATOM     18  C   UNL     1       0.005  -2.094  -1.317  0.00  0.00    -0.008 A 
ATOM     19  C   UNL     1       0.035  -2.774  -0.108  0.00  0.00    +0.127 A 
ATOM     20  C   UNL     1       0.045  -2.064   1.084  0.00  0.00    -0.008 A 
ATOM     21  C   UNL     1       0.030  -0.683   1.065  0.00  0.00    +0.010 A 
ATOM     22  C   UNL     1       0.078  -2.799   2.400  0.00  0.00    +0.047 C 
ATOM     23  C   UNL     1      -0.006  -2.862  -2.613  0.00  0.00    +0.047 C 
ENDBRANCH  14  19
ENDBRANCH  13  14
ENDBRANCH   9  13
ENDBRANCH   1  11
BRANCH   6  24
ATOM     24  N   UNL     1       5.981 -12.959   0.496  0.00  0.00    -0.204 N 
ATOM     25  C   UNL     1       7.053 -13.748   0.285  0.00  0.00    +0.270 C 
ATOM     26  O   UNL     1       8.168 -13.270   0.288  0.00  0.00    -0.270 OA
ATOM     27  H   UNL     1       5.090 -13.341   0.493  0.00  0.00    +0.177 HD
BRANCH  25  28
ATOM     28  C   UNL     1       6.867 -15.224   0.045  0.00  0.00    +0.326 C 
BRANCH  28  29
ATOM     29  O   UNL     1       8.141 -15.840  -0.150  0.00  0.00    -0.482 OA
BRANCH  29  30
ATOM     30  C   UNL     1       8.151 -17.179  -0.380  0.00  0.00    +0.127 A 
ATOM     31  C   UNL     1       8.234 -18.066   0.683  0.00  0.00    -0.008 A 
ATOM     32  C   UNL     1       8.243 -19.427   0.447  0.00  0.00    +0.010 A 
ATOM     33  C   UNL     1       8.170 -19.906  -0.848  0.00  0.00    -0.050 A 
ATOM     34  C   UNL     1       8.088 -19.024  -1.910  0.00  0.00    +0.010 A 
ATOM     35  C   UNL     1       8.072 -17.662  -1.679  0.00  0.00    -0.008 A 
ATOM     36  C   UNL     1       7.976 -16.701  -2.836  0.00  0.00    +0.047 C 
ATOM     37  C   UNL     1       8.181 -21.391  -1.103  0.00  0.00    +0.044 C 
ATOM     38  C   UNL     1       8.314 -17.546   2.095  0.00  0.00    +0.047 C 
ENDBRANCH  29  30
ENDBRANCH  28  29
ENDBRANCH  25  28
ENDBRANCH   6  24
TORSDOF 8
