REMARK  Name = ZINC05291046
REMARK  10 active torsions:
REMARK  status: ('A' for Active; 'I' for Inactive)
REMARK    1  A    between atoms: C_1  and  C_2
REMARK    2  A    between atoms: C_2  and  O_3
REMARK    3  A    between atoms: O_3  and  C_4
REMARK    4  A    between atoms: C_8  and  C_9
REMARK    5  A    between atoms: N_10  and  C_11
REMARK    6  A    between atoms: C_11  and  C_13
REMARK    7  A    between atoms: C_11  and  C_14
REMARK    8  A    between atoms: C_17  and  S_20
REMARK    9  A    between atoms: S_20  and  N_23
REMARK   10  A    between atoms: C_24  and  O_25
REMARK                            x       y       z     vdW  Elec       q    Type
REMARK                         _______ _______ _______ _____ _____    ______ ____
ROOT
ATOM      1  C   UNL     1       2.205  -4.275  -3.798  0.00  0.00    +0.090 C 
ATOM      2  N   UNL     1       2.621  -3.488  -4.738  0.00  0.00    -0.383 N 
ATOM      3  H   UNL     1       2.552  -2.526  -4.632  0.00  0.00    +0.160 HD
ENDROOT
BRANCH   1   8
ATOM      4  C   UNL     1       0.786  -1.811  -1.331  0.00  0.00    +0.162 A 
ATOM      5  C   UNL     1       0.242  -2.667  -0.388  0.00  0.00    +0.049 A 
ATOM      6  C   UNL     1       0.336  -4.039  -0.552  0.00  0.00    +0.004 A 
ATOM      7  C   UNL     1       0.971  -4.566  -1.656  0.00  0.00    +0.013 A 
ATOM      8  C   UNL     1       1.525  -3.715  -2.616  0.00  0.00    +0.036 A 
ATOM      9  C   UNL     1       1.426  -2.328  -2.453  0.00  0.00    +0.167 A 
BRANCH   9  10
ATOM     10  O   UNL     1       1.956  -1.491  -3.382  0.00  0.00    -0.503 OA
ATOM     11  H   UNL     1       2.877  -1.249  -3.213  0.00  0.00    +0.292 HD
ENDBRANCH   9  10
BRANCH   4  12
ATOM     12  O   UNL     1       0.690  -0.465  -1.163  0.00  0.00    -0.489 OA
BRANCH  12  14
ATOM     13  C   UNL     1       0.011   1.526   0.028  0.00  0.00    +0.048 C 
ATOM     14  C   UNL     1       0.020  -0.004   0.013  0.00  0.00    +0.226 C 
ENDBRANCH  12  14
ENDBRANCH   4  12
ENDBRANCH   1   8
BRANCH   2  15
ATOM     15  C   UNL     1       3.197  -4.050  -5.962  0.00  0.00    +0.106 C 
ATOM     16  C   UNL     1       4.636  -3.556  -6.122  0.00  0.00    +0.035 C 
BRANCH  15  17
ATOM     17  C   UNL     1       2.380  -3.611  -7.150  0.00  0.00    -0.025 A 
ATOM     18  C   UNL     1       1.898  -2.317  -7.216  0.00  0.00    +0.007 A 
ATOM     19  C   UNL     1       1.148  -1.914  -8.306  0.00  0.00    +0.029 A 
ATOM     20  C   UNL     1       0.882  -2.805  -9.329  0.00  0.00    +0.105 A 
ATOM     21  C   UNL     1       1.365  -4.098  -9.263  0.00  0.00    +0.029 A 
ATOM     22  C   UNL     1       2.118  -4.500  -8.175  0.00  0.00    +0.007 A 
BRANCH  20  23
ATOM     23  S   UNL     1      -0.074  -2.291 -10.717  0.00  0.00    +0.056 S 
ATOM     24  O   UNL     1      -0.641  -3.468 -11.277  0.00  0.00    -0.153 OA
ATOM     25  O   UNL     1      -0.868  -1.196 -10.281  0.00  0.00    -0.153 OA
BRANCH  23  26
ATOM     26  N   UNL     1       0.981  -1.692 -11.844  0.00  0.00    -0.204 NA
ATOM     27  H   UNL     1       1.933  -1.679 -11.658  0.00  0.00    +0.144 HD
ATOM     28  H   UNL     1       0.647  -1.355 -12.690  0.00  0.00    +0.144 HD
ENDBRANCH  23  26
ENDBRANCH  20  23
ENDBRANCH  15  17
ENDBRANCH   2  15
TORSDOF 8
