REMARK  Name = ZINC35455273
REMARK  13 active torsions:
REMARK  status: ('A' for Active; 'I' for Inactive)
REMARK    1  A    between atoms: C_3  and  O_42
REMARK    2  A    between atoms: C_6  and  C_7
REMARK    3  A    between atoms: C_7  and  O_9
REMARK    4  A    between atoms: O_9  and  C_10
REMARK    5  A    between atoms: C_13  and  C_40
REMARK    6  A    between atoms: C_21  and  O_23
REMARK    7  A    between atoms: O_23  and  C_24
REMARK    8  A    between atoms: C_26  and  O_39
REMARK    9  A    between atoms: C_28  and  O_38
REMARK   10  A    between atoms: C_30  and  O_37
REMARK   11  A    between atoms: C_32  and  C_35
REMARK   12  A    between atoms: C_35  and  O_36
REMARK   13  A    between atoms: C_40  and  O_41
REMARK                            x       y       z     vdW  Elec       q    Type
REMARK                         _______ _______ _______ _____ _____    ______ ____
ROOT
ATOM      1  C   UNL     1      -2.506  -2.776   0.012  0.00  0.00    +0.207 C 
ATOM      2  C   UNL     1      -2.951  -3.087  -1.400  0.00  0.00    +0.019 C 
ATOM      3  C   UNL     1      -3.421  -4.303  -1.486  0.00  0.00    -0.035 C 
ATOM      4  C   UNL     1      -3.370  -4.997  -0.138  0.00  0.00    +0.096 C 
ATOM      5  C   UNL     1      -2.381  -4.160   0.686  0.00  0.00    +0.072 C 
ATOM      6  C   UNL     1      -2.737  -4.083   2.130  0.00  0.00    +0.019 C 
ATOM      7  C   UNL     1      -3.842  -4.565   2.631  0.00  0.00    +0.186 C 
ATOM      8  O   UNL     1      -4.761  -5.191   1.871  0.00  0.00    -0.471 OA
ATOM      9  C   UNL     1      -4.766  -5.008   0.462  0.00  0.00    +0.317 C 
ENDROOT
BRANCH   1  10
ATOM     10  O   UNL     1      -1.243  -2.108   0.003  0.00  0.00    -0.453 OA
BRANCH  10  11
ATOM     11  C   UNL     1      -1.264  -0.761   0.011  0.00  0.00    +0.340 C 
ATOM     12  O   UNL     1      -2.325  -0.169   0.024  0.00  0.00    -0.245 OA
BRANCH  11  18
ATOM     13  C   UNL     1      -0.017   1.394   0.010  0.00  0.00    +0.018 A 
ATOM     14  C   UNL     1       1.167   2.096   0.002  0.00  0.00    +0.046 A 
ATOM     15  C   UNL     1       2.380   1.418  -0.013  0.00  0.00    +0.117 A 
ATOM     16  C   UNL     1       2.404   0.028  -0.021  0.00  0.00    +0.046 A 
ATOM     17  C   UNL     1       1.224  -0.682  -0.014  0.00  0.00    +0.018 A 
ATOM     18  C   UNL     1       0.002  -0.004   0.002  0.00  0.00    +0.059 A 
BRANCH  15  19
ATOM     19  O   UNL     1       3.545   2.114  -0.020  0.00  0.00    -0.507 OA
ATOM     20  H   UNL     1       3.891   2.311   0.861  0.00  0.00    +0.292 HD
ENDBRANCH  15  19
ENDBRANCH  11  18
ENDBRANCH  10  11
ENDBRANCH   1  10
BRANCH   9  21
ATOM     21  O   UNL     1      -5.523  -6.053  -0.153  0.00  0.00    -0.309 OA
BRANCH  21  22
ATOM     22  C   UNL     1      -6.916  -6.023   0.161  0.00  0.00    +0.286 C 
ATOM     23  C   UNL     1      -7.579  -7.311  -0.337  0.00  0.00    +0.201 C 
ATOM     24  C   UNL     1      -9.083  -7.245  -0.051  0.00  0.00    +0.179 C 
ATOM     25  C   UNL     1      -9.664  -5.996  -0.720  0.00  0.00    +0.177 C 
ATOM     26  C   UNL     1      -8.921  -4.759  -0.207  0.00  0.00    +0.178 C 
ATOM     27  O   UNL     1      -7.525  -4.898  -0.477  0.00  0.00    -0.340 OA
BRANCH  25  28
ATOM     28  O   UNL     1      -9.508  -6.095  -2.136  0.00  0.00    -0.386 OA
ATOM     29  H   UNL     1      -9.950  -6.861  -2.528  0.00  0.00    +0.210 HD
ENDBRANCH  25  28
BRANCH  24  30
ATOM     30  O   UNL     1      -9.720  -8.411  -0.576  0.00  0.00    -0.386 OA
ATOM     31  H   UNL     1      -9.395  -9.240  -0.200  0.00  0.00    +0.210 HD
ENDBRANCH  24  30
BRANCH  23  32
ATOM     32  O   UNL     1      -7.365  -7.445  -1.743  0.00  0.00    -0.384 OA
ATOM     33  H   UNL     1      -6.432  -7.488  -1.997  0.00  0.00    +0.210 HD
ENDBRANCH  23  32
BRANCH  26  34
ATOM     34  C   UNL     1      -9.456  -3.513  -0.915  0.00  0.00    +0.190 C 
BRANCH  34  35
ATOM     35  O   UNL     1      -8.846  -2.348  -0.354  0.00  0.00    -0.392 OA
ATOM     36  H   UNL     1      -9.139  -1.519  -0.756  0.00  0.00    +0.210 HD
ENDBRANCH  34  35
ENDBRANCH  26  34
ENDBRANCH  21  22
ENDBRANCH   9  21
BRANCH   3  37
ATOM     37  C   UNL     1      -3.942  -4.932  -2.752  0.00  0.00    +0.187 C 
BRANCH  37  38
ATOM     38  O   UNL     1      -3.840  -3.995  -3.826  0.00  0.00    -0.391 OA
ATOM     39  H   UNL     1      -4.159  -4.332  -4.675  0.00  0.00    +0.210 HD
ENDBRANCH  37  38
ENDBRANCH   3  37
TORSDOF 13
