REMARK  Name = ZINC27538938
REMARK  6 active torsions:
REMARK  status: ('A' for Active; 'I' for Inactive)
REMARK    1  A    between atoms: C_1  and  C_2
REMARK    2  A    between atoms: C_2  and  C_4
REMARK    3  A    between atoms: C_2  and  N_19
REMARK    4  A    between atoms: N_6  and  C_7
REMARK    5  A    between atoms: C_8  and  C_17
REMARK    6  A    between atoms: C_25  and  C_27
REMARK                            x       y       z     vdW  Elec       q    Type
REMARK                         _______ _______ _______ _____ _____    ______ ____
ROOT
ATOM      1  N   UNL     1       3.585   1.561  -3.452  0.00  0.00    +0.389 N 
ATOM      2  C   UNL     1       4.120   2.474  -2.433  0.00  0.00    -0.058 C 
ATOM      3  C   UNL     1       3.946   1.844  -1.047  0.00  0.00    +0.089 C 
ATOM      4  N   UNL     1       2.531   1.480  -0.874  0.00  0.00    -0.302 N 
ATOM      5  C   UNL     1       1.887   0.674  -1.923  0.00  0.00    +0.089 C 
ATOM      6  C   UNL     1       2.141   1.355  -3.277  0.00  0.00    -0.058 C 
ATOM      7  C   UNL     1       1.845   1.869   0.219  0.00  0.00    +0.260 C 
ATOM      8  O   UNL     1       0.706   1.488   0.387  0.00  0.00    -0.271 OA
ATOM      9  H   UNL     1       4.080   0.588  -3.323  0.00  0.00    -0.081 HD
ENDROOT
BRANCH   7  10
ATOM     10  C   UNL     1       2.494   2.777   1.232  0.00  0.00    +0.296 C 
ATOM     11  C   UNL     1       3.570   2.004   2.006  0.00  0.00    +0.283 C 
ATOM     12  O   UNL     1       4.156   2.890   2.966  0.00  0.00    -0.484 OA
ATOM     13  C   UNL     1       3.298   3.645   3.706  0.00  0.00    +0.162 A 
ATOM     14  C   UNL     1       3.751   4.245   4.871  0.00  0.00    +0.049 A 
ATOM     15  C   UNL     1       2.892   5.016   5.631  0.00  0.00    +0.004 A 
ATOM     16  C   UNL     1       1.580   5.192   5.232  0.00  0.00    +0.004 A 
ATOM     17  C   UNL     1       1.123   4.596   4.072  0.00  0.00    +0.049 A 
ATOM     18  C   UNL     1       1.978   3.820   3.306  0.00  0.00    +0.163 A 
ATOM     19  O   UNL     1       1.512   3.236   2.167  0.00  0.00    -0.473 OA
ENDBRANCH   7  10
BRANCH   1  21
ATOM     20  C   UNL     1       3.327   1.067  -5.837  0.00  0.00    -0.004 C 
ATOM     21  C   UNL     1       3.887   2.048  -4.805  0.00  0.00    +0.017 C 
BRANCH  21  22
ATOM     22  C   UNL     1       3.255   3.401  -5.004  0.00  0.00    +0.204 C 
ATOM     23  O   UNL     1       2.484   3.839  -4.177  0.00  0.00    -0.277 OA
ATOM     24  N   UNL     1       3.547   4.126  -6.103  0.00  0.00    -0.280 N 
ATOM     25  H   UNL     1       4.247   3.730  -6.853  0.00  0.00    +0.155 HD
BRANCH  24  26
ATOM     26  C   UNL     1       2.966   5.373  -6.286  0.00  0.00    +0.090 A 
ATOM     27  C   UNL     1       3.139   6.257  -7.338  0.00  0.00    +0.084 A 
ATOM     28  C   UNL     1       2.404   7.514  -7.296  0.00  0.00    -0.018 A 
ATOM     29  C   UNL     1       1.624   7.681  -6.206  0.00  0.00    -0.004 A 
ATOM     30  S   UNL     1       1.841   6.198  -5.260  0.00  0.00    -0.077 S 
ATOM     31  C   UNL     1       0.767   8.859  -5.863  0.00  0.00    +0.043 C 
ATOM     32  C   UNL     1      -0.087   9.233  -7.082  0.00  0.00    +0.005 C 
ATOM     33  C   UNL     1       0.692  10.230  -7.933  0.00  0.00    +0.001 C 
ATOM     34  C   UNL     1       2.189   9.939  -7.846  0.00  0.00    +0.005 C 
ATOM     35  C   UNL     1       2.497   8.554  -8.405  0.00  0.00    +0.037 C 
BRANCH  27  36
ATOM     36  C   UNL     1       4.011   5.946  -8.431  0.00  0.00    +0.102 C 
ATOM     37  N   UNL     1       4.703   5.700  -9.297  0.00  0.00    -0.191 NA
ENDBRANCH  27  36
ENDBRANCH  24  26
ENDBRANCH  21  22
ENDBRANCH   1  21
TORSDOF 5
