REMARK  Name = ZINC66940366
REMARK  6 active torsions:
REMARK  status: ('A' for Active; 'I' for Inactive)
REMARK    1  A    between atoms: C_6  and  C_7
REMARK    2  A    between atoms: C_7  and  C_9
REMARK    3  A    between atoms: C_7  and  N_12
REMARK    4  A    between atoms: N_12  and  C_13
REMARK    5  A    between atoms: C_22  and  O_24
REMARK    6  A    between atoms: O_24  and  C_25
REMARK                            x       y       z     vdW  Elec       q    Type
REMARK                         _______ _______ _______ _____ _____    ______ ____
ROOT
ATOM      1  N   UNL     1      -1.544  -2.518   0.651  0.00  0.00    +0.394 N 
ATOM      2  H   UNL     1      -1.541  -2.361   1.647  0.00  0.00    -0.083 HD
ATOM      3  H   UNL     1      -1.902  -1.700   0.182  0.00  0.00    -0.083 HD
ENDROOT
BRANCH   1   4
ATOM      4  C   UNL     1      -2.397  -3.673   0.340  0.00  0.00    -0.039 C 
ATOM      5  C   UNL     1      -1.945  -4.872   1.172  0.00  0.00    -0.011 C 
ATOM      6  C   UNL     1      -2.974  -5.996   0.999  0.00  0.00    +0.003 C 
ATOM      7  C   UNL     1      -4.262  -5.582   1.707  0.00  0.00    +0.035 C 
ATOM      8  C   UNL     1      -4.689  -4.206   1.269  0.00  0.00    -0.042 A 
ATOM      9  C   UNL     1      -3.832  -3.328   0.645  0.00  0.00    -0.058 A 
ATOM     10  C   UNL     1      -4.286  -2.069   0.273  0.00  0.00    +0.006 A 
ATOM     11  C   UNL     1      -5.589  -1.691   0.519  0.00  0.00    +0.046 A 
ATOM     12  C   UNL     1      -6.455  -2.576   1.144  0.00  0.00    +0.127 A 
ATOM     13  C   UNL     1      -6.002  -3.829   1.516  0.00  0.00    +0.049 A 
BRANCH  12  14
ATOM     14  O   UNL     1      -7.742  -2.214   1.389  0.00  0.00    -0.434 OA
BRANCH  14  15
ATOM     15  C   UNL     1      -8.138  -0.905   0.976  0.00  0.00    +0.541 C 
ATOM     16  F   UNL     1      -7.348   0.049   1.627  0.00  0.00    -0.166 F 
ATOM     17  F   UNL     1      -7.970  -0.782  -0.408  0.00  0.00    -0.166 F 
ENDBRANCH  14  15
ENDBRANCH  12  14
ENDBRANCH   1   4
BRANCH   1  18
ATOM     18  C   UNL     1      -0.174  -2.785   0.193  0.00  0.00    +0.047 C 
BRANCH  18  24
ATOM     19  C   UNL     1       1.525  -1.215  -0.763  0.00  0.00    +0.005 A 
ATOM     20  C   UNL     1       2.263  -0.048  -0.713  0.00  0.00    +0.038 A 
ATOM     21  C   UNL     1       2.108   0.824   0.352  0.00  0.00    +0.123 A 
ATOM     22  C   UNL     1       1.212   0.525   1.365  0.00  0.00    +0.038 A 
ATOM     23  C   UNL     1       0.475  -0.642   1.312  0.00  0.00    +0.005 A 
ATOM     24  C   UNL     1       0.631  -1.512   0.249  0.00  0.00    -0.053 A 
ATOM     25  F   UNL     1       2.829   1.965   0.403  0.00  0.00    -0.205 F 
ENDBRANCH  18  24
BRANCH  18  26
ATOM     26  C   UNL     1       0.461  -3.820   1.085  0.00  0.00    +0.201 C 
ATOM     27  O   UNL     1       0.199  -3.844   2.268  0.00  0.00    -0.277 OA
ATOM     28  N   UNL     1       1.321  -4.720   0.567  0.00  0.00    -0.330 N 
ATOM     29  H   UNL     1       1.530  -4.701  -0.380  0.00  0.00    +0.145 HD
ATOM     30  H   UNL     1       1.729  -5.387   1.141  0.00  0.00    +0.145 HD
ENDBRANCH  18  26
ENDBRANCH   1  18
TORSDOF 6
