REMARK  Name = ZINC59021265
REMARK  9 active torsions:
REMARK  status: ('A' for Active; 'I' for Inactive)
REMARK    1  A    between atoms: C_1  and  C_2
REMARK    2  A    between atoms: C_5  and  C_8
REMARK    3  A    between atoms: C_8  and  C_32
REMARK    4  A    between atoms: N_9  and  N_10
REMARK    5  A    between atoms: C_13  and  S_16
REMARK    6  A    between atoms: S_16  and  C_17
REMARK    7  A    between atoms: C_17  and  C_18
REMARK    8  A    between atoms: N_20  and  C_21
REMARK    9  A    between atoms: C_23  and  C_28
REMARK                            x       y       z     vdW  Elec       q    Type
REMARK                         _______ _______ _______ _____ _____    ______ ____
ROOT
ATOM      1  N   UNL     1       0.025  -4.198  -2.365  0.00  0.00    -0.205 N 
ATOM      2  C   UNL     1      -0.191  -4.872  -3.552  0.00  0.00    +0.232 A 
ATOM      3  N   UNL     1      -0.402  -6.166  -3.681  0.00  0.00    -0.186 NA
ATOM      4  C   UNL     1      -0.570  -6.468  -4.972  0.00  0.00    +0.211 A 
ATOM      5  N   UNL     1      -0.468  -5.371  -5.684  0.00  0.00    -0.144 NA
ATOM      6  N   UNL     1      -0.228  -4.320  -4.784  0.00  0.00    -0.245 N 
ATOM      7  H   UNL     1       0.167  -3.238  -2.371  0.00  0.00    +0.177 HD
ATOM      8  H   UNL     1      -0.109  -3.383  -5.003  0.00  0.00    +0.192 HD
ENDROOT
BRANCH   1  10
ATOM      9  C   UNL     1       0.143  -4.256  -0.030  0.00  0.00    +0.063 C 
ATOM     10  N   UNL     1       0.037  -4.900  -1.152  0.00  0.00    -0.184 NA
ATOM     11  C   UNL     1       0.267  -5.015   1.266  0.00  0.00    +0.068 C 
BRANCH   9  16
ATOM     12  C   UNL     1       0.140   1.495  -0.004  0.00  0.00    +0.044 C 
ATOM     13  C   UNL     1       0.141  -0.012  -0.011  0.00  0.00    -0.050 A 
ATOM     14  C   UNL     1      -0.888  -0.704   0.603  0.00  0.00    +0.004 A 
ATOM     15  C   UNL     1      -0.894  -2.083   0.601  0.00  0.00    +0.010 A 
ATOM     16  C   UNL     1       0.142  -2.781  -0.024  0.00  0.00    -0.003 A 
ATOM     17  C   UNL     1       1.178  -2.076  -0.641  0.00  0.00    +0.010 A 
ATOM     18  C   UNL     1       1.168  -0.697  -0.635  0.00  0.00    +0.004 A 
ENDBRANCH   9  16
ENDBRANCH   1  10
BRANCH   4  19
ATOM     19  S   UNL     1      -0.879  -8.079  -5.615  0.00  0.00    -0.075 S 
BRANCH  19  20
ATOM     20  C   UNL     1      -1.008  -7.821  -7.405  0.00  0.00    +0.173 C 
BRANCH  20  21
ATOM     21  C   UNL     1      -1.275  -9.139  -8.085  0.00  0.00    +0.228 C 
ATOM     22  O   UNL     1      -1.369 -10.153  -7.427  0.00  0.00    -0.275 OA
ATOM     23  N   UNL     1      -1.409  -9.191  -9.426  0.00  0.00    -0.284 N 
ATOM     24  H   UNL     1      -1.416  -8.371  -9.944  0.00  0.00    +0.155 HD
BRANCH  23  25
ATOM     25  C   UNL     1      -1.537 -10.428 -10.069  0.00  0.00    +0.052 A 
ATOM     26  C   UNL     1      -1.033 -11.577  -9.474  0.00  0.00    +0.037 A 
ATOM     27  C   UNL     1      -1.162 -12.796 -10.111  0.00  0.00    +0.057 A 
ATOM     28  C   UNL     1      -1.792 -12.873 -11.340  0.00  0.00    +0.014 A 
ATOM     29  C   UNL     1      -2.295 -11.731 -11.935  0.00  0.00    +0.022 A 
ATOM     30  C   UNL     1      -2.174 -10.509 -11.301  0.00  0.00    +0.062 A 
ATOM     31 CL   UNL     1      -2.812  -9.076 -12.046  0.00  0.00    -0.082 Cl
BRANCH  27  32
ATOM     32  C   UNL     1      -0.615 -14.043  -9.466  0.00  0.00    +0.417 C 
ATOM     33  F   UNL     1      -1.602 -14.623  -8.661  0.00  0.00    -0.166 F 
ATOM     34  F   UNL     1      -0.230 -14.950 -10.458  0.00  0.00    -0.166 F 
ATOM     35  F   UNL     1       0.493 -13.713  -8.679  0.00  0.00    -0.166 F 
ENDBRANCH  27  32
ENDBRANCH  23  25
ENDBRANCH  20  21
ENDBRANCH  19  20
ENDBRANCH   4  19
TORSDOF 7
