REMARK  Name = ZINC62702707
REMARK  6 active torsions:
REMARK  status: ('A' for Active; 'I' for Inactive)
REMARK    1  A    between atoms: C_3  and  C_9
REMARK    2  A    between atoms: C_5  and  C_7
REMARK    3  A    between atoms: C_9  and  N_10
REMARK    4  A    between atoms: N_10  and  C_11
REMARK    5  A    between atoms: C_11  and  C_12
REMARK    6  A    between atoms: C_15  and  O_19
REMARK                            x       y       z     vdW  Elec       q    Type
REMARK                         _______ _______ _______ _____ _____    ______ ____
ROOT
ATOM      1  N   UNL     1       4.103   2.451   1.359  0.00  0.00    +0.384 N 
ATOM      2  H   UNL     1       3.392   2.978   1.845  0.00  0.00    -0.085 HD
ATOM      3  H   UNL     1       4.248   1.570   1.829  0.00  0.00    -0.085 HD
ENDROOT
BRANCH   1   4
ATOM      4  C   UNL     1       3.671   2.204  -0.023  0.00  0.00    -0.046 C 
BRANCH   4   7
ATOM      5  C   UNL     1      -0.017   1.375   0.010  0.00  0.00    +0.001 A 
ATOM      6  C   UNL     1       1.170   2.086   0.002  0.00  0.00    +0.002 A 
ATOM      7  C   UNL     1       2.383   1.421  -0.013  0.00  0.00    -0.063 A 
ATOM      8  C   UNL     1       2.416   0.041  -0.021  0.00  0.00    +0.020 A 
ATOM      9  C   UNL     1       1.223  -0.682  -0.013  0.00  0.00    +0.052 A 
ATOM     10  C   UNL     1       0.002  -0.004   0.002  0.00  0.00    +0.019 A 
BRANCH   9  11
ATOM     11  C   UNL     1       1.250  -2.114  -0.022  0.00  0.00    +0.099 C 
ATOM     12  N   UNL     1       1.271  -3.250  -0.029  0.00  0.00    -0.191 NA
ENDBRANCH   9  11
ENDBRANCH   4   7
ENDBRANCH   1   4
BRANCH   1  13
ATOM     13  C   UNL     1       5.358   3.215   1.351  0.00  0.00    -0.046 C 
BRANCH  13  14
ATOM     14  C   UNL     1       5.801   3.469   2.768  0.00  0.00    -0.063 A 
ATOM     15  C   UNL     1       5.377   4.606   3.431  0.00  0.00    +0.005 A 
ATOM     16  C   UNL     1       5.783   4.842   4.730  0.00  0.00    +0.047 A 
ATOM     17  C   UNL     1       6.615   3.936   5.371  0.00  0.00    +0.131 A 
ATOM     18  C   UNL     1       7.040   2.795   4.704  0.00  0.00    +0.059 A 
ATOM     19  C   UNL     1       6.627   2.562   3.406  0.00  0.00    +0.020 A 
ATOM     20 BR   UNL     1       8.176   1.558   5.573  0.00  0.00    -0.047 Br
BRANCH  17  21
ATOM     21  O   UNL     1       7.016   4.166   6.649  0.00  0.00    -0.506 OA
ATOM     22  H   UNL     1       6.426   3.795   7.319  0.00  0.00    +0.292 HD
ENDBRANCH  17  21
ENDBRANCH  13  14
ENDBRANCH   1  13
TORSDOF 6
