REMARK  Name = ZINC66928248
REMARK  5 active torsions:
REMARK  status: ('A' for Active; 'I' for Inactive)
REMARK    1  A    between atoms: C_1  and  C_2
REMARK    2  A    between atoms: C_5  and  N_8
REMARK    3  A    between atoms: C_10  and  C_15
REMARK    4  A    between atoms: N_17  and  C_18
REMARK    5  A    between atoms: C_21  and  C_24
REMARK                            x       y       z     vdW  Elec       q    Type
REMARK                         _______ _______ _______ _____ _____    ______ ____
ROOT
ATOM      1  C   UNL     1       6.473  -2.276   0.351  0.00  0.00    +0.218 C 
ATOM      2  O   UNL     1       6.462  -3.119   1.224  0.00  0.00    -0.275 OA
ATOM      3  N   UNL     1       7.607  -1.601   0.082  0.00  0.00    -0.312 N 
ATOM      4  H   UNL     1       7.616  -0.927  -0.616  0.00  0.00    +0.149 HD
ENDROOT
BRANCH   1   7
ATOM      5  N   UNL     1       2.853  -2.027  -0.036  0.00  0.00    -0.298 N 
ATOM      6  C   UNL     1       4.049  -2.874   0.048  0.00  0.00    +0.121 C 
ATOM      7  C   UNL     1       5.218  -1.985  -0.431  0.00  0.00    +0.101 C 
ATOM      8  C   UNL     1       4.686  -0.568  -0.117  0.00  0.00    +0.110 C 
ATOM      9  C   UNL     1       3.181  -0.727  -0.129  0.00  0.00    +0.217 C 
ATOM     10  O   UNL     1       2.387   0.186  -0.210  0.00  0.00    -0.276 OA
BRANCH   5  15
ATOM     11  C   UNL     1       1.484  -2.460   4.301  0.00  0.00    +0.007 C 
ATOM     12  C   UNL     1       1.004  -2.662   2.862  0.00  0.00    -0.014 C 
ATOM     13  C   UNL     1       1.049  -1.325   2.118  0.00  0.00    +0.005 C 
ATOM     14  C   UNL     1       0.569  -1.527   0.680  0.00  0.00    +0.023 C 
ATOM     15  C   UNL     1       1.479  -2.534  -0.026  0.00  0.00    +0.076 C 
ATOM     16  C   UNL     1       1.434  -3.870   0.719  0.00  0.00    +0.023 C 
ATOM     17  C   UNL     1       1.914  -3.669   2.157  0.00  0.00    +0.005 C 
ENDBRANCH   5  15
ENDBRANCH   1   7
BRANCH   3  18
ATOM     18  C   UNL     1       8.827  -1.884   0.842  0.00  0.00    +0.073 C 
ATOM     19  C   UNL     1       8.822  -1.068   2.136  0.00  0.00    +0.023 C 
ATOM     20  C   UNL     1      10.096  -1.364   2.930  0.00  0.00    +0.014 C 
ATOM     21  C   UNL     1      11.319  -0.985   2.093  0.00  0.00    +0.075 C 
ATOM     22  C   UNL     1      11.324  -1.801   0.799  0.00  0.00    +0.014 C 
ATOM     23  C   UNL     1      10.050  -1.505   0.004  0.00  0.00    +0.023 C 
BRANCH  21  24
ATOM     24  C   UNL     1      12.574  -1.276   2.875  0.00  0.00    +0.214 C 
ATOM     25  O   UNL     1      12.497  -1.741   3.993  0.00  0.00    -0.276 OA
ATOM     26  N   UNL     1      13.781  -1.020   2.333  0.00  0.00    -0.329 N 
ATOM     27  H   UNL     1      13.842  -0.648   1.439  0.00  0.00    +0.145 HD
ATOM     28  H   UNL     1      14.588  -1.207   2.837  0.00  0.00    +0.145 HD
ENDBRANCH  21  24
ENDBRANCH   3  18
TORSDOF 4
