REMARK  Name = ZINC53205762
REMARK  6 active torsions:
REMARK  status: ('A' for Active; 'I' for Inactive)
REMARK    1  A    between atoms: C_1  and  N_2
REMARK    2  A    between atoms: C_6  and  N_9
REMARK    3  A    between atoms: N_9  and  C_10
REMARK    4  A    between atoms: N_9  and  S_11
REMARK    5  A    between atoms: S_11  and  C_14
REMARK    6  A    between atoms: C_19  and  N_20
REMARK                            x       y       z     vdW  Elec       q    Type
REMARK                         _______ _______ _______ _____ _____    ______ ____
ROOT
ATOM      1  S   UNL     1       2.778  -3.378   2.252  0.00  0.00    +0.063 S 
ATOM      2  O   UNL     1       2.886  -4.270   3.352  0.00  0.00    -0.153 OA
ATOM      3  O   UNL     1       2.609  -3.833   0.916  0.00  0.00    -0.153 OA
ENDROOT
BRANCH   1   4
ATOM      4  C   UNL     1       4.233  -2.384   2.264  0.00  0.00    +0.127 A 
ATOM      5  C   UNL     1       5.187  -2.567   3.246  0.00  0.00    +0.045 A 
ATOM      6  C   UNL     1       6.330  -1.787   3.257  0.00  0.00    +0.020 A 
ATOM      7  C   UNL     1       6.521  -0.822   2.284  0.00  0.00    +0.017 A 
ATOM      8  C   UNL     1       5.571  -0.634   1.299  0.00  0.00    +0.026 A 
ATOM      9  C   UNL     1       4.425  -1.420   1.283  0.00  0.00    +0.051 A 
ATOM     10 BR   UNL     1       7.632  -2.040   4.604  0.00  0.00    -0.050 Br
BRANCH   9  11
ATOM     11  N   UNL     1       3.465  -1.237   0.284  0.00  0.00    -0.356 N 
ATOM     12  H   UNL     1       2.722  -1.856   0.206  0.00  0.00    +0.142 HD
ATOM     13  H   UNL     1       3.542  -0.491  -0.331  0.00  0.00    +0.142 HD
ENDBRANCH   9  11
ENDBRANCH   1   4
BRANCH   1  14
ATOM     14  N   UNL     1       1.499  -2.377   2.577  0.00  0.00    -0.178 NA
ATOM     15  C   UNL     1       1.170  -2.036   3.963  0.00  0.00    +0.132 C 
BRANCH  14  21
ATOM     16  C   UNL     1       0.110   1.703   0.368  0.00  0.00    -0.096 C 
ATOM     17  N   UNL     1      -0.030   0.241   0.396  0.00  0.00    +0.379 N 
ATOM     18  C   UNL     1      -1.442  -0.110   0.590  0.00  0.00    -0.079 C 
ATOM     19  C   UNL     1      -1.605  -1.630   0.539  0.00  0.00    -0.017 C 
ATOM     20  C   UNL     1      -0.762  -2.267   1.648  0.00  0.00    +0.017 C 
ATOM     21  C   UNL     1       0.697  -1.833   1.478  0.00  0.00    +0.063 C 
ATOM     22  C   UNL     1       0.775  -0.305   1.495  0.00  0.00    -0.058 C 
ATOM     23  H   UNL     1       0.292  -0.143  -0.479  0.00  0.00    -0.082 HD
ENDBRANCH  14  21
ENDBRANCH   1  14
TORSDOF 4
