REMARK  Name = ZINC39671039
REMARK  10 active torsions:
REMARK  status: ('A' for Active; 'I' for Inactive)
REMARK    1  A    between atoms: C_1  and  C_2
REMARK    2  A    between atoms: C_2  and  C_3
REMARK    3  A    between atoms: C_3  and  C_4
REMARK    4  A    between atoms: C_4  and  C_5
REMARK    5  A    between atoms: C_5  and  C_7
REMARK    6  A    between atoms: C_5  and  C_8
REMARK    7  A    between atoms: C_12  and  C_21
REMARK    8  A    between atoms: N_23  and  C_24
REMARK    9  A    between atoms: C_24  and  C_25
REMARK   10  A    between atoms: C_25  and  C_26
REMARK                            x       y       z     vdW  Elec       q    Type
REMARK                         _______ _______ _______ _____ _____    ______ ____
ROOT
ATOM      1  C   UNL     1       1.419  -4.211   2.486  0.00  0.00    +0.218 C 
ATOM      2  O   UNL     1       0.786  -4.839   1.665  0.00  0.00    -0.275 OA
ATOM      3  N   UNL     1       1.985  -4.847   3.531  0.00  0.00    -0.300 N 
ATOM      4  C   UNL     1       2.782  -4.255   4.631  0.00  0.00    +0.121 C 
ATOM      5  C   UNL     1       2.333  -5.021   5.896  0.00  0.00    +0.100 C 
ATOM      6  C   UNL     1       1.789  -6.361   5.370  0.00  0.00    -0.004 C 
ATOM      7  C   UNL     1       1.944  -6.296   3.844  0.00  0.00    +0.115 C 
ATOM      8  C   UNL     1       2.603  -7.520   5.936  0.00  0.00    -0.010 C 
ATOM      9  C   UNL     1       2.007  -8.843   5.446  0.00  0.00    -0.082 C 
ATOM     10  N   UNL     1       0.608  -8.943   5.880  0.00  0.00    +0.379 N 
ATOM     11  C   UNL     1      -0.187  -7.878   5.257  0.00  0.00    -0.082 C 
ATOM     12  C   UNL     1       0.316  -6.514   5.739  0.00  0.00    -0.010 C 
ATOM     13  H   UNL     1       0.236  -9.841   5.609  0.00  0.00    -0.086 HD
ATOM     14  H   UNL     1       0.562  -8.852   6.884  0.00  0.00    -0.086 HD
ENDROOT
BRANCH   5  15
ATOM     15  C   UNL     1       3.505  -5.253   6.814  0.00  0.00    +0.218 C 
ATOM     16  O   UNL     1       4.619  -5.383   6.353  0.00  0.00    -0.275 OA
ATOM     17  N   UNL     1       3.315  -5.314   8.147  0.00  0.00    -0.315 N 
ATOM     18  H   UNL     1       2.424  -5.210   8.515  0.00  0.00    +0.149 HD
BRANCH  17  19
ATOM     19  C   UNL     1       4.455  -5.539   9.039  0.00  0.00    +0.112 C 
BRANCH  19  20
ATOM     20  C   UNL     1       3.969  -5.566  10.490  0.00  0.00    +0.093 C 
BRANCH  20  21
ATOM     21  C   UNL     1       5.141  -5.797  11.408  0.00  0.00    +0.106 A 
ATOM     22  C   UNL     1       5.906  -4.840  11.964  0.00  0.00    +0.044 A 
ATOM     23  C   UNL     1       6.882  -5.498  12.746  0.00  0.00    +0.041 A 
ATOM     24  C   UNL     1       6.655  -6.819  12.622  0.00  0.00    +0.195 A 
ATOM     25  O   UNL     1       5.596  -6.993  11.815  0.00  0.00    -0.468 OA
ENDBRANCH  20  21
ENDBRANCH  19  20
ENDBRANCH  17  19
ENDBRANCH   5  15
BRANCH   1  26
ATOM     26  C   UNL     1       1.573  -2.719   2.339  0.00  0.00    +0.072 C 
ATOM     27  C   UNL     1       3.058  -2.368   2.226  0.00  0.00    +0.017 C 
BRANCH  26  28
ATOM     28  C   UNL     1       0.842  -2.252   1.079  0.00  0.00    +0.012 C 
BRANCH  28  29
ATOM     29  C   UNL     1       0.892  -0.725   0.996  0.00  0.00    +0.000 C 
BRANCH  29  31
ATOM     30  C   UNL     1       0.210   1.268  -0.346  0.00  0.00    +0.004 C 
ATOM     31  C   UNL     1       0.160  -0.259  -0.264  0.00  0.00    -0.003 C 
ENDBRANCH  29  31
ENDBRANCH  28  29
ENDBRANCH  26  28
ENDBRANCH   1  26
TORSDOF 8
