REMARK  Name = ZINC42328333
REMARK  7 active torsions:
REMARK  status: ('A' for Active; 'I' for Inactive)
REMARK    1  A    between atoms: C_3  and  C_6
REMARK    2  A    between atoms: C_6  and  C_8
REMARK    3  A    between atoms: C_6  and  N_11
REMARK    4  A    between atoms: N_11  and  C_12
REMARK    5  A    between atoms: C_12  and  C_13
REMARK    6  A    between atoms: C_16  and  S_19
REMARK    7  A    between atoms: S_19  and  N_22
REMARK                            x       y       z     vdW  Elec       q    Type
REMARK                         _______ _______ _______ _____ _____    ______ ____
ROOT
ATOM      1  C   UNL     1       5.942   1.574   0.937  0.00  0.00    -0.046 C 
ENDROOT
BRANCH   1   2
ATOM      2  C   UNL     1       6.792   0.715   1.838  0.00  0.00    -0.064 A 
ATOM      3  C   UNL     1       6.843   0.976   3.194  0.00  0.00    +0.003 A 
ATOM      4  C   UNL     1       7.622   0.188   4.020  0.00  0.00    +0.029 A 
ATOM      5  C   UNL     1       8.350  -0.861   3.490  0.00  0.00    +0.105 A 
ATOM      6  C   UNL     1       8.297  -1.122   2.134  0.00  0.00    +0.029 A 
ATOM      7  C   UNL     1       7.515  -0.337   1.308  0.00  0.00    +0.003 A 
BRANCH   5   8
ATOM      8  S   UNL     1       9.344  -1.864   4.543  0.00  0.00    +0.056 S 
ATOM      9  O   UNL     1      10.352  -2.440   3.723  0.00  0.00    -0.153 OA
ATOM     10  O   UNL     1       9.650  -1.076   5.685  0.00  0.00    -0.153 OA
BRANCH   8  11
ATOM     11  N   UNL     1       8.393  -3.113   5.071  0.00  0.00    -0.204 NA
ATOM     12  H   UNL     1       7.469  -3.174   4.782  0.00  0.00    +0.144 HD
ATOM     13  H   UNL     1       8.760  -3.784   5.668  0.00  0.00    +0.144 HD
ENDBRANCH   8  11
ENDBRANCH   5   8
ENDBRANCH   1   2
BRANCH   1  14
ATOM     14  N   UNL     1       4.589   1.008   0.854  0.00  0.00    +0.387 N 
ATOM     15  H   UNL     1       4.179   0.979   1.775  0.00  0.00    -0.085 HD
ATOM     16  H   UNL     1       4.638   0.073   0.478  0.00  0.00    -0.085 HD
BRANCH  14  17
ATOM     17  C   UNL     1       3.761   1.845  -0.024  0.00  0.00    -0.030 C 
BRANCH  17  20
ATOM     18  C   UNL     1      -0.016   1.351   0.009  0.00  0.00    +0.008 A 
ATOM     19  C   UNL     1       1.183   2.038   0.002  0.00  0.00    +0.009 A 
ATOM     20  C   UNL     1       2.343   1.336  -0.013  0.00  0.00    -0.024 A 
ATOM     21  S   UNL     1       1.754  -0.349  -0.017  0.00  0.00    -0.103 S 
ATOM     22  C   UNL     1       0.002  -0.004   0.002  0.00  0.00    +0.045 A 
ENDBRANCH  17  20
BRANCH  17  23
ATOM     23  C   UNL     1       4.312   1.789  -1.451  0.00  0.00    -0.020 C 
ATOM     24  C   UNL     1       3.415   1.181  -2.531  0.00  0.00    +0.002 C 
ATOM     25  C   UNL     1       3.655   2.691  -2.498  0.00  0.00    +0.002 C 
ENDBRANCH  17  23
ENDBRANCH  14  17
ENDBRANCH   1  14
TORSDOF 7
