REMARK  Name = ZINC33812672
REMARK  12 active torsions:
REMARK  status: ('A' for Active; 'I' for Inactive)
REMARK    1  A    between atoms: C_1  and  C_2
REMARK    2  A    between atoms: C_2  and  C_3
REMARK    3  A    between atoms: C_3  and  C_4
REMARK    4  A    between atoms: C_4  and  N_5
REMARK    5  A    between atoms: C_6  and  N_30
REMARK    6  A    between atoms: C_7  and  C_15
REMARK    7  A    between atoms: C_8  and  C_14
REMARK    8  A    between atoms: C_9  and  C_12
REMARK    9  A    between atoms: N_19  and  C_23
REMARK   10  A    between atoms: C_23  and  C_24
REMARK   11  A    between atoms: N_33  and  C_36
REMARK   12  A    between atoms: C_36  and  C_37
REMARK                            x       y       z     vdW  Elec       q    Type
REMARK                         _______ _______ _______ _____ _____    ______ ____
ROOT
ATOM      1  N   UNL     1       1.972  -2.554  -2.580  0.00  0.00    -0.295 N 
ATOM      2  C   UNL     1       1.107  -2.730  -3.612  0.00  0.00    +0.112 A 
ATOM      3  C   UNL     1       1.477  -3.493  -4.732  0.00  0.00    +0.019 A 
ATOM      4  C   UNL     1       2.754  -4.077  -4.778  0.00  0.00    -0.017 A 
ATOM      5  C   UNL     1       3.623  -3.882  -3.708  0.00  0.00    +0.120 A 
ATOM      6  C   UNL     1       3.202  -3.099  -2.603  0.00  0.00    +0.270 A 
ATOM      7  O   UNL     1       3.960  -2.920  -1.666  0.00  0.00    -0.266 OA
ATOM      8  C   UNL     1       3.176  -4.902  -5.967  0.00  0.00    +0.046 C 
ENDROOT
BRANCH   3   9
ATOM      9  C   UNL     1       0.539  -3.680  -5.841  0.00  0.00    +0.032 C 
ATOM     10  C   UNL     1       0.816  -3.147  -7.062  0.00  0.00    +0.077 C 
ATOM     11  C   UNL     1       1.890  -2.294  -7.459  0.00  0.00    +0.258 C 
ATOM     12  O   UNL     1       2.734  -1.934  -6.659  0.00  0.00    -0.269 OA
ATOM     13  N   UNL     1       1.940  -1.906  -8.722  0.00  0.00    -0.253 N 
ATOM     14  C   UNL     1       1.003  -2.305  -9.610  0.00  0.00    +0.121 C 
ATOM     15  S   UNL     1       0.873  -1.929 -11.275  0.00  0.00    -0.027 S 
ATOM     16  S   UNL     1      -0.063  -3.330  -8.608  0.00  0.00    -0.061 S 
BRANCH  13  17
ATOM     17  C   UNL     1       3.028  -1.031  -9.165  0.00  0.00    +0.146 C 
BRANCH  17  18
ATOM     18  C   UNL     1       4.206  -1.883  -9.643  0.00  0.00    +0.136 C 
ATOM     19  C   UNL     1       5.401  -0.972  -9.998  0.00  0.00    +0.035 C 
ATOM     20  C   UNL     1       5.973  -1.659 -11.268  0.00  0.00    +0.031 C 
ATOM     21  C   UNL     1       4.674  -2.192 -11.924  0.00  0.00    +0.160 C 
ATOM     22  O   UNL     1       3.838  -2.599 -10.827  0.00  0.00    -0.375 OA
ENDBRANCH  17  18
ENDBRANCH  13  17
ENDBRANCH   3   9
BRANCH   2  23
ATOM     23  N   UNL     1      -0.131  -2.160  -3.561  0.00  0.00    -0.320 N 
ATOM     24  C   UNL     1      -0.389  -0.853  -4.186  0.00  0.00    +0.088 C 
ATOM     25  C   UNL     1      -1.632  -0.976  -5.074  0.00  0.00    -0.060 C 
ATOM     26  N   UNL     1      -2.750  -1.499  -4.279  0.00  0.00    +0.382 N 
ATOM     27  C   UNL     1      -2.449  -2.864  -3.830  0.00  0.00    -0.060 C 
ATOM     28  C   UNL     1      -1.248  -2.838  -2.885  0.00  0.00    +0.088 C 
ATOM     29  H   UNL     1      -2.897  -0.907  -3.475  0.00  0.00    -0.082 HD
BRANCH  26  30
ATOM     30  C   UNL     1      -3.968  -1.513  -5.100  0.00  0.00    -0.082 C 
ATOM     31  C   UNL     1      -5.159  -1.940  -4.239  0.00  0.00    -0.017 C 
ENDBRANCH  26  30
ENDBRANCH   2  23
BRANCH   5  32
ATOM     32  C   UNL     1       4.931  -4.465  -3.724  0.00  0.00    +0.105 C 
ATOM     33  N   UNL     1       5.969  -4.926  -3.737  0.00  0.00    -0.191 NA
ENDBRANCH   5  32
BRANCH   1  34
ATOM     34  C   UNL     1       1.561  -1.754  -1.425  0.00  0.00    +0.126 C 
BRANCH  34  35
ATOM     35  C   UNL     1       2.043  -0.313  -1.605  0.00  0.00    +0.021 C 
BRANCH  35  37
ATOM     36  C   UNL     1       2.095   1.965  -0.579  0.00  0.00    +0.004 C 
ATOM     37  C   UNL     1       1.613   0.524  -0.398  0.00  0.00    -0.002 C 
ENDBRANCH  35  37
ENDBRANCH  34  35
ENDBRANCH   1  34
TORSDOF 9
