REMARK  Name = ZINC39400431
REMARK  10 active torsions:
REMARK  status: ('A' for Active; 'I' for Inactive)
REMARK    1  A    between atoms: C_1  and  C_2
REMARK    2  A    between atoms: C_4  and  C_18
REMARK    3  A    between atoms: N_7  and  C_8
REMARK    4  A    between atoms: C_18  and  C_20
REMARK    5  A    between atoms: C_18  and  N_21
REMARK    6  A    between atoms: N_21  and  C_22
REMARK    7  A    between atoms: C_22  and  C_23
REMARK    8  A    between atoms: C_25  and  C_35
REMARK    9  A    between atoms: C_28  and  O_33
REMARK   10  A    between atoms: O_33  and  C_34
REMARK                            x       y       z     vdW  Elec       q    Type
REMARK                         _______ _______ _______ _____ _____    ______ ____
ROOT
ATOM      1  C   UNL     1      -2.352  -0.506  -1.013  0.00  0.00    -0.045 C 
ATOM      2  C   UNL     1      -2.677   0.973  -1.234  0.00  0.00    -0.009 C 
ENDROOT
BRANCH   1   5
ATOM      3  C   UNL     1      -2.685  -1.087   2.154  0.00  0.00    +0.034 C 
ATOM      4  C   UNL     1      -1.550  -0.261   1.546  0.00  0.00    +0.117 C 
ATOM      5  C   UNL     1      -1.341  -0.638   0.097  0.00  0.00    -0.047 C 
ATOM      6  C   UNL     1      -0.115  -1.103  -0.019  0.00  0.00    +0.087 C 
ATOM      7  N   UNL     1       0.555  -1.093   1.189  0.00  0.00    -0.271 N 
ATOM      8  N   UNL     1      -0.272  -0.583   2.203  0.00  0.00    -0.246 N 
ATOM      9  H   UNL     1       1.468  -1.395   1.318  0.00  0.00    +0.169 HD
BRANCH   8  10
ATOM     10  C   UNL     1       0.048  -0.415   3.548  0.00  0.00    +0.056 A 
ATOM     11  C   UNL     1      -0.737  -0.988   4.526  0.00  0.00    +0.025 A 
ATOM     12  C   UNL     1      -0.426  -0.827   5.873  0.00  0.00    +0.002 A 
ATOM     13  C   UNL     1       0.660  -0.103   6.262  0.00  0.00    +0.008 A 
ATOM     14  C   UNL     1       1.486   0.497   5.297  0.00  0.00    -0.016 A 
ATOM     15  C   UNL     1       1.183   0.336   3.922  0.00  0.00    +0.005 A 
ATOM     16  C   UNL     1       2.012   0.932   2.959  0.00  0.00    +0.010 A 
ATOM     17  C   UNL     1       3.098   1.651   3.357  0.00  0.00    +0.001 A 
ATOM     18  C   UNL     1       3.400   1.805   4.708  0.00  0.00    +0.001 A 
ATOM     19  C   UNL     1       2.612   1.251   5.670  0.00  0.00    +0.008 A 
ENDBRANCH   8  10
ENDBRANCH   1   5
BRANCH   1  20
ATOM     20  N   UNL     1      -1.800  -1.076  -2.249  0.00  0.00    +0.387 N 
ATOM     21  H   UNL     1      -1.005  -0.530  -2.546  0.00  0.00    -0.085 HD
ATOM     22  H   UNL     1      -1.510  -2.027  -2.080  0.00  0.00    -0.085 HD
BRANCH  20  23
ATOM     23  C   UNL     1      -2.827  -1.056  -3.299  0.00  0.00    -0.027 C 
BRANCH  23  24
ATOM     24  C   UNL     1      -2.260  -1.641  -4.567  0.00  0.00    +0.003 A 
ATOM     25  H   UNL     1      -1.795   0.055  -5.682  0.00  0.00    +0.166 HD
ATOM     26  C   UNL     1      -2.135  -2.953  -4.822  0.00  0.00    -0.024 A 
ATOM     27  C   UNL     1      -1.544  -3.076  -6.157  0.00  0.00    +0.006 A 
ATOM     28  C   UNL     1      -1.180  -4.160  -6.958  0.00  0.00    +0.056 A 
ATOM     29  C   UNL     1      -0.631  -3.932  -8.205  0.00  0.00    +0.121 A 
ATOM     30  C   UNL     1      -0.441  -2.630  -8.661  0.00  0.00    +0.047 A 
ATOM     31  C   UNL     1      -0.797  -1.554  -7.878  0.00  0.00    +0.030 A 
ATOM     32  C   UNL     1      -1.352  -1.763  -6.620  0.00  0.00    +0.047 A 
ATOM     33  N   UNL     1      -1.803  -0.913  -5.632  0.00  0.00    -0.359 N 
ATOM     34  C   UNL     1      -2.529  -4.085  -3.908  0.00  0.00    +0.046 C 
BRANCH  29  35
ATOM     35  O   UNL     1      -0.274  -4.983  -8.990  0.00  0.00    -0.495 OA
ATOM     36  C   UNL     1       0.288  -4.677 -10.268  0.00  0.00    +0.277 C 
ENDBRANCH  29  35
ENDBRANCH  23  24
ENDBRANCH  20  23
ENDBRANCH   1  20
TORSDOF 6
