REMARK  Name = ZINC44164112
REMARK  7 active torsions:
REMARK  status: ('A' for Active; 'I' for Inactive)
REMARK    1  A    between atoms: C_4  and  C_7
REMARK    2  A    between atoms: C_9  and  C_28
REMARK    3  A    between atoms: C_13  and  C_16
REMARK    4  A    between atoms: N_18  and  C_19
REMARK    5  A    between atoms: C_19  and  C_20
REMARK    6  A    between atoms: C_20  and  C_21
REMARK    7  A    between atoms: C_24  and  O_27
REMARK                            x       y       z     vdW  Elec       q    Type
REMARK                         _______ _______ _______ _____ _____    ______ ____
ROOT
ATOM      1  C   UNL     1       3.690  -0.700  -0.003  0.00  0.00    -0.022 C 
ATOM      2  C   UNL     1       3.982  -1.141  -1.442  0.00  0.00    +0.066 C 
ATOM      3  S   UNL     1       5.608  -1.958  -1.469  0.00  0.00    -0.155 S 
ATOM      4  C   UNL     1       5.476  -3.153  -0.103  0.00  0.00    +0.063 C 
ATOM      5  C   UNL     1       4.960  -2.411   1.136  0.00  0.00    +0.027 C 
ATOM      6  N   UNL     1       3.624  -1.872   0.871  0.00  0.00    +0.393 N 
ATOM      7  H   UNL     1       3.195  -1.609   1.746  0.00  0.00    -0.084 HD
ATOM      8  H   UNL     1       3.062  -2.583   0.428  0.00  0.00    -0.084 HD
ENDROOT
BRANCH   1  12
ATOM      9  C   UNL     1      -0.045   1.371   0.114  0.00  0.00    +0.000 A 
ATOM     10  C   UNL     1       1.140   2.083   0.099  0.00  0.00    +0.000 A 
ATOM     11  C   UNL     1       2.349   1.413   0.061  0.00  0.00    +0.002 A 
ATOM     12  C   UNL     1       2.372   0.031   0.039  0.00  0.00    -0.060 A 
ATOM     13  C   UNL     1       1.188  -0.681   0.055  0.00  0.00    +0.002 A 
ATOM     14  C   UNL     1      -0.021  -0.011   0.091  0.00  0.00    +0.000 A 
ENDBRANCH   1  12
BRANCH   2  15
ATOM     15  C   UNL     1       4.003   0.063  -2.349  0.00  0.00    -0.036 A 
ATOM     16  C   UNL     1       4.914   1.079  -2.128  0.00  0.00    +0.004 A 
ATOM     17  C   UNL     1       4.933   2.184  -2.959  0.00  0.00    +0.000 A 
ATOM     18  C   UNL     1       4.041   2.272  -4.011  0.00  0.00    +0.000 A 
ATOM     19  C   UNL     1       3.130   1.256  -4.233  0.00  0.00    +0.000 A 
ATOM     20  C   UNL     1       3.114   0.149  -3.404  0.00  0.00    +0.004 A 
ENDBRANCH   2  15
BRANCH   5  21
ATOM     21  C   UNL     1       5.899  -1.280   1.469  0.00  0.00    +0.200 C 
ATOM     22  O   UNL     1       5.460  -0.235   1.903  0.00  0.00    -0.278 OA
ATOM     23  N   UNL     1       7.226  -1.429   1.285  0.00  0.00    -0.316 N 
ATOM     24  H   UNL     1       7.577  -2.264   0.938  0.00  0.00    +0.149 HD
BRANCH  23  25
ATOM     25  C   UNL     1       8.138  -0.329   1.609  0.00  0.00    +0.109 C 
BRANCH  25  26
ATOM     26  C   UNL     1       9.577  -0.755   1.310  0.00  0.00    +0.054 C 
BRANCH  26  27
ATOM     27  C   UNL     1      10.515   0.376   1.643  0.00  0.00    -0.046 A 
ATOM     28  C   UNL     1      10.833   1.315   0.680  0.00  0.00    +0.007 A 
ATOM     29  C   UNL     1      11.693   2.353   0.983  0.00  0.00    +0.045 A 
ATOM     30  C   UNL     1      12.238   2.452   2.255  0.00  0.00    +0.117 A 
ATOM     31  C   UNL     1      11.918   1.508   3.220  0.00  0.00    +0.045 A 
ATOM     32  C   UNL     1      11.053   0.475   2.913  0.00  0.00    +0.007 A 
BRANCH  30  33
ATOM     33  O   UNL     1      13.085   3.471   2.555  0.00  0.00    -0.507 OA
ATOM     34  H   UNL     1      12.645   4.261   2.897  0.00  0.00    +0.292 HD
ENDBRANCH  30  33
ENDBRANCH  26  27
ENDBRANCH  25  26
ENDBRANCH  23  25
ENDBRANCH   5  21
TORSDOF 7
