REMARK  Name = ZINC59094463
REMARK  12 active torsions:
REMARK  status: ('A' for Active; 'I' for Inactive)
REMARK    1  A    between atoms: C_1  and  C_2
REMARK    2  A    between atoms: C_2  and  C_31
REMARK    3  A    between atoms: C_4  and  N_10
REMARK    4  A    between atoms: C_6  and  C_8
REMARK    5  A    between atoms: C_6  and  C_9
REMARK    6  A    between atoms: N_10  and  C_11
REMARK    7  A    between atoms: N_10  and  C_20
REMARK    8  A    between atoms: C_11  and  C_12
REMARK    9  A    between atoms: C_17  and  O_18
REMARK   10  A    between atoms: O_18  and  C_19
REMARK   11  A    between atoms: C_20  and  N_22
REMARK   12  A    between atoms: N_22  and  C_23
REMARK                            x       y       z     vdW  Elec       q    Type
REMARK                         _______ _______ _______ _____ _____    ______ ____
ROOT
ATOM      1  N   UNL     1       2.618  -0.765  -2.529  0.00  0.00    -0.305 N 
ENDROOT
BRANCH   1   5
ATOM      2  C   UNL     1       0.658   2.367  -0.133  0.00  0.00    -0.010 C 
ATOM      3  C   UNL     1       0.305   0.881  -0.011  0.00  0.00    -0.072 C 
ATOM      4  C   UNL     1       0.726   0.146  -1.280  0.00  0.00    +0.009 C 
ATOM      5  C   UNL     1       2.244  -0.029  -1.315  0.00  0.00    +0.073 C 
ATOM      6  C   UNL     1       2.660  -0.838  -0.087  0.00  0.00    +0.009 C 
ATOM      7  C   UNL     1       2.254  -0.111   1.191  0.00  0.00    -0.072 C 
ATOM      8  N   UNL     1       0.862   0.304   1.200  0.00  0.00    +0.386 N 
ATOM      9  C   UNL     1       2.459  -1.093   2.367  0.00  0.00    -0.010 C 
ATOM     10  C   UNL     1       3.191   1.078   1.430  0.00  0.00    -0.010 C 
ATOM     11  C   UNL     1      -1.235   0.788   0.088  0.00  0.00    -0.010 C 
ATOM     12  H   UNL     1       0.731   0.973   1.964  0.00  0.00    -0.084 HD
ATOM     13  H   UNL     1       0.289  -0.505   1.461  0.00  0.00    -0.084 HD
ENDBRANCH   1   5
BRANCH   1  14
ATOM     14  C   UNL     1       2.151  -2.014  -2.731  0.00  0.00    +0.138 C 
ATOM     15  S   UNL     1       1.056  -2.709  -1.614  0.00  0.00    -0.018 S 
BRANCH  14  16
ATOM     16  N   UNL     1       2.547  -2.715  -3.812  0.00  0.00    -0.297 N 
ATOM     17  H   UNL     1       3.160  -3.460  -3.709  0.00  0.00    +0.154 HD
BRANCH  16  18
ATOM     18  C   UNL     1       2.074  -2.368  -5.083  0.00  0.00    +0.034 A 
ATOM     19  C   UNL     1       1.242  -1.267  -5.239  0.00  0.00    +0.026 A 
ATOM     20  C   UNL     1       0.777  -0.926  -6.493  0.00  0.00    +0.041 A 
ATOM     21  C   UNL     1       1.138  -1.681  -7.596  0.00  0.00    +0.142 A 
ATOM     22  C   UNL     1       1.967  -2.781  -7.443  0.00  0.00    +0.078 A 
ATOM     23  C   UNL     1       2.440  -3.122  -6.190  0.00  0.00    +0.046 A 
ATOM     24 CL   UNL     1       2.417  -3.727  -8.827  0.00  0.00    -0.081 Cl
ATOM     25  F   UNL     1       0.680  -1.346  -8.822  0.00  0.00    -0.204 F 
ENDBRANCH  16  18
ENDBRANCH  14  16
ENDBRANCH   1  14
BRANCH   1  26
ATOM     26  C   UNL     1       3.498  -0.143  -3.522  0.00  0.00    +0.145 C 
BRANCH  26  27
ATOM     27  C   UNL     1       4.934  -0.316  -3.098  0.00  0.00    +0.011 A 
ATOM     28  C   UNL     1       5.574   0.691  -2.401  0.00  0.00    +0.009 A 
ATOM     29  C   UNL     1       6.892   0.534  -2.013  0.00  0.00    +0.001 A 
ATOM     30  C   UNL     1       7.571  -0.630  -2.319  0.00  0.00    +0.004 A 
ATOM     31  C   UNL     1       6.935  -1.640  -3.014  0.00  0.00    +0.046 A 
ATOM     32  C   UNL     1       5.612  -1.487  -3.401  0.00  0.00    +0.125 A 
BRANCH  32  33
ATOM     33  O   UNL     1       4.982  -2.481  -4.081  0.00  0.00    -0.495 OA
ATOM     34  C   UNL     1       5.741  -3.659  -4.359  0.00  0.00    +0.277 C 
ENDBRANCH  32  33
ENDBRANCH  26  27
ENDBRANCH   1  26
TORSDOF 7
