REMARK  Name = ZINC03831468
REMARK  8 active torsions:
REMARK  status: ('A' for Active; 'I' for Inactive)
REMARK    1  A    between atoms: C_1  and  C_2
REMARK    2  A    between atoms: C_7  and  O_29
REMARK    3  A    between atoms: C_14  and  O_28
REMARK    4  A    between atoms: C_16  and  N_47
REMARK    5  A    between atoms: C_18  and  O_26
REMARK    6  A    between atoms: C_20  and  N_44
REMARK    7  A    between atoms: C_25  and  N_44
REMARK    8  A    between atoms: C_27  and  N_47
REMARK                            x       y       z     vdW  Elec       q    Type
REMARK                         _______ _______ _______ _____ _____    ______ ____
ROOT
ATOM      1  C   UNL     1      -5.622   3.202   5.026  0.00  0.00    +0.038 C 
ATOM      2  C   UNL     1      -4.961   2.799   3.706  0.00  0.00    +0.126 C 
ATOM      3  C   UNL     1      -5.815   3.296   2.533  0.00  0.00    +0.111 C 
ATOM      4  C   UNL     1      -5.042   3.056   1.252  0.00  0.00    +0.199 C 
ATOM      5  O   UNL     1      -5.560   2.529   0.297  0.00  0.00    -0.291 OA
ATOM      6  C   UNL     1      -3.595   3.500   1.216  0.00  0.00    +0.281 C 
ATOM      7  C   UNL     1      -2.901   2.985   2.481  0.00  0.00    +0.319 C 
ATOM      8  O   UNL     1      -3.660   3.384   3.626  0.00  0.00    -0.343 OA
ATOM      9  O   UNL     1      -2.834   1.557   2.443  0.00  0.00    -0.338 OA
ATOM     10  C   UNL     1      -2.163   1.044   1.285  0.00  0.00    +0.176 C 
ATOM     11  C   UNL     1      -0.730   1.579   1.266  0.00  0.00    +0.134 C 
ATOM     12  C   UNL     1      -0.013   1.086   0.008  0.00  0.00    -0.013 C 
ATOM     13  C   UNL     1      -0.754   1.593  -1.231  0.00  0.00    +0.092 C 
ATOM     14  C   UNL     1      -2.186   1.053  -1.220  0.00  0.00    -0.013 C 
ATOM     15  C   UNL     1      -2.908   1.532   0.038  0.00  0.00    +0.142 C 
ATOM     16  O   UNL     1      -2.959   2.960   0.057  0.00  0.00    -0.335 OA
ENDROOT
BRANCH  14  18
ATOM     17  C   UNL     1      -2.643   0.675  -3.567  0.00  0.00    -0.100 C 
ATOM     18  N   UNL     1      -2.906   1.548  -2.408  0.00  0.00    +0.382 N 
ATOM     19  H   UNL     1      -2.589   2.501  -2.623  0.00  0.00    -0.086 HD
ATOM     20  H   UNL     1      -3.914   1.558  -2.213  0.00  0.00    -0.086 HD
ENDBRANCH  14  18
BRANCH  12  22
ATOM     21  C   UNL     1       2.256   0.719   0.771  0.00  0.00    -0.100 C 
ATOM     22  N   UNL     1       1.368   1.604  -0.007  0.00  0.00    +0.382 N 
ATOM     23  H   UNL     1       1.382   2.544   0.404  0.00  0.00    -0.086 HD
ATOM     24  H   UNL     1       1.702   1.649  -0.977  0.00  0.00    -0.086 HD
ENDBRANCH  12  22
BRANCH  13  25
ATOM     25  O   UNL     1      -0.783   3.022  -1.218  0.00  0.00    -0.395 OA
ATOM     26  H   UNL     1       0.092   3.433  -1.221  0.00  0.00    +0.210 HD
ENDBRANCH  13  25
BRANCH  11  27
ATOM     27  O   UNL     1      -0.755   3.008   1.269  0.00  0.00    -0.391 OA
ATOM     28  H   UNL     1       0.121   3.417   1.260  0.00  0.00    +0.210 HD
ENDBRANCH  11  27
BRANCH   6  29
ATOM     29  O   UNL     1      -3.533   4.927   1.174  0.00  0.00    -0.355 OA
ATOM     30  H   UNL     1      -3.968   5.317   0.403  0.00  0.00    +0.213 HD
ENDBRANCH   6  29
TORSDOF 5
