REMARK  Name = ZINC28914890
REMARK  8 active torsions:
REMARK  status: ('A' for Active; 'I' for Inactive)
REMARK    1  A    between atoms: C_1  and  C_2
REMARK    2  A    between atoms: C_2  and  C_4
REMARK    3  A    between atoms: C_2  and  O_29
REMARK    4  A    between atoms: C_4  and  N_5
REMARK    5  A    between atoms: N_14  and  C_15
REMARK    6  A    between atoms: C_15  and  C_16
REMARK    7  A    between atoms: N_18  and  C_19
REMARK    8  A    between atoms: C_23  and  N_25
REMARK                            x       y       z     vdW  Elec       q    Type
REMARK                         _______ _______ _______ _____ _____    ______ ____
ROOT
ATOM      1  N   UNL     1       1.633  -1.749  -0.005  0.00  0.00    -0.314 N 
ATOM      2  C   UNL     1       1.245  -0.426  -0.004  0.00  0.00    +0.175 A 
ATOM      3  N   UNL     1       0.004  -0.006   0.008  0.00  0.00    -0.327 N 
ATOM      4  C   UNL     1      -0.018   1.352   0.006  0.00  0.00    +0.065 A 
ATOM      5  C   UNL     1      -1.048   2.296   0.020  0.00  0.00    +0.028 A 
ATOM      6  C   UNL     1      -0.746   3.639   0.009  0.00  0.00    +0.002 A 
ATOM      7  C   UNL     1       0.575   4.063  -0.004  0.00  0.00    +0.002 A 
ATOM      8  C   UNL     1       1.604   3.144  -0.013  0.00  0.00    +0.028 A 
ATOM      9  C   UNL     1       1.317   1.787  -0.008  0.00  0.00    +0.068 A 
ATOM     10  N   UNL     1       2.096   0.641  -0.014  0.00  0.00    -0.305 N 
ATOM     11  H   UNL     1       2.702  -2.009  -0.015  0.00  0.00    +0.149 HD
ATOM     12  H   UNL     1      -0.822  -0.733   0.017  0.00  0.00    +0.169 HD
ENDROOT
BRANCH   1  13
ATOM     13  C   UNL     1       0.623  -2.810   0.006  0.00  0.00    +0.135 C 
BRANCH  13  15
ATOM     14  C   UNL     1       0.263  -5.279  -0.112  0.00  0.00    +0.039 C 
ATOM     15  C   UNL     1       1.315  -4.174   0.002  0.00  0.00    +0.128 C 
BRANCH  15  16
ATOM     16  O   UNL     1       2.050  -4.339   1.216  0.00  0.00    -0.391 OA
ATOM     17  H   UNL     1       2.854  -3.634   1.473  0.00  0.00    +0.210 HD
ENDBRANCH  15  16
ENDBRANCH  13  15
ENDBRANCH   1  13
BRANCH  10  18
ATOM     18  C   UNL     1       3.560   0.586  -0.028  0.00  0.00    +0.221 C 
BRANCH  18  19
ATOM     19  C   UNL     1       4.048   0.564  -1.454  0.00  0.00    +0.237 C 
ATOM     20  O   UNL     1       3.252   0.593  -2.368  0.00  0.00    -0.274 OA
ATOM     21  N   UNL     1       5.370   0.513  -1.713  0.00  0.00    -0.284 N 
ATOM     22  H   UNL     1       6.094   0.564  -0.886  0.00  0.00    +0.155 HD
BRANCH  21  23
ATOM     23  C   UNL     1       5.820   0.396  -3.033  0.00  0.00    +0.036 A 
ATOM     24  C   UNL     1       6.963  -0.341  -3.315  0.00  0.00    +0.025 A 
ATOM     25  C   UNL     1       7.402  -0.460  -4.619  0.00  0.00    +0.024 A 
ATOM     26  C   UNL     1       6.711   0.164  -5.643  0.00  0.00    +0.071 A 
ATOM     27  C   UNL     1       5.576   0.904  -5.363  0.00  0.00    +0.146 A 
ATOM     28  C   UNL     1       5.129   1.022  -4.062  0.00  0.00    +0.057 A 
ATOM     29 CL   UNL     1       7.269   0.018  -7.280  0.00  0.00    -0.081 Cl
BRANCH  27  30
ATOM     30  N   UNL     1       4.839   1.570  -6.461  0.00  0.00    +0.058 N 
ATOM     31  O   UNL     1       3.839   2.221  -6.216  0.00  0.00    -0.126 OA
ATOM     32  O   UNL     1       5.232   1.467  -7.609  0.00  0.00    -0.126 OA
ENDBRANCH  27  30
ENDBRANCH  21  23
ENDBRANCH  18  19
ENDBRANCH  10  18
TORSDOF 7
