REMARK  Name = ZINC09798023
REMARK  9 active torsions:
REMARK  status: ('A' for Active; 'I' for Inactive)
REMARK    1  A    between atoms: C_1  and  C_2
REMARK    2  A    between atoms: C_2  and  C_4
REMARK    3  A    between atoms: C_7  and  S_10
REMARK    4  A    between atoms: S_10  and  N_13
REMARK    5  A    between atoms: C_18  and  C_19
REMARK    6  A    between atoms: C_18  and  N_62
REMARK    7  A    between atoms: N_21  and  C_22
REMARK    8  A    between atoms: C_27  and  O_28
REMARK    9  A    between atoms: O_28  and  C_29
REMARK                            x       y       z     vdW  Elec       q    Type
REMARK                         _______ _______ _______ _____ _____    ______ ____
ROOT
ATOM      1  N   UNL     1       3.541   3.435  -1.574  0.00  0.00    -0.180 NA
ATOM      2  C   UNL     1       2.396   3.836  -2.405  0.00  0.00    +0.091 C 
ATOM      3  C   UNL     1       1.106   3.409  -1.695  0.00  0.00    -0.061 C 
ATOM      4  C   UNL     1       2.270   1.686  -0.446  0.00  0.00    -0.061 C 
ATOM      5  C   UNL     1       3.607   2.042  -1.105  0.00  0.00    +0.091 C 
ATOM      6  N   UNL     1       1.179   1.960  -1.408  0.00  0.00    +0.387 N 
ATOM      7  H   UNL     1       1.372   1.457  -2.281  0.00  0.00    -0.081 HD
ENDROOT
BRANCH   1   8
ATOM      8  S   UNL     1       4.724   4.522  -1.176  0.00  0.00    +0.061 S 
ATOM      9  O   UNL     1       5.893   3.765  -0.890  0.00  0.00    -0.153 OA
ATOM     10  O   UNL     1       4.697   5.535  -2.173  0.00  0.00    -0.153 OA
BRANCH   8  14
ATOM     11  C   UNL     1       3.479   6.496   2.709  0.00  0.00    +0.017 A 
ATOM     12  C   UNL     1       4.253   5.331   2.729  0.00  0.00    +0.013 A 
ATOM     13  C   UNL     1       4.627   4.737   1.543  0.00  0.00    +0.029 A 
ATOM     14  C   UNL     1       4.240   5.290   0.335  0.00  0.00    +0.106 A 
ATOM     15  C   UNL     1       3.480   6.446   0.307  0.00  0.00    +0.029 A 
ATOM     16  C   UNL     1       3.093   7.050   1.484  0.00  0.00    +0.013 A 
BRANCH  11  18
ATOM     17  C   UNL     1       2.242   8.393   3.945  0.00  0.00    +0.091 C 
ATOM     18  C   UNL     1       3.075   7.137   3.971  0.00  0.00    +0.160 C 
ATOM     19  O   UNL     1       3.411   6.655   5.031  0.00  0.00    -0.292 OA
ENDBRANCH  11  18
ENDBRANCH   8  14
ENDBRANCH   1   8
BRANCH   6  20
ATOM     20  C   UNL     1      -0.108   1.490  -0.857  0.00  0.00    +0.019 C 
BRANCH  20  21
ATOM     21  C   UNL     1      -0.082  -0.015  -0.779  0.00  0.00    +0.201 C 
ATOM     22  O   UNL     1       0.909  -0.623  -1.126  0.00  0.00    -0.278 OA
ATOM     23  N   UNL     1      -1.158  -0.685  -0.323  0.00  0.00    -0.284 N 
ATOM     24  H   UNL     1      -1.945  -0.199  -0.031  0.00  0.00    +0.155 HD
BRANCH  23  25
ATOM     25  C   UNL     1      -1.141  -2.085  -0.269  0.00  0.00    +0.076 A 
ATOM     26  C   UNL     1       0.067  -2.767  -0.284  0.00  0.00    +0.027 A 
ATOM     27  C   UNL     1       0.082  -4.148  -0.231  0.00  0.00    +0.002 A 
ATOM     28  C   UNL     1      -1.106  -4.853  -0.163  0.00  0.00    +0.004 A 
ATOM     29  C   UNL     1      -2.314  -4.181  -0.148  0.00  0.00    +0.048 A 
ATOM     30  C   UNL     1      -2.337  -2.796  -0.196  0.00  0.00    +0.150 A 
BRANCH  30  31
ATOM     31  O   UNL     1      -3.524  -2.134  -0.175  0.00  0.00    -0.454 OA
BRANCH  31  32
ATOM     32  C   UNL     1      -4.044  -1.720  -1.361  0.00  0.00    +0.129 A 
ATOM     33  C   UNL     1      -3.318  -1.881  -2.532  0.00  0.00    +0.046 A 
ATOM     34  C   UNL     1      -3.851  -1.464  -3.736  0.00  0.00    +0.004 A 
ATOM     35  C   UNL     1      -5.103  -0.879  -3.774  0.00  0.00    +0.000 A 
ATOM     36  C   UNL     1      -5.827  -0.713  -2.607  0.00  0.00    +0.004 A 
ATOM     37  C   UNL     1      -5.300  -1.132  -1.401  0.00  0.00    +0.046 A 
ENDBRANCH  31  32
ENDBRANCH  30  31
ENDBRANCH  23  25
ENDBRANCH  20  21
ENDBRANCH   6  20
TORSDOF 8
