REMARK  Name = ZINC35427334
REMARK  5 active torsions:
REMARK  status: ('A' for Active; 'I' for Inactive)
REMARK    1  A    between atoms: C_1  and  N_2
REMARK    2  A    between atoms: C_16  and  C_30
REMARK    3  A    between atoms: N_22  and  C_23
REMARK    4  A    between atoms: C_34  and  O_36
REMARK    5  A    between atoms: O_36  and  C_37
REMARK                            x       y       z     vdW  Elec       q    Type
REMARK                         _______ _______ _______ _____ _____    ______ ____
ROOT
ATOM      1  C   UNL     1      -0.380   1.623   0.273  0.00  0.00    -0.096 C 
ATOM      2  N   UNL     1      -0.291   0.158   0.236  0.00  0.00    +0.381 N 
ATOM      3  C   UNL     1      -1.643  -0.414   0.197  0.00  0.00    -0.074 C 
ATOM      4  C   UNL     1      -1.581  -1.902  -0.160  0.00  0.00    +0.018 C 
ATOM      5  C   UNL     1      -0.606  -2.577   0.803  0.00  0.00    -0.034 A 
ATOM      6  C   UNL     1      -0.567  -3.969   1.003  0.00  0.00    +0.004 A 
ATOM      7  C   UNL     1       0.343  -4.431   1.904  0.00  0.00    +0.090 A 
ATOM      8  S   UNL     1       1.179  -2.982   2.474  0.00  0.00    -0.077 S 
ATOM      9  C   UNL     1       0.272  -1.808   1.503  0.00  0.00    -0.021 A 
ATOM     10  C   UNL     1       0.411  -0.324   1.441  0.00  0.00    -0.036 C 
ATOM     11  N   UNL     1       0.491  -5.769   2.245  0.00  0.00    -0.312 N 
ATOM     12  C   UNL     1       1.592  -6.543   2.384  0.00  0.00    +0.092 A 
ATOM     13  C   UNL     1       1.187  -7.803   2.662  0.00  0.00    +0.020 A 
ATOM     14  C   UNL     1      -0.224  -7.794   2.714  0.00  0.00    +0.025 A 
ATOM     15  C   UNL     1      -0.627  -6.537   2.481  0.00  0.00    +0.049 A 
ATOM     16  C   UNL     1      -2.011  -5.962   2.498  0.00  0.00    +0.155 C 
ATOM     17  N   UNL     1      -2.463  -5.571   1.140  0.00  0.00    -0.268 N 
ATOM     18  C   UNL     1      -1.462  -4.938   0.263  0.00  0.00    +0.148 C 
ATOM     19  C   UNL     1      -3.728  -5.786   0.728  0.00  0.00    +0.308 C 
ATOM     20  O   UNL     1      -4.530  -6.312   1.475  0.00  0.00    -0.252 OA
ATOM     21  N   UNL     1      -4.104  -5.419  -0.513  0.00  0.00    -0.267 N 
ATOM     22  H   UNL     1      -3.446  -5.077  -1.138  0.00  0.00    +0.156 HD
ATOM     23  H   UNL     1       0.219  -0.127  -0.587  0.00  0.00    -0.082 HD
ENDROOT
BRANCH  21  24
ATOM     24  C   UNL     1      -5.446  -5.530  -0.900  0.00  0.00    +0.070 A 
ATOM     25  C   UNL     1      -6.457  -5.319   0.027  0.00  0.00    +0.026 A 
ATOM     26  C   UNL     1      -7.779  -5.429  -0.358  0.00  0.00    +0.002 A 
ATOM     27  C   UNL     1      -8.097  -5.749  -1.665  0.00  0.00    +0.003 A 
ATOM     28  C   UNL     1      -7.094  -5.960  -2.592  0.00  0.00    +0.040 A 
ATOM     29  C   UNL     1      -5.768  -5.845  -2.216  0.00  0.00    +0.145 A 
ATOM     30  F   UNL     1      -4.787  -6.045  -3.123  0.00  0.00    -0.204 F 
ENDBRANCH  21  24
BRANCH  16  31
ATOM     31  C   UNL     1      -2.027  -4.745   3.387  0.00  0.00    -0.018 A 
ATOM     32  C   UNL     1      -2.905  -3.709   3.126  0.00  0.00    +0.006 A 
ATOM     33  C   UNL     1      -2.922  -2.592   3.940  0.00  0.00    +0.004 A 
ATOM     34  C   UNL     1      -2.060  -2.507   5.016  0.00  0.00    +0.045 A 
ATOM     35  C   UNL     1      -1.178  -3.545   5.280  0.00  0.00    +0.120 A 
ATOM     36  C   UNL     1      -1.168  -4.668   4.465  0.00  0.00    +0.051 A 
BRANCH  35  37
ATOM     37  O   UNL     1      -0.330  -3.464   6.339  0.00  0.00    -0.495 OA
ATOM     38  C   UNL     1      -0.400  -2.281   7.138  0.00  0.00    +0.277 C 
ENDBRANCH  35  37
ENDBRANCH  16  31
TORSDOF 3
