REMARK  Name = ZINC24717701
REMARK  1 active torsions:
REMARK  status: ('A' for Active; 'I' for Inactive)
REMARK    1  A    between atoms: C_10  and  O_15
REMARK                            x       y       z     vdW  Elec       q    Type
REMARK                         _______ _______ _______ _____ _____    ______ ____
ROOT
ATOM      1  C   UNL     1       1.083   3.629   0.015  0.00  0.00    +0.054 A 
ATOM      2  C   UNL     1       1.145   2.243   0.003  0.00  0.00    -0.024 A 
ATOM      3  C   UNL     1      -0.018   1.503   0.010  0.00  0.00    -0.010 A 
ATOM      4  C   UNL     1      -1.248   2.146   0.031  0.00  0.00    +0.056 A 
ATOM      5  C   UNL     1      -1.315   3.527   0.036  0.00  0.00    +0.167 A 
ATOM      6  C   UNL     1      -0.140   4.275   0.031  0.00  0.00    +0.167 A 
ATOM      7  O   UNL     1      -0.467   5.601   0.043  0.00  0.00    -0.453 OA
ATOM      8  C   UNL     1      -1.849   5.660  -0.357  0.00  0.00    +0.466 C 
ATOM      9  O   UNL     1      -2.378   4.384   0.051  0.00  0.00    -0.453 OA
ATOM     10  C   UNL     1       0.002  -0.004   0.002  0.00  0.00    +0.159 C 
ATOM     11  C   UNL     1       1.380  -0.505  -0.431  0.00  0.00    +0.117 C 
ATOM     12  N   UNL     1       2.401   0.181   0.378  0.00  0.00    -0.309 NA
ATOM     13  C   UNL     1       2.502   1.588  -0.020  0.00  0.00    +0.117 C 
ATOM     14  H   UNL     1       2.123   0.127   1.441  0.00  0.00    +0.122 HD
ENDROOT
BRANCH  10  15
ATOM     15  O   UNL     1      -0.985  -0.487  -0.912  0.00  0.00    -0.386 OA
ATOM     16  H   UNL     1      -1.119  -1.569  -1.055  0.00  0.00    +0.210 HD
ENDBRANCH  10  15
TORSDOF 1
