REMARK  Name = ZINC12329636
REMARK  6 active torsions:
REMARK  status: ('A' for Active; 'I' for Inactive)
REMARK    1  A    between atoms: C_1  and  C_2
REMARK    2  A    between atoms: C_9  and  O_29
REMARK    3  A    between atoms: C_18  and  C_19
REMARK    4  A    between atoms: C_18  and  N_53
REMARK    5  A    between atoms: C_19  and  C_21
REMARK    6  A    between atoms: C_19  and  O_28
REMARK                            x       y       z     vdW  Elec       q    Type
REMARK                         _______ _______ _______ _____ _____    ______ ____
ROOT
ATOM      1  C   UNL     1       3.865   0.157  -5.042  0.00  0.00    +0.045 C 
ATOM      2  C   UNL     1       3.136   0.612  -3.804  0.00  0.00    -0.029 A 
ATOM      3  C   UNL     1       3.283   1.908  -3.353  0.00  0.00    +0.050 A 
ATOM      4  C   UNL     1       2.613   2.331  -2.210  0.00  0.00    +0.127 A 
ATOM      5  C   UNL     1       1.798   1.448  -1.525  0.00  0.00    +0.024 A 
ATOM      6  C   UNL     1       1.652   0.149  -1.982  0.00  0.00    +0.030 A 
ATOM      7  C   UNL     1       2.319  -0.270  -3.119  0.00  0.00    +0.044 A 
ATOM      8 CL   UNL     1       2.132  -1.900  -3.685  0.00  0.00    -0.083 Cl
ATOM      9  C   UNL     1       1.058   1.863  -0.279  0.00  0.00    +0.152 C 
ATOM     10  C   UNL     1       1.000   3.391  -0.199  0.00  0.00    +0.084 C 
ATOM     11  C   UNL     1       2.408   3.940  -0.460  0.00  0.00    +0.110 C 
ATOM     12  O   UNL     1       2.782   3.616  -1.798  0.00  0.00    -0.485 OA
ATOM     13  C   UNL     1       3.394   3.305   0.522  0.00  0.00    +0.029 C 
ATOM     14  C   UNL     1       4.785   3.902   0.298  0.00  0.00    -0.075 C 
ATOM     15  C   UNL     1       3.829   5.991  -0.472  0.00  0.00    -0.075 C 
ATOM     16  C   UNL     1       2.409   5.458  -0.273  0.00  0.00    +0.029 C 
ATOM     17  N   UNL     1       4.722   5.362   0.524  0.00  0.00    +0.382 N 
ATOM     18  H   UNL     1       4.348   5.537   1.464  0.00  0.00    -0.082 HD
ENDROOT
BRANCH   9  19
ATOM     19  O   UNL     1      -0.271   1.339  -0.317  0.00  0.00    -0.387 OA
ATOM     20  H   UNL     1      -0.311   0.374  -0.367  0.00  0.00    +0.210 HD
ENDBRANCH   9  19
BRANCH  17  21
ATOM     21  C   UNL     1       6.076   5.946   0.429  0.00  0.00    -0.042 C 
BRANCH  21  22
ATOM     22  C   UNL     1       6.801   5.423  -0.812  0.00  0.00    +0.128 C 
BRANCH  22  23
ATOM     23  C   UNL     1       8.228   5.908  -0.802  0.00  0.00    -0.021 A 
ATOM     24  C   UNL     1       8.523   7.193  -1.220  0.00  0.00    +0.009 A 
ATOM     25  C   UNL     1       9.830   7.641  -1.207  0.00  0.00    +0.039 A 
ATOM     26  C   UNL     1      10.846   6.799  -0.785  0.00  0.00    +0.123 A 
ATOM     27  C   UNL     1      10.549   5.511  -0.372  0.00  0.00    +0.039 A 
ATOM     28  C   UNL     1       9.241   5.067  -0.381  0.00  0.00    +0.009 A 
ATOM     29  F   UNL     1      12.125   7.234  -0.776  0.00  0.00    -0.205 F 
ENDBRANCH  22  23
BRANCH  22  30
ATOM     30  O   UNL     1       6.143   5.903  -1.986  0.00  0.00    -0.389 OA
ATOM     31  H   UNL     1       6.116   6.867  -2.056  0.00  0.00    +0.210 HD
ENDBRANCH  22  30
ENDBRANCH  21  22
ENDBRANCH  17  21
TORSDOF 5
