REMARK  Name = ZINC37519112
REMARK  7 active torsions:
REMARK  status: ('A' for Active; 'I' for Inactive)
REMARK    1  A    between atoms: C_1  and  C_2
REMARK    2  A    between atoms: C_2  and  C_3
REMARK    3  A    between atoms: C_3  and  C_5
REMARK    4  A    between atoms: C_3  and  C_6
REMARK    5  A    between atoms: C_9  and  S_12
REMARK    6  A    between atoms: S_12  and  N_15
REMARK    7  A    between atoms: N_15  and  C_16
REMARK                            x       y       z     vdW  Elec       q    Type
REMARK                         _______ _______ _______ _____ _____    ______ ____
ROOT
ATOM      1  S   UNL     1       1.706  -5.901   0.546  0.00  0.00    +0.072 S 
ATOM      2  O   UNL     1       2.892  -6.461   1.092  0.00  0.00    -0.150 OA
ATOM      3  O   UNL     1       0.569  -5.598   1.343  0.00  0.00    -0.150 OA
ENDROOT
BRANCH   1   7
ATOM      4  C   UNL     1       2.918  -2.046  -1.494  0.00  0.00    -0.044 A 
ATOM      5  C   UNL     1       1.647  -2.179  -0.966  0.00  0.00    +0.006 A 
ATOM      6  C   UNL     1       1.277  -3.356  -0.344  0.00  0.00    +0.029 A 
ATOM      7  C   UNL     1       2.178  -4.401  -0.249  0.00  0.00    +0.109 A 
ATOM      8  C   UNL     1       3.449  -4.268  -0.776  0.00  0.00    +0.029 A 
ATOM      9  C   UNL     1       3.817  -3.092  -1.403  0.00  0.00    +0.006 A 
BRANCH   4  10
ATOM     10  C   UNL     1       3.322  -0.762  -2.172  0.00  0.00    +0.016 C 
ATOM     11  C   UNL     1       3.217   0.396  -1.178  0.00  0.00    +0.012 C 
BRANCH  10  13
ATOM     12  C   UNL     1       2.880   0.735  -4.123  0.00  0.00    +0.004 C 
ATOM     13  C   UNL     1       2.394  -0.500  -3.360  0.00  0.00    +0.004 C 
ENDBRANCH  10  13
ENDBRANCH   4  10
ENDBRANCH   1   7
BRANCH   1  14
ATOM     14  N   UNL     1       1.192  -6.940  -0.636  0.00  0.00    -0.215 N 
ATOM     15  H   UNL     1       1.675  -7.766  -0.799  0.00  0.00    +0.174 HD
BRANCH  14  16
ATOM     16  C   UNL     1       0.061  -6.628  -1.400  0.00  0.00    +0.064 A 
ATOM     17  C   UNL     1      -1.216  -6.752  -0.854  0.00  0.00    +0.029 A 
ATOM     18  C   UNL     1      -2.304  -6.433  -1.645  0.00  0.00    +0.043 A 
ATOM     19  C   UNL     1      -2.091  -6.001  -2.949  0.00  0.00    +0.094 A 
ATOM     20  N   UNL     1      -0.865  -5.895  -3.435  0.00  0.00    -0.348 N 
ATOM     21  C   UNL     1       0.197  -6.186  -2.707  0.00  0.00    +0.108 A 
ATOM     22  N   UNL     1      -3.181  -5.677  -3.754  0.00  0.00    -0.345 N 
ATOM     23  H   UNL     1      -4.082  -5.753  -3.404  0.00  0.00    +0.144 HD
ATOM     24  H   UNL     1      -3.039  -5.375  -4.665  0.00  0.00    +0.144 HD
ATOM     25  H   UNL     1      -0.743  -5.592  -4.349  0.00  0.00    +0.167 HD
ENDBRANCH  14  16
ENDBRANCH   1  14
TORSDOF 5
