REMARK  Name = ZINC35523017
REMARK  5 active torsions:
REMARK  status: ('A' for Active; 'I' for Inactive)
REMARK    1  A    between atoms: C_5  and  C_7
REMARK    2  A    between atoms: N_16  and  C_17
REMARK    3  A    between atoms: C_17  and  C_18
REMARK    4  A    between atoms: N_23  and  C_26
REMARK    5  A    between atoms: C_30  and  C_32
REMARK                            x       y       z     vdW  Elec       q    Type
REMARK                         _______ _______ _______ _____ _____    ______ ____
ROOT
ATOM      1  C   UNL     1      -0.068  -2.394  -2.025  0.00  0.00    +0.020 C 
ENDROOT
BRANCH   1  10
ATOM      2  C   UNL     1       1.257  -2.208  -0.031  0.00  0.00    +0.012 C 
ATOM      3  C   UNL     1       1.383  -2.722   1.382  0.00  0.00    +0.009 A 
ATOM      4  C   UNL     1       2.200  -2.291   2.354  0.00  0.00    +0.021 A 
ATOM      5  C   UNL     1       1.946  -3.078   3.497  0.00  0.00    +0.019 A 
ATOM      6  C   UNL     1       0.979  -3.964   3.173  0.00  0.00    +0.086 A 
ATOM      7  N   UNL     1       0.630  -3.754   1.879  0.00  0.00    -0.353 N 
ATOM      8  C   UNL     1      -0.369  -4.474   1.079  0.00  0.00    +0.103 C 
ATOM      9  C   UNL     1      -0.109  -4.158  -0.400  0.00  0.00    -0.055 C 
ATOM     10  N   UNL     1      -0.013  -2.704  -0.590  0.00  0.00    +0.395 N 
ATOM     11  H   UNL     1      -0.783  -2.252  -0.121  0.00  0.00    -0.080 HD
BRANCH   2  16
ATOM     12  C   UNL     1       0.061   1.372  -0.008  0.00  0.00    +0.000 A 
ATOM     13  C   UNL     1       1.258   2.064  -0.020  0.00  0.00    +0.001 A 
ATOM     14  C   UNL     1       2.455   1.374  -0.036  0.00  0.00    +0.020 A 
ATOM     15  C   UNL     1       2.456  -0.010  -0.039  0.00  0.00    +0.043 A 
ATOM     16  C   UNL     1       1.258  -0.702  -0.027  0.00  0.00    -0.037 A 
ATOM     17  C   UNL     1       0.061  -0.010  -0.011  0.00  0.00    +0.004 A 
ATOM     18 CL   UNL     1       3.959  -0.878  -0.060  0.00  0.00    -0.083 Cl
ENDBRANCH   2  16
ENDBRANCH   1  10
BRANCH   1  19
ATOM     19  C   UNL     1      -1.415  -2.789  -2.572  0.00  0.00    +0.199 C 
ATOM     20  O   UNL     1      -2.248  -3.280  -1.839  0.00  0.00    -0.278 OA
ATOM     21  N   UNL     1      -1.696  -2.596  -3.876  0.00  0.00    -0.300 N 
ATOM     22  C   UNL     1      -0.695  -2.007  -4.777  0.00  0.00    +0.126 C 
ATOM     23  C   UNL     1      -0.479  -2.961  -5.959  0.00  0.00    +0.124 C 
ATOM     24  N   UNL     1      -1.791  -3.336  -6.505  0.00  0.00    -0.327 N 
ATOM     25  C   UNL     1      -2.792  -3.924  -5.604  0.00  0.00    +0.124 C 
ATOM     26  C   UNL     1      -3.006  -2.976  -4.423  0.00  0.00    +0.126 C 
BRANCH  24  27
ATOM     27  C   UNL     1      -2.082  -3.136  -7.857  0.00  0.00    +0.030 A 
ATOM     28  C   UNL     1      -1.173  -2.474  -8.674  0.00  0.00    +0.023 A 
ATOM     29  C   UNL     1      -1.464  -2.279 -10.010  0.00  0.00    +0.002 A 
ATOM     30  C   UNL     1      -2.657  -2.741 -10.534  0.00  0.00    +0.012 A 
ATOM     31  C   UNL     1      -3.564  -3.399  -9.724  0.00  0.00    +0.057 A 
ATOM     32  C   UNL     1      -3.277  -3.603  -8.388  0.00  0.00    +0.035 A 
BRANCH  31  33
ATOM     33  C   UNL     1      -4.863  -3.899 -10.300  0.00  0.00    +0.417 C 
ATOM     34  F   UNL     1      -4.923  -3.582 -11.661  0.00  0.00    -0.166 F 
ATOM     35  F   UNL     1      -4.940  -5.287 -10.141  0.00  0.00    -0.166 F 
ATOM     36  F   UNL     1      -5.933  -3.294  -9.632  0.00  0.00    -0.166 F 
ENDBRANCH  31  33
ENDBRANCH  24  27
ENDBRANCH   1  19
TORSDOF 5
