REMARK  Name = ZINC35863030
REMARK  10 active torsions:
REMARK  status: ('A' for Active; 'I' for Inactive)
REMARK    1  A    between atoms: C_1  and  C_2
REMARK    2  A    between atoms: C_2  and  C_3
REMARK    3  A    between atoms: C_2  and  C_4
REMARK    4  A    between atoms: C_4  and  C_5
REMARK    5  A    between atoms: C_13  and  O_25
REMARK    6  A    between atoms: C_16  and  C_18
REMARK    7  A    between atoms: O_25  and  C_26
REMARK    8  A    between atoms: C_26  and  C_27
REMARK    9  A    between atoms: C_30  and  C_32
REMARK   10  A    between atoms: N_37  and  C_40
REMARK                            x       y       z     vdW  Elec       q    Type
REMARK                         _______ _______ _______ _____ _____    ______ ____
ROOT
ATOM      1  C   UNL     1       2.582   0.558  -1.430  0.00  0.00    +0.217 C 
ATOM      2  O   UNL     1       3.089   1.241  -0.564  0.00  0.00    -0.276 OA
ATOM      3  N   UNL     1       3.317   0.156  -2.486  0.00  0.00    -0.290 N 
ATOM      4  C   UNL     1       2.730  -0.668  -3.557  0.00  0.00    +0.113 C 
ATOM      5  C   UNL     1       2.760   0.149  -4.848  0.00  0.00    +0.054 C 
ATOM      6  C   UNL     1       4.114   0.776  -5.054  0.00  0.00    -0.040 A 
ATOM      7  C   UNL     1       4.447   1.180  -6.342  0.00  0.00    +0.007 A 
ATOM      8  C   UNL     1       5.666   1.769  -6.602  0.00  0.00    +0.046 A 
ATOM      9  C   UNL     1       6.571   1.964  -5.568  0.00  0.00    +0.121 A 
ATOM     10  C   UNL     1       6.241   1.560  -4.285  0.00  0.00    +0.051 A 
ATOM     11  C   UNL     1       5.016   0.961  -4.029  0.00  0.00    -0.016 A 
ATOM     12  C   UNL     1       4.730   0.525  -2.618  0.00  0.00    +0.137 C 
ENDROOT
BRANCH  12  13
ATOM     13  C   UNL     1       5.593  -0.663  -2.281  0.00  0.00    -0.022 A 
ATOM     14  C   UNL     1       5.525  -1.807  -3.054  0.00  0.00    +0.008 A 
ATOM     15  C   UNL     1       6.316  -2.898  -2.746  0.00  0.00    +0.038 A 
ATOM     16  C   UNL     1       7.176  -2.844  -1.663  0.00  0.00    +0.123 A 
ATOM     17  C   UNL     1       7.244  -1.698  -0.889  0.00  0.00    +0.038 A 
ATOM     18  C   UNL     1       6.455  -0.607  -1.202  0.00  0.00    +0.008 A 
ATOM     19  F   UNL     1       7.950  -3.910  -1.361  0.00  0.00    -0.205 F 
ENDBRANCH  12  13
BRANCH   1  20
ATOM     20  C   UNL     1       1.133   0.161  -1.325  0.00  0.00    +0.099 C 
BRANCH  20  22
ATOM     21  C   UNL     1       0.532   2.271  -0.130  0.00  0.00    +0.008 C 
ATOM     22  C   UNL     1       0.536   0.744  -0.042  0.00  0.00    -0.008 C 
ATOM     23  C   UNL     1      -0.898   0.239   0.129  0.00  0.00    +0.008 C 
ENDBRANCH  20  22
ENDBRANCH   1  20
BRANCH   9  24
ATOM     24  O   UNL     1       7.773   2.548  -5.813  0.00  0.00    -0.484 OA
BRANCH  24  25
ATOM     25  C   UNL     1       8.042   2.938  -7.161  0.00  0.00    +0.303 C 
BRANCH  25  26
ATOM     26  C   UNL     1       9.411   3.562  -7.240  0.00  0.00    +0.143 A 
ATOM     27  C   UNL     1      10.564   2.902  -7.484  0.00  0.00    +0.049 A 
ATOM     28  C   UNL     1      11.596   3.854  -7.472  0.00  0.00    +0.055 A 
ATOM     29  C   UNL     1      11.012   5.062  -7.218  0.00  0.00    +0.190 A 
ATOM     30  O   UNL     1       9.684   4.864  -7.085  0.00  0.00    -0.452 OA
BRANCH  29  31
ATOM     31  C   UNL     1      11.707   6.349  -7.112  0.00  0.00    +0.282 C 
ATOM     32  O   UNL     1      12.892   6.425  -7.378  0.00  0.00    -0.267 OA
ATOM     33  N   UNL     1      11.033   7.449  -6.720  0.00  0.00    -0.299 N 
ATOM     34  C   UNL     1       9.637   7.357  -6.264  0.00  0.00    +0.089 C 
ATOM     35  C   UNL     1       9.517   8.084  -4.920  0.00  0.00    -0.060 C 
ATOM     36  N   UNL     1      10.020   9.456  -5.060  0.00  0.00    +0.380 N 
ATOM     37  C   UNL     1      11.455   9.433  -5.369  0.00  0.00    -0.060 C 
ATOM     38  C   UNL     1      11.674   8.773  -6.730  0.00  0.00    +0.089 C 
ATOM     39  C   UNL     1       9.803  10.186  -3.803  0.00  0.00    -0.096 C 
ATOM     40  H   UNL     1       9.524   9.921  -5.806  0.00  0.00    -0.082 HD
ENDBRANCH  29  31
ENDBRANCH  25  26
ENDBRANCH  24  25
ENDBRANCH   9  24
TORSDOF 7
