REMARK  Name = ZINC39590231
REMARK  4 active torsions:
REMARK  status: ('A' for Active; 'I' for Inactive)
REMARK    1  A    between atoms: C_1  and  C_2
REMARK    2  A    between atoms: C_12  and  C_14
REMARK    3  A    between atoms: C_18  and  N_21
REMARK    4  A    between atoms: C_22  and  C_24
REMARK                            x       y       z     vdW  Elec       q    Type
REMARK                         _______ _______ _______ _____ _____    ______ ____
ROOT
ATOM      1  C   UNL     1       2.449  -0.981   2.976  0.00  0.00    +0.087 C 
ATOM      2  C   UNL     1       3.641  -0.632   3.502  0.00  0.00    +0.021 C 
ATOM      3  C   UNL     1       4.119  -1.193   4.832  0.00  0.00    +0.123 C 
ATOM      4  S   UNL     1       5.705  -0.280   5.060  0.00  0.00    -0.114 S 
ATOM      5  C   UNL     1       5.444   0.955   3.715  0.00  0.00    +0.219 C 
ATOM      6  N   UNL     1       4.468   0.227   2.871  0.00  0.00    -0.320 N 
ATOM      7  H   UNL     1       4.423   0.363   1.911  0.00  0.00    +0.148 HD
ENDROOT
BRANCH   1  18
ATOM      8  C   UNL     1       0.797  -3.149   1.736  0.00  0.00    +0.029 C 
ATOM      9  C   UNL     1      -0.004  -1.847   1.705  0.00  0.00    +0.083 C 
ATOM     10  C   UNL     1      -1.153  -1.952   0.689  0.00  0.00    +0.059 C 
ATOM     11  C   UNL     1      -0.867  -0.865  -0.322  0.00  0.00    -0.024 A 
ATOM     12  C   UNL     1      -1.552  -0.482  -1.460  0.00  0.00    +0.005 A 
ATOM     13  C   UNL     1      -1.081   0.560  -2.236  0.00  0.00    +0.000 A 
ATOM     14  C   UNL     1       0.078   1.221  -1.871  0.00  0.00    +0.002 A 
ATOM     15  C   UNL     1       0.765   0.843  -0.738  0.00  0.00    +0.024 A 
ATOM     16  C   UNL     1       0.295  -0.209   0.052  0.00  0.00    +0.040 A 
ATOM     17  N   UNL     1       0.835  -0.745   1.227  0.00  0.00    -0.265 N 
ATOM     18  C   UNL     1       1.958  -0.311   1.831  0.00  0.00    +0.245 C 
ATOM     19  O   UNL     1       2.551   0.658   1.392  0.00  0.00    -0.270 OA
ENDBRANCH   1  18
BRANCH   5  20
ATOM     20  N   UNL     1       6.687   1.212   2.983  0.00  0.00    -0.284 N 
ATOM     21  C   UNL     1       7.642   1.991   3.529  0.00  0.00    +0.251 C 
ATOM     22  O   UNL     1       7.515   2.402   4.666  0.00  0.00    -0.270 OA
ATOM     23  H   UNL     1       6.823   0.821   2.106  0.00  0.00    +0.152 HD
BRANCH  21  24
ATOM     24  C   UNL     1       8.838   2.344   2.749  0.00  0.00    +0.101 A 
ATOM     25  C   UNL     1       9.895   3.031   3.343  0.00  0.00    +0.020 A 
ATOM     26  C   UNL     1      11.013   3.348   2.572  0.00  0.00    +0.018 A 
ATOM     27  C   UNL     1      11.062   2.989   1.263  0.00  0.00    +0.086 A 
ATOM     28  N   UNL     1      10.039   2.321   0.679  0.00  0.00    -0.328 N 
ATOM     29  C   UNL     1       8.939   1.985   1.380  0.00  0.00    +0.261 A 
ATOM     30  O   UNL     1       8.031   1.379   0.838  0.00  0.00    -0.267 OA
ATOM     31  H   UNL     1      10.101   2.078  -0.258  0.00  0.00    +0.168 HD
ENDBRANCH  21  24
ENDBRANCH   5  20
TORSDOF 3
