REMARK  Name = ZINC42083914
REMARK  8 active torsions:
REMARK  status: ('A' for Active; 'I' for Inactive)
REMARK    1  A    between atoms: C_1  and  C_2
REMARK    2  A    between atoms: C_2  and  C_4
REMARK    3  A    between atoms: C_2  and  N_19
REMARK    4  A    between atoms: N_6  and  N_7
REMARK    5  A    between atoms: N_7  and  C_8
REMARK    6  A    between atoms: C_8  and  N_10
REMARK    7  A    between atoms: N_10  and  C_11
REMARK    8  A    between atoms: N_22  and  C_23
REMARK                            x       y       z     vdW  Elec       q    Type
REMARK                         _______ _______ _______ _____ _____    ______ ____
ROOT
ATOM      1  C   UNL     1      -0.864  -0.174   0.698  0.00  0.00    +0.249 C 
ATOM      2  O   UNL     1      -1.185  -0.765  -0.310  0.00  0.00    -0.272 OA
ATOM      3  N   UNL     1      -1.784   0.090   1.647  0.00  0.00    -0.234 N 
ATOM      4  H   UNL     1      -1.527   0.563   2.454  0.00  0.00    +0.173 HD
ENDROOT
BRANCH   1   6
ATOM      5  C   UNL     1       0.613   1.789   1.040  0.00  0.00    +0.038 C 
ATOM      6  C   UNL     1       0.565   0.267   0.891  0.00  0.00    +0.159 C 
BRANCH   6   7
ATOM      7  N   UNL     1       1.361  -0.135  -0.272  0.00  0.00    -0.288 N 
ATOM      8  C   UNL     1       2.690  -0.319  -0.147  0.00  0.00    +0.304 C 
ATOM      9  O   UNL     1       3.228  -0.151   0.930  0.00  0.00    -0.252 OA
ATOM     10  N   UNL     1       3.422  -0.689  -1.216  0.00  0.00    -0.269 N 
ATOM     11  H   UNL     1       0.931  -0.269  -1.131  0.00  0.00    +0.151 HD
ATOM     12  H   UNL     1       3.008  -0.747  -2.091  0.00  0.00    +0.156 HD
BRANCH  10  13
ATOM     13  C   UNL     1       4.780  -0.990  -1.064  0.00  0.00    +0.035 A 
ATOM     14  C   UNL     1       5.663  -0.770  -2.113  0.00  0.00    +0.023 A 
ATOM     15  C   UNL     1       7.003  -1.067  -1.960  0.00  0.00    +0.002 A 
ATOM     16  C   UNL     1       7.466  -1.583  -0.763  0.00  0.00    +0.000 A 
ATOM     17  C   UNL     1       6.589  -1.804   0.283  0.00  0.00    +0.002 A 
ATOM     18  C   UNL     1       5.249  -1.503   0.138  0.00  0.00    +0.023 A 
ENDBRANCH  10  13
ENDBRANCH   6   7
ENDBRANCH   1   6
BRANCH   3  19
ATOM     19  N   UNL     1      -3.111  -0.320   1.468  0.00  0.00    -0.246 N 
ATOM     20  H   UNL     1      -3.369  -0.793   0.661  0.00  0.00    +0.172 HD
BRANCH  19  21
ATOM     21  C   UNL     1      -4.032  -0.056   2.417  0.00  0.00    +0.151 C 
ATOM     22  S   UNL     1      -5.654  -0.557   2.199  0.00  0.00    -0.017 S 
BRANCH  21  23
ATOM     23  N   UNL     1      -3.675   0.601   3.538  0.00  0.00    -0.294 N 
ATOM     24  H   UNL     1      -2.743   0.820   3.696  0.00  0.00    +0.154 HD
BRANCH  23  25
ATOM     25  C   UNL     1      -4.649   0.969   4.475  0.00  0.00    +0.068 A 
ATOM     26  C   UNL     1      -5.597   0.045   4.892  0.00  0.00    +0.029 A 
ATOM     27  C   UNL     1      -6.557   0.409   5.816  0.00  0.00    +0.040 A 
ATOM     28  C   UNL     1      -6.575   1.696   6.328  0.00  0.00    +0.126 A 
ATOM     29  C   UNL     1      -5.631   2.621   5.915  0.00  0.00    +0.078 A 
ATOM     30  C   UNL     1      -4.665   2.259   4.994  0.00  0.00    +0.147 A 
ATOM     31  F   UNL     1      -3.741   3.160   4.594  0.00  0.00    -0.203 F 
ATOM     32  F   UNL     1      -7.516   2.049   7.231  0.00  0.00    -0.205 F 
ENDBRANCH  23  25
ENDBRANCH  21  23
ENDBRANCH  19  21
ENDBRANCH   3  19
TORSDOF 7
