REMARK  Name = ZINC63746558
REMARK  5 active torsions:
REMARK  status: ('A' for Active; 'I' for Inactive)
REMARK    1  A    between atoms: C_1  and  C_2
REMARK    2  A    between atoms: C_5  and  C_31
REMARK    3  A    between atoms: C_6  and  C_23
REMARK    4  A    between atoms: C_10  and  N_12
REMARK    5  A    between atoms: N_15  and  C_16
REMARK                            x       y       z     vdW  Elec       q    Type
REMARK                         _______ _______ _______ _____ _____    ______ ____
ROOT
ATOM      1  C   UNL     1      -0.192   1.511  -0.043  0.00  0.00    +0.044 C 
ATOM      2  C   UNL     1      -0.125   0.005  -0.032  0.00  0.00    -0.048 A 
ATOM      3  C   UNL     1      -0.111  -0.655  -1.212  0.00  0.00    +0.013 A 
ATOM      4  C   UNL     1      -0.048  -2.070  -1.241  0.00  0.00    +0.006 A 
ATOM      5  C   UNL     1      -0.022  -2.986  -2.277  0.00  0.00    -0.000 C 
ATOM      6  C   UNL     1       0.047  -4.346  -1.619  0.00  0.00    +0.198 C 
ATOM      7  N   UNL     1       0.055  -4.096  -0.174  0.00  0.00    -0.368 N 
ATOM      8  C   UNL     1       0.001  -2.803   0.039  0.00  0.00    +0.065 A 
ATOM      9  C   UNL     1      -0.017  -2.014   1.280  0.00  0.00    +0.059 A 
ATOM     10  C   UNL     1      -0.074  -0.657   1.198  0.00  0.00    +0.028 A 
ATOM     11  H   UNL     1       0.093  -4.778   0.515  0.00  0.00    +0.161 HD
ENDROOT
BRANCH   6  12
ATOM     12  C   UNL     1      -1.159  -5.168  -1.998  0.00  0.00    +0.243 C 
ATOM     13  O   UNL     1      -2.129  -5.192  -1.271  0.00  0.00    -0.273 OA
ATOM     14  N   UNL     1      -1.158  -5.875  -3.146  0.00  0.00    -0.295 N 
ATOM     15  C   UNL     1       0.047  -5.955  -3.986  0.00  0.00    +0.136 C 
ATOM     16  C   UNL     1       0.321  -7.430  -4.299  0.00  0.00    +0.179 C 
ATOM     17  O   UNL     1      -0.864  -8.026  -4.832  0.00  0.00    -0.377 OA
ATOM     18  C   UNL     1      -1.972  -8.035  -3.927  0.00  0.00    +0.179 C 
ATOM     19  C   UNL     1      -2.361  -6.595  -3.592  0.00  0.00    +0.136 C 
ENDBRANCH   6  12
BRANCH   9  20
ATOM     20  N   UNL     1       0.026  -2.648   2.525  0.00  0.00    -0.267 N 
ATOM     21  C   UNL     1       0.506  -1.991   3.600  0.00  0.00    +0.308 C 
ATOM     22  O   UNL     1       0.997  -0.887   3.468  0.00  0.00    -0.252 OA
ATOM     23  N   UNL     1       0.441  -2.558   4.821  0.00  0.00    -0.268 N 
ATOM     24  H   UNL     1      -0.289  -3.561   2.615  0.00  0.00    +0.156 HD
ATOM     25  H   UNL     1       0.107  -3.464   4.918  0.00  0.00    +0.156 HD
BRANCH  23  26
ATOM     26  C   UNL     1       0.857  -1.841   5.949  0.00  0.00    +0.053 A 
ATOM     27  C   UNL     1       1.786  -0.818   5.819  0.00  0.00    +0.025 A 
ATOM     28  C   UNL     1       2.194  -0.112   6.934  0.00  0.00    +0.002 A 
ATOM     29  C   UNL     1       1.678  -0.423   8.179  0.00  0.00    +0.002 A 
ATOM     30  C   UNL     1       0.752  -1.441   8.312  0.00  0.00    +0.022 A 
ATOM     31  C   UNL     1       0.335  -2.147   7.200  0.00  0.00    +0.062 A 
ATOM     32 CL   UNL     1      -0.834  -3.421   7.366  0.00  0.00    -0.082 Cl
ENDBRANCH  23  26
ENDBRANCH   9  20
BRANCH   5  33
ATOM     33  C   UNL     1      -0.053  -2.699  -3.713  0.00  0.00    -0.019 A 
ATOM     34  C   UNL     1      -1.271  -2.710  -4.408  0.00  0.00    +0.008 A 
ATOM     35  C   UNL     1      -1.292  -2.438  -5.758  0.00  0.00    +0.001 A 
ATOM     36  C   UNL     1      -0.114  -2.154  -6.430  0.00  0.00    +0.000 A 
ATOM     37  C   UNL     1       1.094  -2.141  -5.752  0.00  0.00    +0.001 A 
ATOM     38  C   UNL     1       1.133  -2.405  -4.400  0.00  0.00    +0.008 A 
ENDBRANCH   5  33
TORSDOF 4
