REMARK  Name = ZINC32937643
REMARK  10 active torsions:
REMARK  status: ('A' for Active; 'I' for Inactive)
REMARK    1  A    between atoms: C_1  and  C_2
REMARK    2  A    between atoms: C_2  and  C_4
REMARK    3  A    between atoms: C_2  and  N_19
REMARK    4  A    between atoms: C_6  and  C_9
REMARK    5  A    between atoms: C_13  and  C_15
REMARK    6  A    between atoms: N_22  and  C_25
REMARK    7  A    between atoms: C_25  and  C_27
REMARK    8  A    between atoms: C_25  and  C_28
REMARK    9  A    between atoms: N_30  and  C_31
REMARK   10  A    between atoms: C_35  and  C_37
REMARK                            x       y       z     vdW  Elec       q    Type
REMARK                         _______ _______ _______ _____ _____    ______ ____
ROOT
ATOM      1  N   UNL     1       0.720  -0.495   1.190  0.00  0.00    +0.389 N 
ATOM      2  C   UNL     1       0.730  -1.964   1.183  0.00  0.00    -0.062 C 
ATOM      3  C   UNL     1       1.484  -2.475   2.412  0.00  0.00    +0.066 C 
ATOM      4  N   UNL     1       0.826  -1.979   3.629  0.00  0.00    -0.295 NA
ATOM      5  C   UNL     1       0.785  -0.510   3.639  0.00  0.00    +0.066 C 
ATOM      6  C   UNL     1       0.037  -0.015   2.399  0.00  0.00    -0.062 C 
ATOM      7  H   UNL     1       1.669  -0.152   1.182  0.00  0.00    -0.081 HD
ENDROOT
BRANCH   1   9
ATOM      8  C   UNL     1       0.002   1.526   0.007  0.00  0.00    -0.003 C 
ATOM      9  C   UNL     1       0.011  -0.004   0.001  0.00  0.00    +0.019 C 
BRANCH   9  10
ATOM     10  C   UNL     1       0.711  -0.497  -1.240  0.00  0.00    +0.214 A 
ATOM     11  N   UNL     1       0.132  -1.003  -2.291  0.00  0.00    -0.193 NA
ATOM     12  C   UNL     1       1.055  -1.337  -3.210  0.00  0.00    +0.202 A 
ATOM     13  N   UNL     1       2.241  -1.040  -2.739  0.00  0.00    -0.056 NA
ATOM     14  O   UNL     1       2.034  -0.483  -1.450  0.00  0.00    -0.339 OA
BRANCH  12  15
ATOM     15  C   UNL     1       0.777  -1.942  -4.536  0.00  0.00    +0.023 A 
ATOM     16  C   UNL     1      -0.536  -2.205  -4.923  0.00  0.00    +0.012 A 
ATOM     17  C   UNL     1      -0.789  -2.768  -6.158  0.00  0.00    +0.001 A 
ATOM     18  C   UNL     1       0.258  -3.070  -7.011  0.00  0.00    +0.012 A 
ATOM     19  C   UNL     1       1.562  -2.810  -6.632  0.00  0.00    +0.055 A 
ATOM     20  C   UNL     1       1.826  -2.242  -5.402  0.00  0.00    +0.024 A 
BRANCH  19  21
ATOM     21  C   UNL     1       2.697  -3.142  -7.566  0.00  0.00    +0.417 C 
ATOM     22  F   UNL     1       2.184  -3.698  -8.743  0.00  0.00    -0.166 F 
ATOM     23  F   UNL     1       3.406  -1.975  -7.872  0.00  0.00    -0.166 F 
ATOM     24  F   UNL     1       3.554  -4.061  -6.951  0.00  0.00    -0.166 F 
ENDBRANCH  19  21
ENDBRANCH  12  15
ENDBRANCH   9  10
ENDBRANCH   1   9
BRANCH   4  25
ATOM     25  C   UNL     1       1.488  -2.495   4.834  0.00  0.00    +0.140 C 
ATOM     26  C   UNL     1       2.865  -1.844   4.978  0.00  0.00    +0.034 C 
BRANCH  25  27
ATOM     27  C   UNL     1       0.650  -2.173   6.045  0.00  0.00    +0.234 C 
ATOM     28  O   UNL     1      -0.395  -1.572   5.916  0.00  0.00    -0.274 OA
ATOM     29  N   UNL     1       1.064  -2.553   7.270  0.00  0.00    -0.284 N 
ATOM     30  H   UNL     1       1.865  -3.091   7.367  0.00  0.00    +0.155 HD
BRANCH  29  31
ATOM     31  C   UNL     1       0.337  -2.170   8.403  0.00  0.00    +0.035 A 
ATOM     32  C   UNL     1       1.001  -1.875   9.588  0.00  0.00    +0.023 A 
ATOM     33  C   UNL     1       0.288  -1.496  10.710  0.00  0.00    +0.003 A 
ATOM     34  C   UNL     1      -1.089  -1.409  10.662  0.00  0.00    +0.019 A 
ATOM     35  C   UNL     1      -1.766  -1.704   9.476  0.00  0.00    +0.054 A 
ATOM     36  C   UNL     1      -1.045  -2.081   8.342  0.00  0.00    +0.042 A 
BRANCH  35  37
ATOM     37  C   UNL     1      -3.194  -1.614   9.423  0.00  0.00    +0.099 C 
ATOM     38  N   UNL     1      -4.327  -1.543   9.381  0.00  0.00    -0.191 NA
ENDBRANCH  35  37
ENDBRANCH  29  31
ENDBRANCH  25  27
ENDBRANCH   4  25
TORSDOF 8
