REMARK  Name = ZINC15020023
REMARK  6 active torsions:
REMARK  status: ('A' for Active; 'I' for Inactive)
REMARK    1  A    between atoms: C_3  and  N_8
REMARK    2  A    between atoms: C_6  and  N_7
REMARK    3  A    between atoms: C_11  and  N_24
REMARK    4  A    between atoms: N_13  and  C_14
REMARK    5  A    between atoms: C_17  and  N_20
REMARK    6  A    between atoms: C_22  and  N_23
REMARK                            x       y       z     vdW  Elec       q    Type
REMARK                         _______ _______ _______ _____ _____    ______ ____
ROOT
ATOM      1  N   UNL     1       3.979   2.416   0.163  0.00  0.00    -0.246 NA
ATOM      2  C   UNL     1       4.770   2.169   1.197  0.00  0.00    +0.087 C 
ATOM      3  C   UNL     1       4.382   1.221   2.175  0.00  0.00    +0.054 C 
ATOM      4  C   UNL     1       5.192   0.968   3.234  0.00  0.00    +0.052 C 
ATOM      5  C   UNL     1       6.472   1.678   3.367  0.00  0.00    +0.087 C 
ATOM      6  N   UNL     1       7.263   1.431   4.401  0.00  0.00    -0.246 NA
ATOM      7  C   UNL     1       6.861   2.625   2.389  0.00  0.00    +0.054 C 
ATOM      8  C   UNL     1       6.053   2.875   1.327  0.00  0.00    +0.052 C 
ENDROOT
BRANCH   1  11
ATOM      9  C   UNL     1       0.573   1.537   1.069  0.00  0.00    +0.025 A 
ATOM     10  C   UNL     1       1.821   2.101   1.132  0.00  0.00    +0.029 A 
ATOM     11  C   UNL     1       2.748   1.862   0.106  0.00  0.00    +0.065 A 
ATOM     12  C   UNL     1       2.392   1.047  -0.978  0.00  0.00    +0.029 A 
ATOM     13  C   UNL     1       1.141   0.488  -1.030  0.00  0.00    +0.025 A 
ATOM     14  C   UNL     1       0.225   0.729  -0.010  0.00  0.00    +0.025 A 
BRANCH  14  15
ATOM     15  N   UNL     1      -1.045   0.158  -0.068  0.00  0.00    -0.358 N 
ATOM     16  H   UNL     1      -1.685   0.324   0.642  0.00  0.00    +0.142 HD
ATOM     17  H   UNL     1      -1.289  -0.406  -0.819  0.00  0.00    +0.142 HD
ENDBRANCH  14  15
ENDBRANCH   1  11
BRANCH   6  18
ATOM     18  C   UNL     1       6.981   0.408   5.238  0.00  0.00    +0.065 A 
ATOM     19  C   UNL     1       7.090  -0.917   4.790  0.00  0.00    +0.029 A 
ATOM     20  C   UNL     1       6.803  -1.951   5.643  0.00  0.00    +0.025 A 
ATOM     21  C   UNL     1       6.404  -1.688   6.952  0.00  0.00    +0.025 A 
ATOM     22  C   UNL     1       6.295  -0.375   7.401  0.00  0.00    +0.025 A 
ATOM     23  C   UNL     1       6.585   0.667   6.558  0.00  0.00    +0.029 A 
BRANCH  21  24
ATOM     24  N   UNL     1       6.114  -2.743   7.814  0.00  0.00    -0.358 N 
ATOM     25  H   UNL     1       6.189  -3.659   7.503  0.00  0.00    +0.142 HD
ATOM     26  H   UNL     1       5.836  -2.562   8.725  0.00  0.00    +0.142 HD
ENDBRANCH  21  24
ENDBRANCH   6  18
BRANCH   8  27
ATOM     27  N   UNL     1       6.437   3.802   0.365  0.00  0.00    -0.356 N 
ATOM     28  H   UNL     1       5.858   3.982  -0.392  0.00  0.00    +0.142 HD
ATOM     29  H   UNL     1       7.283   4.267   0.451  0.00  0.00    +0.142 HD
ENDBRANCH   8  27
BRANCH   4  30
ATOM     30  N   UNL     1       4.810   0.038   4.194  0.00  0.00    -0.356 N 
ATOM     31  H   UNL     1       4.400  -0.798   3.923  0.00  0.00    +0.142 HD
ATOM     32  H   UNL     1       4.954   0.225   5.135  0.00  0.00    +0.142 HD
ENDBRANCH   4  30
TORSDOF 6
