REMARK  Name = ZINC39480685
REMARK  9 active torsions:
REMARK  status: ('A' for Active; 'I' for Inactive)
REMARK    1  A    between atoms: C_4  and  C_7
REMARK    2  A    between atoms: C_7  and  C_8
REMARK    3  A    between atoms: C_11  and  N_28
REMARK    4  A    between atoms: C_12  and  N_14
REMARK    5  A    between atoms: C_18  and  C_21
REMARK    6  A    between atoms: C_26  and  O_27
REMARK    7  A    between atoms: N_28  and  S_29
REMARK    8  A    between atoms: S_29  and  C_32
REMARK    9  A    between atoms: C_37  and  O_38
REMARK                            x       y       z     vdW  Elec       q    Type
REMARK                         _______ _______ _______ _____ _____    ______ ____
ROOT
ATOM      1  C   UNL     1       3.143  -0.679   2.123  0.00  0.00    -0.041 A 
ATOM      2  C   UNL     1       4.120   0.198   2.556  0.00  0.00    +0.006 A 
ATOM      3  C   UNL     1       4.843  -0.077   3.702  0.00  0.00    +0.026 A 
ATOM      4  C   UNL     1       4.589  -1.235   4.421  0.00  0.00    +0.069 A 
ATOM      5  C   UNL     1       3.602  -2.120   3.985  0.00  0.00    +0.053 A 
ATOM      6  C   UNL     1       2.879  -1.833   2.837  0.00  0.00    +0.029 A 
ENDROOT
BRANCH   5   7
ATOM      7  N   UNL     1       3.341  -3.291   4.706  0.00  0.00    -0.331 N 
ATOM      8  C   UNL     1       2.337  -3.309   5.781  0.00  0.00    +0.086 C 
ATOM      9  C   UNL     1       2.973  -3.931   7.029  0.00  0.00    -0.063 C 
ATOM     10  N   UNL     1       3.522  -5.250   6.691  0.00  0.00    +0.386 N 
ATOM     11  C   UNL     1       4.615  -5.103   5.721  0.00  0.00    -0.020 C 
ATOM     12  C   UNL     1       4.057  -4.540   4.406  0.00  0.00    +0.094 C 
ATOM     13  H   UNL     1       3.873  -5.692   7.527  0.00  0.00    -0.085 HD
ATOM     14  H   UNL     1       2.795  -5.824   6.291  0.00  0.00    -0.085 HD
BRANCH  11  15
ATOM     15  C   UNL     1       5.243  -6.449   5.464  0.00  0.00    -0.018 A 
ATOM     16  C   UNL     1       4.508  -7.603   5.656  0.00  0.00    +0.005 A 
ATOM     17  C   UNL     1       5.084  -8.838   5.420  0.00  0.00    +0.000 A 
ATOM     18  C   UNL     1       6.396  -8.921   4.993  0.00  0.00    +0.004 A 
ATOM     19  C   UNL     1       7.135  -7.770   4.800  0.00  0.00    +0.045 A 
ATOM     20  C   UNL     1       6.558  -6.530   5.030  0.00  0.00    +0.118 A 
BRANCH  20  21
ATOM     21  O   UNL     1       7.282  -5.396   4.835  0.00  0.00    -0.507 OA
ATOM     22  H   UNL     1       7.766  -5.099   5.618  0.00  0.00    +0.292 HD
ENDBRANCH  20  21
ENDBRANCH  11  15
ENDBRANCH   5   7
BRANCH   4  23
ATOM     23  N   UNL     1       5.320  -1.516   5.581  0.00  0.00    -0.214 N 
ATOM     24  H   UNL     1       5.550  -2.433   5.800  0.00  0.00    +0.174 HD
BRANCH  23  25
ATOM     25  S   UNL     1       5.793  -0.284   6.581  0.00  0.00    +0.076 S 
ATOM     26  O   UNL     1       4.659   0.553   6.758  0.00  0.00    -0.150 OA
ATOM     27  O   UNL     1       6.475  -0.885   7.673  0.00  0.00    -0.150 OA
BRANCH  25  28
ATOM     28  C   UNL     1       6.989   0.668   5.704  0.00  0.00    +0.150 A 
ATOM     29  C   UNL     1       6.726   1.987   5.388  0.00  0.00    +0.032 A 
ATOM     30  C   UNL     1       7.663   2.735   4.699  0.00  0.00    +0.002 A 
ATOM     31  C   UNL     1       8.867   2.164   4.326  0.00  0.00    +0.004 A 
ATOM     32  C   UNL     1       9.135   0.846   4.640  0.00  0.00    +0.047 A 
ATOM     33  C   UNL     1       8.197   0.096   5.336  0.00  0.00    +0.143 A 
BRANCH  33  34
ATOM     34  O   UNL     1       8.461  -1.200   5.651  0.00  0.00    -0.505 OA
ATOM     35  H   UNL     1       8.199  -1.832   4.968  0.00  0.00    +0.292 HD
ENDBRANCH  33  34
ENDBRANCH  25  28
ENDBRANCH  23  25
ENDBRANCH   4  23
BRANCH   1  36
ATOM     36  C   UNL     1       2.359  -0.372   0.874  0.00  0.00    +0.070 C 
BRANCH  36  40
ATOM     37  C   UNL     1      -1.112   1.901   1.889  0.00  0.00    +0.000 A 
ATOM     38  C   UNL     1       0.072   2.546   1.584  0.00  0.00    +0.000 A 
ATOM     39  C   UNL     1       1.195   1.810   1.255  0.00  0.00    +0.004 A 
ATOM     40  C   UNL     1       1.134   0.430   1.233  0.00  0.00    -0.043 A 
ATOM     41  C   UNL     1      -0.049  -0.215   1.539  0.00  0.00    +0.004 A 
ATOM     42  C   UNL     1      -1.173   0.520   1.866  0.00  0.00    +0.000 A 
ENDBRANCH  36  40
ENDBRANCH   1  36
TORSDOF 9
