REMARK  Name = ZINC12950470
REMARK  6 active torsions:
REMARK  status: ('A' for Active; 'I' for Inactive)
REMARK    1  A    between atoms: C_1  and  O_2
REMARK    2  A    between atoms: O_2  and  C_3
REMARK    3  A    between atoms: C_3  and  C_5
REMARK    4  A    between atoms: C_5  and  C_31
REMARK    5  A    between atoms: C_10  and  C_12
REMARK    6  A    between atoms: N_21  and  C_24
REMARK                            x       y       z     vdW  Elec       q    Type
REMARK                         _______ _______ _______ _____ _____    ______ ____
ROOT
ATOM      1  C   UNL     1      -1.230   1.375   0.779  0.00  0.00    +0.070 C 
ATOM      2  C   UNL     1       0.004   1.079   0.037  0.00  0.00    +0.090 C 
ATOM      3  C   UNL     1      -0.386   1.464  -1.446  0.00  0.00    +0.078 C 
ATOM      4  C   UNL     1      -1.700   0.673  -1.481  0.00  0.00    -0.025 C 
ATOM      5  C   UNL     1       0.840   0.867  -2.085  0.00  0.00    +0.229 C 
ATOM      6  O   UNL     1       0.908   0.317  -3.163  0.00  0.00    -0.275 OA
ATOM      7  N   UNL     1       1.859   1.074  -1.199  0.00  0.00    -0.210 N 
ATOM      8  C   UNL     1       1.413   1.392   0.059  0.00  0.00    +0.229 C 
ATOM      9  O   UNL     1       2.059   1.838   0.984  0.00  0.00    -0.275 OA
ATOM     10  N   UNL     1      -2.318   1.022  -0.170  0.00  0.00    +0.398 N 
ATOM     11  H   UNL     1      -2.950   1.822  -0.286  0.00  0.00    -0.083 HD
ATOM     12  H   UNL     1      -2.845   0.218   0.191  0.00  0.00    -0.083 HD
ENDROOT
BRANCH   4  13
ATOM     13  C   UNL     1      -2.565   1.125  -2.630  0.00  0.00    -0.042 A 
ATOM     14  C   UNL     1      -3.548   2.074  -2.424  0.00  0.00    +0.003 A 
ATOM     15  C   UNL     1      -4.338   2.492  -3.478  0.00  0.00    +0.000 A 
ATOM     16  C   UNL     1      -4.152   1.952  -4.738  0.00  0.00    +0.001 A 
ATOM     17  C   UNL     1      -3.173   0.999  -4.944  0.00  0.00    +0.020 A 
ATOM     18  C   UNL     1      -2.378   0.585  -3.890  0.00  0.00    +0.043 A 
ATOM     19 CL   UNL     1      -1.148  -0.613  -4.148  0.00  0.00    -0.083 Cl
ENDBRANCH   4  13
BRANCH   7  20
ATOM     20  C   UNL     1       3.216   0.971  -1.540  0.00  0.00    +0.044 A 
ATOM     21  C   UNL     1       4.192   1.202  -0.581  0.00  0.00    +0.025 A 
ATOM     22  C   UNL     1       5.528   1.095  -0.917  0.00  0.00    +0.022 A 
ATOM     23  C   UNL     1       5.892   0.768  -2.211  0.00  0.00    +0.041 A 
ATOM     24  C   UNL     1       4.921   0.543  -3.170  0.00  0.00    +0.022 A 
ATOM     25  C   UNL     1       3.584   0.643  -2.837  0.00  0.00    +0.025 A 
ATOM     26 CL   UNL     1       7.572   0.641  -2.632  0.00  0.00    -0.084 Cl
ENDBRANCH   7  20
BRANCH   1  27
ATOM     27  C   UNL     1      -1.280   2.833   1.157  0.00  0.00    -0.047 A 
ATOM     28  C   UNL     1      -2.272   3.647   0.641  0.00  0.00    +0.003 A 
ATOM     29  C   UNL     1      -2.321   4.983   0.992  0.00  0.00    +0.000 A 
ATOM     30  C   UNL     1      -1.373   5.508   1.850  0.00  0.00    +0.000 A 
ATOM     31  C   UNL     1      -0.378   4.696   2.361  0.00  0.00    +0.000 A 
ATOM     32  C   UNL     1      -0.332   3.358   2.014  0.00  0.00    +0.003 A 
ENDBRANCH   1  27
BRANCH   1  33
ATOM     33  C   UNL     1      -1.327   0.507   2.007  0.00  0.00    +0.301 C 
ATOM     34  O   UNL     1      -0.324   0.059   2.512  0.00  0.00    -0.252 OA
BRANCH  33  36
ATOM     35  C   UNL     1      -2.545  -0.610   3.724  0.00  0.00    +0.280 C 
ATOM     36  O   UNL     1      -2.527   0.232   2.542  0.00  0.00    -0.469 OA
ENDBRANCH  33  36
ENDBRANCH   1  33
TORSDOF 5
