REMARK  Name = ZINC62200862
REMARK  4 active torsions:
REMARK  status: ('A' for Active; 'I' for Inactive)
REMARK    1  A    between atoms: C_1  and  C_2
REMARK    2  A    between atoms: C_2  and  C_4
REMARK    3  A    between atoms: C_2  and  N_16
REMARK    4  A    between atoms: C_4  and  C_5
REMARK                            x       y       z     vdW  Elec       q    Type
REMARK                         _______ _______ _______ _____ _____    ______ ____
ROOT
ATOM      1  C   UNL     1       0.657  -2.014   1.298  0.00  0.00    -0.046 A 
ATOM      2  C   UNL     1      -0.397  -2.625   1.956  0.00  0.00    +0.009 A 
ATOM      3  C   UNL     1      -0.472  -3.999   2.006  0.00  0.00    -0.014 A 
ATOM      4  C   UNL     1       0.498  -4.787   1.402  0.00  0.00    +0.073 A 
ATOM      5  C   UNL     1       1.558  -4.166   0.740  0.00  0.00    +0.145 A 
ATOM      6  C   UNL     1       1.628  -2.787   0.687  0.00  0.00    +0.043 A 
ATOM      7  F   UNL     1       2.514  -4.913   0.146  0.00  0.00    -0.204 F 
ATOM      8  N   UNL     1       0.206  -6.140   1.587  0.00  0.00    -0.283 N 
ATOM      9  C   UNL     1      -0.924  -6.324   2.292  0.00  0.00    +0.222 C 
ATOM     10  O   UNL     1      -1.415  -7.389   2.600  0.00  0.00    -0.275 OA
ATOM     11  C   UNL     1      -1.467  -4.952   2.628  0.00  0.00    +0.133 C 
ATOM     12  H   UNL     1       0.754  -6.864   1.247  0.00  0.00    +0.155 HD
ENDROOT
BRANCH   1  13
ATOM     13  C   UNL     1       0.742  -0.511   1.242  0.00  0.00    +0.019 C 
BRANCH  13  15
ATOM     14  C   UNL     1      -0.019   1.526   0.010  0.00  0.00    -0.014 C 
ATOM     15  C   UNL     1       0.002  -0.004   0.002  0.00  0.00    -0.074 C 
BRANCH  15  16
ATOM     16  N   UNL     1       0.690  -0.478  -1.207  0.00  0.00    +0.380 N 
ATOM     17  H   UNL     1       1.636  -0.129  -1.214  0.00  0.00    -0.090 HD
ATOM     18  H   UNL     1       0.703  -1.487  -1.212  0.00  0.00    -0.090 HD
ATOM     19  H   UNL     1       0.202  -0.144  -2.024  0.00  0.00    -0.090 HD
ENDBRANCH  15  16
ENDBRANCH  13  15
ENDBRANCH   1  13
TORSDOF 3
