REMARK  Name = ZINC08799020
REMARK  7 active torsions:
REMARK  status: ('A' for Active; 'I' for Inactive)
REMARK    1  A    between atoms: C_1  and  N_2
REMARK    2  A    between atoms: C_10  and  C_12
REMARK    3  A    between atoms: C_12  and  C_14
REMARK    4  A    between atoms: C_12  and  N_57
REMARK    5  A    between atoms: C_14  and  N_15
REMARK    6  A    between atoms: N_15  and  S_16
REMARK    7  A    between atoms: S_16  and  C_19
REMARK                            x       y       z     vdW  Elec       q    Type
REMARK                         _______ _______ _______ _____ _____    ______ ____
ROOT
ATOM      1  C   UNL     1      -1.446   1.159   2.597  0.00  0.00    -0.022 C 
ENDROOT
BRANCH   1  11
ATOM      2  C   UNL     1       3.056   0.937   7.025  0.00  0.00    +0.129 C 
ATOM      3  N   UNL     1       2.586  -0.268   6.328  0.00  0.00    -0.333 N 
ATOM      4  C   UNL     1       2.211  -1.313   7.282  0.00  0.00    +0.105 C 
ATOM      5  C   UNL     1       1.705  -2.532   6.501  0.00  0.00    +0.024 C 
ATOM      6  C   UNL     1       0.377  -2.152   5.843  0.00  0.00    +0.038 C 
ATOM      7  C   UNL     1       0.514  -0.815   5.159  0.00  0.00    -0.026 A 
ATOM      8  C   UNL     1       1.569   0.041   5.426  0.00  0.00    +0.033 A 
ATOM      9  C   UNL     1       1.636   1.270   4.769  0.00  0.00    +0.023 A 
ATOM     10  C   UNL     1       0.668   1.627   3.855  0.00  0.00    +0.004 A 
ATOM     11  C   UNL     1      -0.384   0.770   3.594  0.00  0.00    -0.059 A 
ATOM     12  C   UNL     1      -0.458  -0.447   4.242  0.00  0.00    +0.007 A 
ENDBRANCH   1  11
BRANCH   1  17
ATOM     13  C   UNL     1      -2.910   2.971   1.891  0.00  0.00    -0.078 C 
ATOM     14  C   UNL     1      -3.429   4.274   2.550  0.00  0.00    -0.020 C 
ATOM     15  C   UNL     1      -3.257   3.989   4.060  0.00  0.00    -0.020 C 
ATOM     16  C   UNL     1      -2.191   2.881   4.141  0.00  0.00    -0.078 C 
ATOM     17  N   UNL     1      -1.783   2.605   2.763  0.00  0.00    +0.385 N 
ATOM     18  H   UNL     1      -0.961   3.172   2.524  0.00  0.00    -0.081 HD
ENDBRANCH   1  17
BRANCH   1  19
ATOM     19  C   UNL     1      -0.931   0.907   1.179  0.00  0.00    +0.095 C 
BRANCH  19  20
ATOM     20  N   UNL     1      -1.994   1.199   0.214  0.00  0.00    -0.191 NA
ATOM     21  H   UNL     1      -2.916   1.253   0.510  0.00  0.00    +0.148 HD
BRANCH  20  22
ATOM     22  S   UNL     1      -1.622   1.436  -1.382  0.00  0.00    +0.059 S 
ATOM     23  O   UNL     1      -2.857   1.586  -2.069  0.00  0.00    -0.153 OA
ATOM     24  O   UNL     1      -0.604   2.426  -1.419  0.00  0.00    -0.153 OA
BRANCH  22  25
ATOM     25  C   UNL     1      -0.894  -0.056  -1.974  0.00  0.00    +0.119 A 
ATOM     26  C   UNL     1       0.419  -0.060  -2.406  0.00  0.00    +0.029 A 
ATOM     27  C   UNL     1       0.991  -1.232  -2.867  0.00  0.00    +0.002 A 
ATOM     28  C   UNL     1       0.247  -2.397  -2.905  0.00  0.00    +0.001 A 
ATOM     29  C   UNL     1      -1.067  -2.392  -2.478  0.00  0.00    +0.017 A 
ATOM     30  C   UNL     1      -1.639  -1.221  -2.012  0.00  0.00    +0.044 A 
ATOM     31 BR   UNL     1      -3.438  -1.214  -1.429  0.00  0.00    -0.048 Br
ENDBRANCH  22  25
ENDBRANCH  20  22
ENDBRANCH  19  20
ENDBRANCH   1  19
TORSDOF 6
