REMARK  Name = ZINC64338110
REMARK  10 active torsions:
REMARK  status: ('A' for Active; 'I' for Inactive)
REMARK    1  A    between atoms: C_1  and  O_2
REMARK    2  A    between atoms: O_2  and  C_3
REMARK    3  A    between atoms: C_8  and  N_9
REMARK    4  A    between atoms: N_9  and  S_10
REMARK    5  A    between atoms: S_10  and  C_13
REMARK    6  A    between atoms: C_16  and  O_32
REMARK    7  A    between atoms: C_17  and  N_19
REMARK    8  A    between atoms: C_20  and  C_22
REMARK    9  A    between atoms: C_22  and  C_23
REMARK   10  A    between atoms: O_32  and  C_33
REMARK                            x       y       z     vdW  Elec       q    Type
REMARK                         _______ _______ _______ _____ _____    ______ ____
ROOT
ATOM      1  C   UNL     1       2.297  -3.996   1.001  0.00  0.00    +0.110 A 
ATOM      2  C   UNL     1       3.430  -3.897   0.214  0.00  0.00    +0.032 A 
ATOM      3  C   UNL     1       4.662  -3.668   0.796  0.00  0.00    +0.049 A 
ATOM      4  C   UNL     1       4.766  -3.537   2.172  0.00  0.00    +0.141 A 
ATOM      5  C   UNL     1       3.625  -3.635   2.965  0.00  0.00    +0.077 A 
ATOM      6  C   UNL     1       2.390  -3.860   2.373  0.00  0.00    +0.055 A 
ENDROOT
BRANCH   5   7
ATOM      7  N   UNL     1       3.723  -3.503   4.356  0.00  0.00    -0.282 N 
ATOM      8  C   UNL     1       2.906  -4.212   5.160  0.00  0.00    +0.221 C 
ATOM      9  O   UNL     1       2.029  -4.899   4.680  0.00  0.00    -0.275 OA
ATOM     10  H   UNL     1       4.379  -2.901   4.741  0.00  0.00    +0.155 HD
BRANCH   8  11
ATOM     11  C   UNL     1       3.082  -4.152   6.655  0.00  0.00    +0.129 C 
BRANCH  11  12
ATOM     12  C   UNL     1       2.050  -5.028   7.318  0.00  0.00    -0.033 C 
ATOM     13  C   UNL     1       2.208  -6.310   7.719  0.00  0.00    -0.001 A 
ATOM     14  C   UNL     1       3.344  -7.238   7.659  0.00  0.00    +0.010 A 
ATOM     15  C   UNL     1       3.196  -8.488   8.153  0.00  0.00    +0.001 A 
ATOM     16  C   UNL     1       1.988  -8.919   8.718  0.00  0.00    +0.002 A 
ATOM     17  C   UNL     1       0.900  -8.125   8.808  0.00  0.00    +0.026 A 
ATOM     18  C   UNL     1       0.943  -6.790   8.321  0.00  0.00    +0.043 A 
ATOM     19  N   UNL     1       0.039  -5.841   8.294  0.00  0.00    -0.380 N 
ATOM     20  C   UNL     1       0.630  -4.649   7.676  0.00  0.00    +0.145 C 
ATOM     21  H   UNL     1      -0.868  -5.914   8.630  0.00  0.00    +0.160 HD
ENDBRANCH  11  12
ENDBRANCH   8  11
ENDBRANCH   5   7
BRANCH   1  22
ATOM     22  S   UNL     1       0.729  -4.289   0.252  0.00  0.00    +0.073 S 
ATOM     23  O   UNL     1      -0.094  -4.878   1.249  0.00  0.00    -0.150 OA
ATOM     24  O   UNL     1       0.987  -4.922  -0.994  0.00  0.00    -0.150 OA
BRANCH  22  25
ATOM     25  N   UNL     1       0.069  -2.811  -0.096  0.00  0.00    -0.213 N 
ATOM     26  H   UNL     1      -0.779  -2.554   0.299  0.00  0.00    +0.174 HD
BRANCH  25  32
ATOM     27  C   UNL     1       0.680  -0.559  -0.736  0.00  0.00    +0.142 A 
ATOM     28  C   UNL     1       1.345   0.305  -1.591  0.00  0.00    +0.047 A 
ATOM     29  C   UNL     1       2.055  -0.197  -2.666  0.00  0.00    +0.004 A 
ATOM     30  C   UNL     1       2.104  -1.560  -2.892  0.00  0.00    +0.002 A 
ATOM     31  C   UNL     1       1.444  -2.429  -2.043  0.00  0.00    +0.028 A 
ATOM     32  C   UNL     1       0.734  -1.933  -0.960  0.00  0.00    +0.090 A 
BRANCH  27  34
ATOM     33  C   UNL     1      -0.031   1.352   0.488  0.00  0.00    +0.277 C 
ATOM     34  O   UNL     1      -0.020  -0.067   0.322  0.00  0.00    -0.493 OA
ENDBRANCH  27  34
ENDBRANCH  25  32
ENDBRANCH  22  25
ENDBRANCH   1  22
BRANCH   4  35
ATOM     35  O   UNL     1       5.978  -3.312   2.746  0.00  0.00    -0.493 OA
ATOM     36  C   UNL     1       7.104  -3.222   1.870  0.00  0.00    +0.277 C 
ENDBRANCH   4  35
TORSDOF 8
