REMARK  Name = ZINC58954416
REMARK  8 active torsions:
REMARK  status: ('A' for Active; 'I' for Inactive)
REMARK    1  A    between atoms: C_1  and  C_2
REMARK    2  A    between atoms: C_2  and  N_3
REMARK    3  A    between atoms: N_6  and  C_9
REMARK    4  A    between atoms: C_9  and  C_10
REMARK    5  A    between atoms: C_15  and  C_16
REMARK    6  A    between atoms: C_16  and  N_17
REMARK    7  A    between atoms: C_18  and  C_20
REMARK    8  A    between atoms: C_26  and  C_28
REMARK                            x       y       z     vdW  Elec       q    Type
REMARK                         _______ _______ _______ _____ _____    ______ ____
ROOT
ATOM      1  N   UNL     1      -5.402  -3.355   1.913  0.00  0.00    -0.311 N 
ATOM      2  C   UNL     1      -5.731  -2.801   3.097  0.00  0.00    +0.217 C 
ATOM      3  O   UNL     1      -4.865  -2.358   3.821  0.00  0.00    -0.275 OA
ATOM      4  H   UNL     1      -6.095  -3.710   1.335  0.00  0.00    +0.149 HD
ENDROOT
BRANCH   2   5
ATOM      5  C   UNL     1      -7.175  -2.734   3.522  0.00  0.00    +0.087 C 
ATOM      6  C   UNL     1      -7.750  -4.150   3.604  0.00  0.00    +0.013 C 
ATOM      7  C   UNL     1      -9.216  -4.081   4.035  0.00  0.00    +0.001 C 
ATOM      8  C   UNL     1      -9.313  -3.412   5.407  0.00  0.00    +0.001 C 
ATOM      9  C   UNL     1      -8.739  -1.996   5.326  0.00  0.00    +0.013 C 
ATOM     10  C   UNL     1      -7.272  -2.065   4.895  0.00  0.00    +0.087 C 
BRANCH  10  11
ATOM     11  C   UNL     1      -6.489  -2.867   5.902  0.00  0.00    +0.224 C 
ATOM     12  O   UNL     1      -6.128  -3.993   5.631  0.00  0.00    -0.275 OA
ATOM     13  N   UNL     1      -6.190  -2.334   7.103  0.00  0.00    -0.271 N 
ATOM     14  C   UNL     1      -6.659  -1.032   7.584  0.00  0.00    +0.118 C 
ATOM     15  C   UNL     1      -6.054  -0.879   8.989  0.00  0.00    +0.056 C 
ATOM     16  C   UNL     1      -5.263  -2.150   9.203  0.00  0.00    -0.024 A 
ATOM     17  C   UNL     1      -5.393  -2.945   8.075  0.00  0.00    +0.039 A 
ATOM     18  C   UNL     1      -4.749  -4.183   8.041  0.00  0.00    +0.024 A 
ATOM     19  C   UNL     1      -3.999  -4.607   9.118  0.00  0.00    +0.002 A 
ATOM     20  C   UNL     1      -3.880  -3.809  10.240  0.00  0.00    +0.000 A 
ATOM     21  C   UNL     1      -4.508  -2.577  10.278  0.00  0.00    +0.005 A 
ENDBRANCH  10  11
ENDBRANCH   2   5
BRANCH   1  22
ATOM     22  C   UNL     1      -3.998  -3.420   1.500  0.00  0.00    +0.139 C 
BRANCH  22  28
ATOM     23  C   UNL     1      -4.159  -3.349  -0.997  0.00  0.00    -0.029 A 
ATOM     24  C   UNL     1      -4.066  -3.953  -2.237  0.00  0.00    +0.005 A 
ATOM     25  C   UNL     1      -3.721  -5.288  -2.332  0.00  0.00    +0.000 A 
ATOM     26  C   UNL     1      -3.470  -6.020  -1.186  0.00  0.00    +0.000 A 
ATOM     27  C   UNL     1      -3.562  -5.416   0.054  0.00  0.00    +0.005 A 
ATOM     28  C   UNL     1      -3.902  -4.080   0.148  0.00  0.00    -0.026 A 
BRANCH  23  29
ATOM     29  C   UNL     1      -4.535  -1.893  -0.893  0.00  0.00    +0.119 C 
BRANCH  29  33
ATOM     30  N   UNL     1      -8.596  -0.727  -0.774  0.00  0.00    +0.381 N 
ATOM     31  C   UNL     1      -7.737  -0.353   0.357  0.00  0.00    -0.063 C 
ATOM     32  C   UNL     1      -6.270  -0.416  -0.074  0.00  0.00    +0.066 C 
ATOM     33  N   UNL     1      -5.952  -1.778  -0.524  0.00  0.00    -0.302 NA
ATOM     34  C   UNL     1      -6.821  -2.175  -1.640  0.00  0.00    +0.066 C 
ATOM     35  C   UNL     1      -8.283  -2.099  -1.196  0.00  0.00    -0.063 C 
ATOM     36  H   UNL     1      -8.433  -0.093  -1.542  0.00  0.00    -0.082 HD
BRANCH  30  38
ATOM     37  C   UNL     1     -10.363   0.803  -0.044  0.00  0.00    -0.017 C 
ATOM     38  C   UNL     1     -10.005  -0.649  -0.365  0.00  0.00    -0.082 C 
ENDBRANCH  30  38
ENDBRANCH  29  33
ENDBRANCH  23  29
ENDBRANCH  22  28
ENDBRANCH   1  22
TORSDOF 7
