REMARK  Name = ZINC02201373
REMARK  9 active torsions:
REMARK  status: ('A' for Active; 'I' for Inactive)
REMARK    1  A    between atoms: C_1  and  C_2
REMARK    2  A    between atoms: C_5  and  C_9
REMARK    3  A    between atoms: C_6  and  C_8
REMARK    4  A    between atoms: C_12  and  C_14
REMARK    5  A    between atoms: C_14  and  C_30
REMARK    6  A    between atoms: C_15  and  N_16
REMARK    7  A    between atoms: N_16  and  C_17
REMARK    8  A    between atoms: C_20  and  S_23
REMARK    9  A    between atoms: S_23  and  N_26
REMARK                            x       y       z     vdW  Elec       q    Type
REMARK                         _______ _______ _______ _____ _____    ______ ____
ROOT
ATOM      1  N   UNL     1      -0.181  -9.136   0.335  0.00  0.00    -0.319 N 
ATOM      2  H   UNL     1      -0.117  -8.476  -0.372  0.00  0.00    +0.152 HD
ENDROOT
BRANCH   1   3
ATOM      3  C   UNL     1      -0.220 -10.497   0.018  0.00  0.00    +0.031 A 
ATOM      4  C   UNL     1      -0.317 -11.444   1.030  0.00  0.00    +0.025 A 
ATOM      5  C   UNL     1      -0.356 -12.788   0.714  0.00  0.00    +0.031 A 
ATOM      6  C   UNL     1      -0.298 -13.191  -0.608  0.00  0.00    +0.113 A 
ATOM      7  C   UNL     1      -0.201 -12.250  -1.617  0.00  0.00    +0.031 A 
ATOM      8  C   UNL     1      -0.168 -10.905  -1.308  0.00  0.00    +0.025 A 
BRANCH   6   9
ATOM      9  S   UNL     1      -0.347 -14.906  -1.007  0.00  0.00    +0.102 S 
ATOM     10  O   UNL     1       0.271 -15.045  -2.279  0.00  0.00    -0.146 OA
ATOM     11  O   UNL     1       0.111 -15.604   0.143  0.00  0.00    -0.146 OA
BRANCH   9  12
ATOM     12  N   UNL     1      -1.939 -15.317  -1.207  0.00  0.00    -0.093 NA
ATOM     13  C   UNL     1      -2.263 -16.542  -1.511  0.00  0.00    +0.212 C 
ATOM     14  N   UNL     1      -1.283 -17.494  -1.666  0.00  0.00    -0.369 N 
ATOM     15  N   UNL     1      -3.584 -16.883  -1.677  0.00  0.00    -0.369 N 
ATOM     16  H   UNL     1      -0.350 -17.253  -1.548  0.00  0.00    +0.159 HD
ATOM     17  H   UNL     1      -4.276 -16.212  -1.568  0.00  0.00    +0.159 HD
ATOM     18  H   UNL     1      -3.825 -17.795  -1.903  0.00  0.00    +0.159 HD
ATOM     19  H   UNL     1      -1.524 -18.406  -1.892  0.00  0.00    +0.159 HD
ENDBRANCH   9  12
ENDBRANCH   6   9
ENDBRANCH   1   3
BRANCH   1  21
ATOM     20  C   UNL     1      -0.305  -7.410   1.945  0.00  0.00    +0.098 C 
ATOM     21  C   UNL     1      -0.232  -8.737   1.641  0.00  0.00    +0.093 C 
BRANCH  20  25
ATOM     22  C   UNL     1       0.675  -5.264  -0.930  0.00  0.00    +0.079 A 
ATOM     23  C   UNL     1      -0.402  -4.419  -0.922  0.00  0.00    +0.075 A 
ATOM     24  S   UNL     1      -1.333  -5.080   0.454  0.00  0.00    -0.074 S 
ATOM     25  C   UNL     1      -0.204  -6.401   0.873  0.00  0.00    +0.120 A 
ATOM     26  N   UNL     1       0.744  -6.236  -0.037  0.00  0.00    -0.238 NA
BRANCH  22  31
ATOM     27  C   UNL     1       4.857  -4.602  -4.834  0.00  0.00    +0.044 C 
ATOM     28  C   UNL     1       3.763  -4.775  -3.812  0.00  0.00    -0.050 A 
ATOM     29  C   UNL     1       2.438  -4.765  -4.212  0.00  0.00    +0.004 A 
ATOM     30  C   UNL     1       1.432  -4.923  -3.281  0.00  0.00    +0.010 A 
ATOM     31  C   UNL     1       1.752  -5.094  -1.935  0.00  0.00    +0.004 A 
ATOM     32  C   UNL     1       3.088  -5.104  -1.538  0.00  0.00    -0.041 A 
ATOM     33  C   UNL     1       4.086  -4.950  -2.479  0.00  0.00    +0.007 A 
ATOM     34  C   UNL     1       3.442  -5.288  -0.085  0.00  0.00    +0.044 C 
ENDBRANCH  22  31
ENDBRANCH  20  25
BRANCH  20  35
ATOM     35  C   UNL     1      -0.480  -6.996   3.304  0.00  0.00    +0.103 C 
ATOM     36  N   UNL     1      -0.618  -6.668   4.383  0.00  0.00    -0.191 NA
ENDBRANCH  20  35
ENDBRANCH   1  21
TORSDOF 7
