REMARK  Name = ZINC06898703
REMARK  4 active torsions:
REMARK  status: ('A' for Active; 'I' for Inactive)
REMARK    1  A    between atoms: C_4  and  N_22
REMARK    2  A    between atoms: C_5  and  C_7
REMARK    3  A    between atoms: C_7  and  N_9
REMARK    4  A    between atoms: C_10  and  N_11
REMARK                            x       y       z     vdW  Elec       q    Type
REMARK                         _______ _______ _______ _____ _____    ______ ____
ROOT
ATOM      1  N   UNL     1       0.470  -2.851  -0.156  0.00  0.00    -0.141 NA
ATOM      2  C   UNL     1       0.614  -4.166  -0.173  0.00  0.00    +0.215 C 
ATOM      3  N   UNL     1      -0.486  -4.973  -0.275  0.00  0.00    -0.306 N 
ATOM      4  C   UNL     1      -1.755  -4.419  -0.255  0.00  0.00    +0.174 A 
ATOM      5  N   UNL     1      -2.100  -3.152  -0.239  0.00  0.00    -0.223 NA
ATOM      6  C   UNL     1      -3.390  -2.752  -0.220  0.00  0.00    +0.080 A 
ATOM      7  C   UNL     1      -3.894  -1.430  -0.202  0.00  0.00    +0.029 A 
ATOM      8  C   UNL     1      -5.244  -1.196  -0.183  0.00  0.00    +0.002 A 
ATOM      9  C   UNL     1      -6.161  -2.237  -0.180  0.00  0.00    +0.001 A 
ATOM     10  C   UNL     1      -5.703  -3.542  -0.198  0.00  0.00    +0.017 A 
ATOM     11  C   UNL     1      -4.353  -3.787  -0.217  0.00  0.00    +0.041 A 
ATOM     12  S   UNL     1      -3.340  -5.246  -0.250  0.00  0.00    -0.050 S 
ATOM     13  H   UNL     1      -0.378  -5.933  -0.361  0.00  0.00    +0.171 HD
ENDROOT
BRANCH   1  14
ATOM     14  C   UNL     1       1.549  -2.060  -0.056  0.00  0.00    +0.272 C 
ATOM     15  O   UNL     1       2.661  -2.553   0.020  0.00  0.00    -0.268 OA
BRANCH  14  20
ATOM     16  C   UNL     1      -0.029   1.346   0.018  0.00  0.00    +0.001 A 
ATOM     17  C   UNL     1       1.088   2.166  -0.002  0.00  0.00    +0.002 A 
ATOM     18  C   UNL     1       2.355   1.621  -0.039  0.00  0.00    +0.023 A 
ATOM     19  C   UNL     1       2.518   0.241  -0.057  0.00  0.00    +0.037 A 
ATOM     20  C   UNL     1       1.389  -0.592  -0.037  0.00  0.00    +0.059 A 
ATOM     21  C   UNL     1       0.114  -0.025   0.001  0.00  0.00    +0.015 A 
BRANCH  19  22
ATOM     22  N   UNL     1       3.792  -0.311  -0.096  0.00  0.00    -0.357 N 
ATOM     23  H   UNL     1       4.567   0.264  -0.192  0.00  0.00    +0.142 HD
ATOM     24  H   UNL     1       3.907  -1.272  -0.027  0.00  0.00    +0.142 HD
ENDBRANCH  19  22
ENDBRANCH  14  20
ENDBRANCH   1  14
BRANCH   2  25
ATOM     25  N   UNL     1       1.858  -4.718  -0.088  0.00  0.00    -0.269 NA
ATOM     26  H   UNL     1       1.970  -5.678  -0.173  0.00  0.00    +0.190 HD
ENDBRANCH   2  25
TORSDOF 4
