REMARK  Name = ZINC43765265
REMARK  12 active torsions:
REMARK  status: ('A' for Active; 'I' for Inactive)
REMARK    1  A    between atoms: C_3  and  N_21
REMARK    2  A    between atoms: C_6  and  N_7
REMARK    3  A    between atoms: N_7  and  C1*_8
REMARK    4  A    between atoms: C2*_10  and  O2*_20
REMARK    5  A    between atoms: C3*_12  and  O3*_19
REMARK    6  A    between atoms: C4*_14  and  C5*_17
REMARK    7  A    between atoms: C5*_17  and  O5*_18
REMARK    8  A    between atoms: N_21  and  C1*_22
REMARK    9  A    between atoms: C2*_24  and  O2*_34
REMARK   10  A    between atoms: C3*_26  and  O3*_33
REMARK   11  A    between atoms: C4*_28  and  C5*_31
REMARK   12  A    between atoms: C5*_31  and  O5*_32
REMARK                            x       y       z     vdW  Elec       q    Type
REMARK                         _______ _______ _______ _____ _____    ______ ____
ROOT
ATOM      1  C   UNL     1       0.103   1.450   0.951  0.00  0.00    +0.025 A 
ATOM      2  C   UNL     1       1.262   2.135   0.641  0.00  0.00    +0.025 A 
ATOM      3  C   UNL     1       2.410   1.435   0.293  0.00  0.00    +0.029 A 
ATOM      4  C   UNL     1       2.393   0.047   0.258  0.00  0.00    +0.025 A 
ATOM      5  C   UNL     1       1.235  -0.638   0.569  0.00  0.00    +0.025 A 
ATOM      6  C   UNL     1       0.087   0.062   0.915  0.00  0.00    +0.029 A 
ENDROOT
BRANCH   6   7
ATOM      7  N   UNL     1      -1.087  -0.633   1.230  0.00  0.00    -0.317 N 
ATOM      8  H   UNL     1      -1.889  -0.144   1.473  0.00  0.00    +0.149 HD
BRANCH   7   9
ATOM      9  C1* UNL     1      -1.105  -2.097   1.192  0.00  0.00    +0.235 C 
ATOM     10  C2* UNL     1      -2.054  -2.652   2.277  0.00  0.00    +0.192 C 
ATOM     11  C3* UNL     1      -2.716  -3.877   1.607  0.00  0.00    +0.178 C 
ATOM     12  C4* UNL     1      -2.087  -3.917   0.196  0.00  0.00    +0.177 C 
ATOM     13  O4* UNL     1      -1.659  -2.561  -0.059  0.00  0.00    -0.348 OA
BRANCH  11  14
ATOM     14  O3* UNL     1      -2.407  -5.070   2.330  0.00  0.00    -0.386 OA
ATOM     15  H3* UNL     1      -2.728  -5.071   3.242  0.00  0.00    +0.210 HD
ENDBRANCH  11  14
BRANCH  10  16
ATOM     16  O2* UNL     1      -1.315  -3.048   3.434  0.00  0.00    -0.385 OA
ATOM     17  H2* UNL     1      -0.833  -2.326   3.859  0.00  0.00    +0.210 HD
ENDBRANCH  10  16
BRANCH  12  18
ATOM     18  C5* UNL     1      -3.127  -4.354  -0.838  0.00  0.00    +0.190 C 
BRANCH  18  19
ATOM     19  O5* UNL     1      -2.499  -4.497  -2.114  0.00  0.00    -0.392 OA
ATOM     20  H5* UNL     1      -3.101  -4.773  -2.819  0.00  0.00    +0.210 HD
ENDBRANCH  18  19
ENDBRANCH  12  18
ENDBRANCH   7   9
ENDBRANCH   6   7
BRANCH   3  21
ATOM     21  N   UNL     1       3.584   2.130  -0.022  0.00  0.00    -0.317 N 
ATOM     22  H   UNL     1       4.410   1.643  -0.171  0.00  0.00    +0.149 HD
BRANCH  21  23
ATOM     23  C1* UNL     1       3.566   3.591  -0.125  0.00  0.00    +0.235 C 
ATOM     24  C2* UNL     1       4.656   4.082  -1.111  0.00  0.00    +0.192 C 
ATOM     25  C3* UNL     1       4.911   5.527  -0.619  0.00  0.00    +0.178 C 
ATOM     26  C4* UNL     1       4.396   5.528   0.834  0.00  0.00    +0.177 C 
ATOM     27  O4* UNL     1       3.945   4.194   1.130  0.00  0.00    -0.348 OA
BRANCH  25  28
ATOM     28  O3* UNL     1       4.178   6.463  -1.412  0.00  0.00    -0.386 OA
ATOM     29  H3* UNL     1       4.423   6.462  -2.348  0.00  0.00    +0.210 HD
ENDBRANCH  25  28
BRANCH  24  30
ATOM     30  O2* UNL     1       4.169   4.079  -2.454  0.00  0.00    -0.385 OA
ATOM     31  H2* UNL     1       3.910   3.204  -2.776  0.00  0.00    +0.210 HD
ENDBRANCH  24  30
BRANCH  26  32
ATOM     32  C5* UNL     1       5.527   5.924   1.786  0.00  0.00    +0.190 C 
BRANCH  32  33
ATOM     33  O5* UNL     1       5.013   6.035   3.115  0.00  0.00    -0.392 OA
ATOM     34  H5* UNL     1       5.676   6.284   3.774  0.00  0.00    +0.210 HD
ENDBRANCH  32  33
ENDBRANCH  26  32
ENDBRANCH  21  23
ENDBRANCH   3  21
TORSDOF 12
