REMARK  Name = ZINC37039189
REMARK  9 active torsions:
REMARK  status: ('A' for Active; 'I' for Inactive)
REMARK    1  A    between atoms: C_1  and  C_2
REMARK    2  A    between atoms: C_3  and  S_9
REMARK    3  A    between atoms: C_4  and  C_8
REMARK    4  A    between atoms: S_9  and  N_12
REMARK    5  A    between atoms: N_15  and  C_18
REMARK    6  A    between atoms: C_18  and  C_19
REMARK    7  A    between atoms: C_19  and  C_21
REMARK    8  A    between atoms: C_19  and  C_22
REMARK    9  A    between atoms: C_22  and  N_23
REMARK                            x       y       z     vdW  Elec       q    Type
REMARK                         _______ _______ _______ _____ _____    ______ ____
ROOT
ATOM      1  N   UNL     1       1.529   0.091  -2.961  0.00  0.00    -0.174 NA
ATOM      2  C   UNL     1       2.284   1.335  -2.747  0.00  0.00    +0.125 C 
ATOM      3  C   UNL     1       3.645   0.980  -2.139  0.00  0.00    +0.101 C 
ATOM      4  N   UNL     1       4.314  -0.014  -2.989  0.00  0.00    -0.300 NA
ATOM      5  C   UNL     1       3.551  -1.269  -3.042  0.00  0.00    +0.101 C 
ATOM      6  C   UNL     1       2.188  -1.008  -3.682  0.00  0.00    +0.125 C 
ENDROOT
BRANCH   1   7
ATOM      7  S   UNL     1      -0.020  -0.071  -2.398  0.00  0.00    +0.064 S 
ATOM      8  O   UNL     1      -0.640  -1.071  -3.195  0.00  0.00    -0.153 OA
ATOM      9  O   UNL     1      -0.547   1.243  -2.278  0.00  0.00    -0.153 OA
BRANCH   7  12
ATOM     10  C   UNL     1       0.199   1.503   0.477  0.00  0.00    +0.067 C 
ATOM     11  C   UNL     1       0.173  -0.000   0.377  0.00  0.00    +0.060 A 
ATOM     12  C   UNL     1       0.085  -0.722  -0.764  0.00  0.00    +0.148 A 
ATOM     13  C   UNL     1       0.091  -2.077  -0.417  0.00  0.00    +0.086 A 
ATOM     14  N   UNL     1       0.180  -2.165   0.885  0.00  0.00    -0.177 NA
ATOM     15  N   UNL     1       0.238  -0.867   1.409  0.00  0.00    -0.280 N 
ATOM     16  H   UNL     1       0.310  -0.633   2.347  0.00  0.00    +0.189 HD
ATOM     17  C   UNL     1       0.010  -3.236  -1.378  0.00  0.00    +0.069 C 
ENDBRANCH   7  12
ENDBRANCH   1   7
BRANCH   4  18
ATOM     18  C   UNL     1       5.690  -0.254  -2.535  0.00  0.00    +0.086 C 
BRANCH  18  19
ATOM     19  C   UNL     1       6.577   0.921  -2.954  0.00  0.00    -0.018 C 
ATOM     20  C   UNL     1       6.655   0.982  -4.481  0.00  0.00    +0.007 C 
BRANCH  19  21
ATOM     21  C   UNL     1       7.981   0.731  -2.379  0.00  0.00    -0.082 C 
BRANCH  21  22
ATOM     22  N   UNL     1       8.798   1.914  -2.679  0.00  0.00    +0.378 N 
ATOM     23  H   UNL     1       8.858   2.036  -3.679  0.00  0.00    -0.090 HD
ATOM     24  H   UNL     1       8.373   2.730  -2.265  0.00  0.00    -0.090 HD
ATOM     25  H   UNL     1       9.725   1.788  -2.300  0.00  0.00    -0.090 HD
ENDBRANCH  21  22
ENDBRANCH  19  21
ENDBRANCH  18  19
ENDBRANCH   4  18
TORSDOF 6
