REMARK  Name = ZINC44254151
REMARK  15 active torsions:
REMARK  status: ('A' for Active; 'I' for Inactive)
REMARK    1  A    between atoms: C_1  and  N_2
REMARK    2  A    between atoms: N_2  and  C_3
REMARK    3  A    between atoms: N_2  and  C_24
REMARK    4  A    between atoms: C_4  and  C_5
REMARK    5  A    between atoms: C_4  and  C_17
REMARK    6  A    between atoms: C_5  and  C_10
REMARK    7  A    between atoms: C_6  and  N_7
REMARK    8  A    between atoms: N_7  and  C_8
REMARK    9  A    between atoms: N_7  and  C_9
REMARK   10  A    between atoms: C_10  and  N_12
REMARK   11  A    between atoms: C_10  and  C_13
REMARK   12  A    between atoms: C_13  and  C_14
REMARK   13  A    between atoms: C_17  and  N_19
REMARK   14  A    between atoms: C_17  and  C_20
REMARK   15  A    between atoms: C_20  and  C_21
REMARK                            x       y       z     vdW  Elec       q    Type
REMARK                         _______ _______ _______ _____ _____    ______ ____
ROOT
ATOM      1  C   UNL     1       0.918  -0.536   1.318  0.00  0.00    +0.057 C 
ATOM      2  C   UNL     1       1.908  -1.402   1.123  0.00  0.00    -0.012 C 
ENDROOT
BRANCH   1   4
ATOM      3  C   UNL     1       0.230   1.500   0.391  0.00  0.00    +0.106 C 
ATOM      4  N   UNL     1       0.270   0.042   0.223  0.00  0.00    -0.403 NA
ATOM      5  C   UNL     1      -1.101  -0.479   0.135  0.00  0.00    +0.106 C 
ATOM      6  H   UNL     1       0.770  -0.186  -0.623  0.00  0.00    +0.125 HD
ENDBRANCH   1   4
BRANCH   2   7
ATOM      7  C   UNL     1       2.683  -1.902   2.269  0.00  0.00    -0.012 C 
ATOM      8  C   UNL     1       3.754  -2.663   2.066  0.00  0.00    +0.057 C 
BRANCH   8   9
ATOM      9  N   UNL     1       4.392  -3.275   3.148  0.00  0.00    -0.403 NA
ATOM     10  C   UNL     1       4.583  -4.702   2.861  0.00  0.00    +0.106 C 
ATOM     11  C   UNL     1       5.699  -2.640   3.368  0.00  0.00    +0.106 C 
ATOM     12  H   UNL     1       3.825  -3.171   3.976  0.00  0.00    +0.125 HD
ENDBRANCH   8   9
BRANCH   7  13
ATOM     13  C   UNL     1       2.263  -1.552   3.674  0.00  0.00    +0.091 C 
BRANCH  13  14
ATOM     14  N   UNL     1       0.867  -1.959   3.883  0.00  0.00    -0.323 NA
ATOM     15  H   UNL     1       0.552  -1.707   4.807  0.00  0.00    +0.119 HD
ATOM     16  H   UNL     1       0.266  -1.565   3.175  0.00  0.00    +0.119 HD
ENDBRANCH  13  14
BRANCH  13  17
ATOM     17  C   UNL     1       2.391  -0.042   3.883  0.00  0.00    +0.118 C 
BRANCH  17  18
ATOM     18  C   UNL     1       2.090   0.293   5.321  0.00  0.00    +0.212 C 
ATOM     19  O   UNL     1       1.801  -0.590   6.101  0.00  0.00    -0.276 OA
ATOM     20  N   UNL     1       2.141   1.573   5.740  0.00  0.00    -0.329 N 
ATOM     21  H   UNL     1       2.372   2.278   5.116  0.00  0.00    +0.145 HD
ATOM     22  H   UNL     1       1.947   1.788   6.665  0.00  0.00    +0.145 HD
ENDBRANCH  17  18
ENDBRANCH  13  17
ENDBRANCH   7  13
ENDBRANCH   2   7
BRANCH   2  23
ATOM     23  C   UNL     1       2.235  -1.871  -0.271  0.00  0.00    +0.091 C 
BRANCH  23  24
ATOM     24  N   UNL     1       2.290  -3.339  -0.294  0.00  0.00    -0.323 NA
ATOM     25  H   UNL     1       2.529  -3.677  -1.214  0.00  0.00    +0.119 HD
ATOM     26  H   UNL     1       2.936  -3.687   0.399  0.00  0.00    +0.119 HD
ENDBRANCH  23  24
BRANCH  23  27
ATOM     27  C   UNL     1       3.592  -1.303  -0.694  0.00  0.00    +0.118 C 
BRANCH  27  28
ATOM     28  C   UNL     1       3.864  -1.670  -2.130  0.00  0.00    +0.212 C 
ATOM     29  O   UNL     1       3.052  -2.321  -2.754  0.00  0.00    -0.276 OA
ATOM     30  N   UNL     1       5.008  -1.274  -2.722  0.00  0.00    -0.329 N 
ATOM     31  H   UNL     1       5.657  -0.754  -2.223  0.00  0.00    +0.145 HD
ATOM     32  H   UNL     1       5.183  -1.510  -3.646  0.00  0.00    +0.145 HD
ENDBRANCH  27  28
ENDBRANCH  23  27
ENDBRANCH   2  23
TORSDOF 11
