REMARK  Name = ZINC39021585
REMARK  9 active torsions:
REMARK  status: ('A' for Active; 'I' for Inactive)
REMARK    1  A    between atoms: C_1  and  C_2
REMARK    2  A    between atoms: C_2  and  C_3
REMARK    3  A    between atoms: C_8  and  C_10
REMARK    4  A    between atoms: C_10  and  S_11
REMARK    5  A    between atoms: S_11  and  C_12
REMARK    6  A    between atoms: C_16  and  C_22
REMARK    7  A    between atoms: N_18  and  C_19
REMARK    8  A    between atoms: C_19  and  C_20
REMARK    9  A    between atoms: C_27  and  O_28
REMARK                            x       y       z     vdW  Elec       q    Type
REMARK                         _______ _______ _______ _____ _____    ______ ____
ROOT
ATOM      1  C   UNL     1       4.849  -3.603   8.712  0.00  0.00    +0.078 C 
ATOM      2  N   UNL     1       5.856  -2.510   8.670  0.00  0.00    -0.262 NA
ATOM      3  N   UNL     1       7.131  -3.175   8.955  0.00  0.00    -0.266 NA
ATOM      4  C   UNL     1       6.964  -4.596   8.589  0.00  0.00    +0.053 C 
ATOM      5  N   UNL     1       5.573  -4.748   8.098  0.00  0.00    +0.413 N 
ATOM      6  H   UNL     1       5.873  -2.069   7.763  0.00  0.00    +0.140 HD
ATOM      7  H   UNL     1       7.883  -2.753   8.432  0.00  0.00    +0.139 HD
ATOM      8  H   UNL     1       5.546  -4.684   7.091  0.00  0.00    -0.075 HD
ENDROOT
BRANCH   4   9
ATOM      9  C   UNL     1       7.942  -4.968   7.504  0.00  0.00    -0.005 A 
ATOM     10  C   UNL     1       8.412  -4.001   6.636  0.00  0.00    +0.007 A 
ATOM     11  C   UNL     1       9.308  -4.342   5.640  0.00  0.00    +0.000 A 
ATOM     12  C   UNL     1       9.737  -5.650   5.510  0.00  0.00    +0.004 A 
ATOM     13  C   UNL     1       9.270  -6.620   6.375  0.00  0.00    +0.045 A 
ATOM     14  C   UNL     1       8.374  -6.280   7.379  0.00  0.00    +0.120 A 
BRANCH  14  15
ATOM     15  O   UNL     1       7.918  -7.232   8.235  0.00  0.00    -0.507 OA
ATOM     16  H   UNL     1       7.113  -7.676   7.935  0.00  0.00    +0.292 HD
ENDBRANCH  14  15
ENDBRANCH   4   9
BRANCH   1  17
ATOM     17  S   UNL     1       3.387  -3.167   7.732  0.00  0.00    -0.150 S 
BRANCH  17  18
ATOM     18  C   UNL     1       4.054  -2.808   6.084  0.00  0.00    +0.164 C 
BRANCH  18  24
ATOM     19  C   UNL     1       0.456  -1.068   1.169  0.00  0.00    +0.103 A 
ATOM     20  N   UNL     1       0.024  -1.340   2.384  0.00  0.00    -0.145 NA
ATOM     21  N   UNL     1       0.857  -1.677   3.272  0.00  0.00    -0.126 NA
ATOM     22  C   UNL     1       2.148  -1.763   3.019  0.00  0.00    +0.188 A 
ATOM     23  N   UNL     1       3.188  -2.115   3.873  0.00  0.00    -0.263 N 
ATOM     24  C   UNL     1       2.928  -2.426   5.158  0.00  0.00    +0.229 C 
ATOM     25  O   UNL     1       1.787  -2.400   5.570  0.00  0.00    -0.275 OA
ATOM     26  S   UNL     1       2.209  -1.343   1.387  0.00  0.00    -0.035 S 
ATOM     27  H   UNL     1       4.100  -2.136   3.544  0.00  0.00    +0.157 HD
BRANCH  19  29
ATOM     28  C   UNL     1      -0.398   0.878  -0.109  0.00  0.00    +0.011 C 
ATOM     29  C   UNL     1      -0.311  -0.649  -0.059  0.00  0.00    +0.061 C 
ENDBRANCH  19  29
ENDBRANCH  18  24
ENDBRANCH  17  18
ENDBRANCH   1  17
BRANCH   5  30
ATOM     30  C   UNL     1       4.999  -6.022   8.551  0.00  0.00    -0.045 C 
BRANCH  30  31
ATOM     31  C   UNL     1       3.597  -6.159   8.017  0.00  0.00    -0.053 C 
ATOM     32  C   UNL     1       3.262  -7.216   7.319  0.00  0.00    +0.002 C 
ENDBRANCH  30  31
ENDBRANCH   5  30
TORSDOF 8
