REMARK  Name = ZINC22789384
REMARK  12 active torsions:
REMARK  status: ('A' for Active; 'I' for Inactive)
REMARK    1  A    between atoms: C_1  and  C_2
REMARK    2  A    between atoms: C_2  and  N_3
REMARK    3  A    between atoms: N_3  and  C_4
REMARK    4  A    between atoms: C_4  and  C_5
REMARK    5  A    between atoms: C_6  and  C_8
REMARK    6  A    between atoms: C_8  and  N_9
REMARK    7  A    between atoms: N_12  and  C_15
REMARK    8  A    between atoms: C_15  and  C_17
REMARK    9  A    between atoms: C_15  and  C_18
REMARK   10  A    between atoms: N_20  and  C_21
REMARK   11  A    between atoms: C_24  and  C_27
REMARK   12  A    between atoms: C_32  and  C_36
REMARK                            x       y       z     vdW  Elec       q    Type
REMARK                         _______ _______ _______ _____ _____    ______ ____
ROOT
ATOM      1  C   UNL     1      -4.631   9.028  -0.691  0.00  0.00    +0.234 C 
ATOM      2  O   UNL     1      -3.473   9.320  -0.478  0.00  0.00    -0.274 OA
ATOM      3  N   UNL     1      -4.957   7.761  -1.016  0.00  0.00    -0.284 N 
ATOM      4  H   UNL     1      -5.993   7.514  -1.294  0.00  0.00    +0.155 HD
ENDROOT
BRANCH   3   5
ATOM      5  C   UNL     1      -3.981   6.763  -1.001  0.00  0.00    +0.033 A 
ATOM      6  C   UNL     1      -4.309   5.478  -0.583  0.00  0.00    +0.024 A 
ATOM      7  C   UNL     1      -3.349   4.490  -0.567  0.00  0.00    +0.012 A 
ATOM      8  C   UNL     1      -2.044   4.781  -0.972  0.00  0.00    +0.007 A 
ATOM      9  C   UNL     1      -1.716   6.074  -1.386  0.00  0.00    +0.012 A 
ATOM     10  C   UNL     1      -2.683   7.055  -1.405  0.00  0.00    +0.024 A 
BRANCH   8  11
ATOM     11  C   UNL     1      -1.011   3.725  -0.956  0.00  0.00    +0.109 A 
ATOM     12  N   UNL     1      -1.127   2.463  -0.603  0.00  0.00    -0.239 NA
ATOM     13  C   UNL     1      -0.089   1.604  -0.634  0.00  0.00    +0.079 A 
ATOM     14  C   UNL     1      -0.077   0.234  -0.279  0.00  0.00    +0.029 A 
ATOM     15  C   UNL     1       1.063  -0.500  -0.373  0.00  0.00    +0.005 A 
ATOM     16  C   UNL     1       2.254   0.056  -0.819  0.00  0.00    -0.049 A 
ATOM     17  C   UNL     1       2.286   1.391  -1.176  0.00  0.00    +0.020 A 
ATOM     18  C   UNL     1       1.140   2.142  -1.084  0.00  0.00    +0.040 A 
ATOM     19  S   UNL     1       0.712   3.834  -1.418  0.00  0.00    -0.067 S 
ATOM     20  C   UNL     1       3.501  -0.786  -0.912  0.00  0.00    +0.044 C 
ENDBRANCH   8  11
ENDBRANCH   3   5
BRANCH   1  21
ATOM     21  C   UNL     1      -5.705  10.081  -0.590  0.00  0.00    +0.140 C 
ATOM     22  C   UNL     1      -6.720   9.674   0.479  0.00  0.00    +0.034 C 
BRANCH  21  26
ATOM     23  N   UNL     1      -4.744  13.691   1.381  0.00  0.00    +0.387 N 
ATOM     24  C   UNL     1      -5.410  13.777   0.074  0.00  0.00    -0.063 C 
ATOM     25  C   UNL     1      -6.096  12.444  -0.233  0.00  0.00    +0.066 C 
ATOM     26  N   UNL     1      -5.096  11.367  -0.225  0.00  0.00    -0.295 NA
ATOM     27  C   UNL     1      -4.430  11.282   1.082  0.00  0.00    +0.066 C 
ATOM     28  C   UNL     1      -3.743  12.614   1.390  0.00  0.00    -0.063 C 
ATOM     29  H   UNL     1      -5.506  13.453   2.137  0.00  0.00    -0.081 HD
BRANCH  23  30
ATOM     30  C   UNL     1      -4.135  14.977   1.747  0.00  0.00    +0.019 C 
BRANCH  30  32
ATOM     31  N   UNL     1      -4.894  17.289   2.193  0.00  0.00    -0.304 N 
ATOM     32  C   UNL     1      -5.220  16.000   1.970  0.00  0.00    +0.199 C 
ATOM     33  O   UNL     1      -6.384  15.664   1.949  0.00  0.00    -0.278 OA
BRANCH  31  35
ATOM     34  C   UNL     1      -6.266  18.372   3.904  0.00  0.00    +0.024 C 
ATOM     35  C   UNL     1      -5.948  18.283   2.410  0.00  0.00    +0.104 C 
ENDBRANCH  31  35
BRANCH  31  36
ATOM     36  C   UNL     1      -3.487  17.696   2.219  0.00  0.00    +0.104 C 
ATOM     37  C   UNL     1      -3.046  18.095   0.809  0.00  0.00    +0.024 C 
ENDBRANCH  31  36
ENDBRANCH  30  32
ENDBRANCH  23  30
ENDBRANCH  21  26
ENDBRANCH   1  21
TORSDOF 8
