REMARK  Name = ZINC44686536
REMARK  5 active torsions:
REMARK  status: ('A' for Active; 'I' for Inactive)
REMARK    1  A    between atoms: C_5  and  S_8
REMARK    2  A    between atoms: C_6  and  N_7
REMARK    3  A    between atoms: S_8  and  N_11
REMARK    4  A    between atoms: N_11  and  C_12
REMARK    5  A    between atoms: N_16  and  C_18
REMARK                            x       y       z     vdW  Elec       q    Type
REMARK                         _______ _______ _______ _____ _____    ______ ____
ROOT
ATOM      1  S   UNL     1       1.080  -2.334  -0.814  0.00  0.00    +0.062 S 
ATOM      2  O   UNL     1      -0.275  -2.619  -1.136  0.00  0.00    -0.153 OA
ATOM      3  O   UNL     1       2.143  -2.551  -1.731  0.00  0.00    -0.153 OA
ENDROOT
BRANCH   1   8
ATOM      4  C   UNL     1       0.048   1.355   0.433  0.00  0.00    +0.044 A 
ATOM      5  C   UNL     1       1.244   2.044   0.349  0.00  0.00    +0.044 A 
ATOM      6  C   UNL     1       2.386   1.398  -0.089  0.00  0.00    +0.042 A 
ATOM      7  C   UNL     1       2.336   0.061  -0.444  0.00  0.00    +0.070 A 
ATOM      8  C   UNL     1       1.143  -0.633  -0.361  0.00  0.00    +0.144 A 
ATOM      9  C   UNL     1      -0.005   0.013   0.079  0.00  0.00    +0.054 A 
ATOM     10 CL   UNL     1       3.772  -0.746  -0.993  0.00  0.00    -0.081 Cl
ATOM     11 CL   UNL     1       1.312   3.721   0.792  0.00  0.00    -0.083 Cl
BRANCH   9  12
ATOM     12  N   UNL     1      -1.212  -0.685   0.164  0.00  0.00    -0.356 N 
ATOM     13  H   UNL     1      -2.053  -0.204   0.144  0.00  0.00    +0.142 HD
ATOM     14  H   UNL     1      -1.208  -1.652   0.242  0.00  0.00    +0.142 HD
ENDBRANCH   9  12
ENDBRANCH   1   8
BRANCH   1  15
ATOM     15  N   UNL     1       1.438  -3.215   0.542  0.00  0.00    -0.189 NA
ATOM     16  H   UNL     1       2.245  -3.753   0.572  0.00  0.00    +0.148 HD
BRANCH  15  17
ATOM     17  C   UNL     1       0.537  -3.182   1.696  0.00  0.00    +0.058 C 
ATOM     18  C   UNL     1       1.051  -2.175   2.750  0.00  0.00    -0.000 C 
ATOM     19  C   UNL     1       0.760  -2.897   4.090  0.00  0.00    -0.077 C 
ATOM     20  N   UNL     1       1.048  -4.320   3.779  0.00  0.00    +0.383 N 
ATOM     21  C   UNL     1       0.532  -4.547   2.410  0.00  0.00    -0.058 C 
ATOM     22  H   UNL     1       2.042  -4.488   3.810  0.00  0.00    -0.081 HD
BRANCH  20  23
ATOM     23  C   UNL     1       0.355  -5.197   4.732  0.00  0.00    -0.069 C 
ATOM     24  C   UNL     1       1.216  -6.004   5.706  0.00  0.00    -0.017 C 
ATOM     25  C   UNL     1       0.510  -6.707   4.545  0.00  0.00    -0.017 C 
ENDBRANCH  20  23
ENDBRANCH  15  17
ENDBRANCH   1  15
TORSDOF 5
