REMARK  Name = ZINC63842732
REMARK  8 active torsions:
REMARK  status: ('A' for Active; 'I' for Inactive)
REMARK    1  A    between atoms: C_1  and  C_2
REMARK    2  A    between atoms: C_2  and  C_3
REMARK    3  A    between atoms: C_3  and  C_4
REMARK    4  A    between atoms: C_4  and  N_5
REMARK    5  A    between atoms: C_6  and  C_10
REMARK    6  A    between atoms: C_10  and  N_11
REMARK    7  A    between atoms: C_14  and  C_19
REMARK    8  A    between atoms: C_19  and  C_20
REMARK                            x       y       z     vdW  Elec       q    Type
REMARK                         _______ _______ _______ _____ _____    ______ ____
ROOT
ATOM      1  N   UNL     1      -0.781  -3.086   5.379  0.00  0.00    -0.217 N 
ATOM      2  C   UNL     1      -1.060  -4.345   5.770  0.00  0.00    +0.244 C 
ATOM      3  O   UNL     1      -1.173  -5.324   5.063  0.00  0.00    -0.273 OA
ATOM      4  C   UNL     1      -1.202  -4.284   7.278  0.00  0.00    +0.165 C 
ATOM      5  N   UNL     1      -0.965  -2.865   7.591  0.00  0.00    -0.287 N 
ATOM      6  C   UNL     1      -0.724  -2.248   6.420  0.00  0.00    +0.310 C 
ATOM      7  O   UNL     1      -0.483  -1.061   6.319  0.00  0.00    -0.252 OA
ATOM      8  H   UNL     1      -0.978  -2.455   8.470  0.00  0.00    +0.151 HD
ENDROOT
BRANCH   1   9
ATOM      9  C   UNL     1      -0.563  -2.686   3.987  0.00  0.00    +0.192 C 
BRANCH   9  11
ATOM     10  N   UNL     1       1.471  -2.526   2.420  0.00  0.00    -0.235 N 
ATOM     11  C   UNL     1       0.900  -2.818   3.650  0.00  0.00    +0.150 C 
ATOM     12  N   UNL     1       1.820  -3.220   4.459  0.00  0.00    -0.157 NA
ATOM     13  N   UNL     1       3.049  -3.209   3.787  0.00  0.00    -0.184 N 
ATOM     14  N   UNL     1       2.813  -2.777   2.510  0.00  0.00    -0.144 NA
ATOM     15  H   UNL     1       3.909  -3.464   4.157  0.00  0.00    +0.191 HD
ATOM     16  H   UNL     1       3.350  -1.948   2.306  0.00  0.00    +0.169 HD
BRANCH  10  17
ATOM     17  C   UNL     1       0.763  -2.041   1.233  0.00  0.00    +0.127 C 
BRANCH  17  18
ATOM     18  C   UNL     1       0.742  -0.511   1.242  0.00  0.00    +0.020 C 
BRANCH  18  20
ATOM     19  C   UNL     1      -0.019   1.526   0.010  0.00  0.00    +0.004 C 
ATOM     20  C   UNL     1       0.002  -0.004   0.002  0.00  0.00    -0.002 C 
ENDBRANCH  18  20
ENDBRANCH  17  18
ENDBRANCH  10  17
ENDBRANCH   9  11
ENDBRANCH   1   9
BRANCH   4  21
ATOM     21  C   UNL     1      -0.154  -5.170   7.954  0.00  0.00    +0.065 C 
BRANCH  21  22
ATOM     22  C   UNL     1      -0.395  -5.188   9.441  0.00  0.00    -0.039 C 
ATOM     23  C   UNL     1      -1.093  -6.111  10.141  0.00  0.00    -0.001 A 
ATOM     24  C   UNL     1      -1.811  -7.327   9.742  0.00  0.00    +0.010 A 
ATOM     25  C   UNL     1      -2.430  -8.065  10.691  0.00  0.00    +0.001 A 
ATOM     26  C   UNL     1      -2.404  -7.698  12.044  0.00  0.00    +0.002 A 
ATOM     27  C   UNL     1      -1.765  -6.594  12.487  0.00  0.00    +0.026 A 
ATOM     28  C   UNL     1      -1.080  -5.745  11.575  0.00  0.00    +0.043 A 
ATOM     29  N   UNL     1      -0.399  -4.639  11.755  0.00  0.00    -0.380 N 
ATOM     30  C   UNL     1       0.101  -4.181  10.454  0.00  0.00    +0.144 C 
ATOM     31  H   UNL     1      -0.249  -4.199  12.607  0.00  0.00    +0.160 HD
ENDBRANCH  21  22
ENDBRANCH   4  21
TORSDOF 7
