REMARK  Name = ZINC08858837
REMARK  13 active torsions:
REMARK  status: ('A' for Active; 'I' for Inactive)
REMARK    1  A    between atoms: C_1  and  C_2
REMARK    2  A    between atoms: C_2  and  C_3
REMARK    3  A    between atoms: C_3  and  C_4
REMARK    4  A    between atoms: C_4  and  C_5
REMARK    5  A    between atoms: C_5  and  O_6
REMARK    6  A    between atoms: O_6  and  C_7
REMARK    7  A    between atoms: C_10  and  C_15
REMARK    8  A    between atoms: C_12  and  O_13
REMARK    9  A    between atoms: O_13  and  C_14
REMARK   10  A    between atoms: N_16  and  N_17
REMARK   11  A    between atoms: C_18  and  C_27
REMARK   12  A    between atoms: N_19  and  C_20
REMARK   13  A    between atoms: C_23  and  C_26
REMARK                            x       y       z     vdW  Elec       q    Type
REMARK                         _______ _______ _______ _____ _____    ______ ____
ROOT
ATOM      1  N   UNL     1       1.479  -6.418  -1.174  0.00  0.00    -0.262 N 
ATOM      2  C   UNL     1       2.517  -7.104  -0.584  0.00  0.00    +0.143 C 
ATOM      3  N   UNL     1       2.364  -8.362  -0.246  0.00  0.00    -0.298 N 
ATOM      4  H   UNL     1       0.504  -6.909  -1.312  0.00  0.00    +0.190 HD
ATOM      5  H   UNL     1       3.222  -8.939   0.128  0.00  0.00    +0.154 HD
ENDROOT
BRANCH   2   6
ATOM      6  C   UNL     1       3.805  -6.421  -0.331  0.00  0.00    +0.104 A 
ATOM      7  C   UNL     1       4.895  -7.167   0.146  0.00  0.00    +0.032 A 
ATOM      8  C   UNL     1       6.087  -6.550   0.383  0.00  0.00    +0.012 A 
ATOM      9  C   UNL     1       6.183  -5.166   0.137  0.00  0.00    +0.000 A 
ATOM     10  C   UNL     1       7.381  -4.468   0.358  0.00  0.00    +0.010 A 
ATOM     11  C   UNL     1       7.437  -3.131   0.109  0.00  0.00    +0.001 A 
ATOM     12  C   UNL     1       6.321  -2.443  -0.365  0.00  0.00    +0.002 A 
ATOM     13  C   UNL     1       5.144  -3.087  -0.591  0.00  0.00    +0.028 A 
ATOM     14  C   UNL     1       5.045  -4.469  -0.345  0.00  0.00    +0.072 A 
ATOM     15  N   UNL     1       3.905  -5.126  -0.565  0.00  0.00    -0.244 NA
ENDBRANCH   2   6
BRANCH   3  16
ATOM     16  C   UNL     1       1.138  -8.956  -0.360  0.00  0.00    +0.032 A 
ATOM     17  C   UNL     1       0.037  -8.430   0.322  0.00  0.00    +0.023 A 
ATOM     18  C   UNL     1      -1.198  -9.032   0.198  0.00  0.00    +0.005 A 
ATOM     19  C   UNL     1      -1.346 -10.160  -0.590  0.00  0.00    -0.050 A 
ATOM     20  C   UNL     1      -0.259 -10.689  -1.264  0.00  0.00    +0.005 A 
ATOM     21  C   UNL     1       0.981 -10.095  -1.154  0.00  0.00    +0.023 A 
ATOM     22  C   UNL     1      -2.697 -10.814  -0.716  0.00  0.00    +0.044 C 
ENDBRANCH   3  16
BRANCH   1  24
ATOM     23  C   UNL     1       0.659  -4.415  -2.057  0.00  0.00    +0.140 C 
ATOM     24  N   UNL     1       1.664  -5.096  -1.597  0.00  0.00    -0.180 NA
BRANCH  23  28
ATOM     25  C   UNL     1       1.291  -0.545  -3.693  0.00  0.00    +0.162 A 
ATOM     26  C   UNL     1       2.349  -1.237  -3.120  0.00  0.00    +0.050 A 
ATOM     27  C   UNL     1       2.146  -2.491  -2.583  0.00  0.00    +0.013 A 
ATOM     28  C   UNL     1       0.876  -3.072  -2.625  0.00  0.00    -0.002 A 
ATOM     29  C   UNL     1      -0.188  -2.377  -3.206  0.00  0.00    +0.059 A 
ATOM     30  C   UNL     1       0.022  -1.118  -3.738  0.00  0.00    +0.162 A 
BRANCH  30  31
ATOM     31  O   UNL     1      -1.011  -0.438  -4.304  0.00  0.00    -0.491 OA
ATOM     32  C   UNL     1      -2.285  -1.086  -4.316  0.00  0.00    +0.277 C 
ENDBRANCH  30  31
BRANCH  25  33
ATOM     33  O   UNL     1       1.496   0.693  -4.216  0.00  0.00    -0.488 OA
BRANCH  33  34
ATOM     34  C   UNL     1       2.821   1.220  -4.136  0.00  0.00    +0.229 C 
BRANCH  34  35
ATOM     35  C   UNL     1       2.856   2.611  -4.772  0.00  0.00    +0.041 C 
BRANCH  35  36
ATOM     36  C   UNL     1       4.275   3.176  -4.687  0.00  0.00    +0.003 C 
BRANCH  36  38
ATOM     37  C   UNL     1       5.729   5.132  -5.238  0.00  0.00    +0.004 C 
ATOM     38  C   UNL     1       4.309   4.567  -5.323  0.00  0.00    -0.003 C 
ENDBRANCH  36  38
ENDBRANCH  35  36
ENDBRANCH  34  35
ENDBRANCH  33  34
ENDBRANCH  25  33
ENDBRANCH  23  28
ENDBRANCH   1  24
TORSDOF 10
