REMARK  Name = ZINC63213681
REMARK  5 active torsions:
REMARK  status: ('A' for Active; 'I' for Inactive)
REMARK    1  A    between atoms: C_4  and  C_7
REMARK    2  A    between atoms: C_8  and  S_9
REMARK    3  A    between atoms: S_9  and  N_12
REMARK    4  A    between atoms: N_12  and  C_13
REMARK    5  A    between atoms: C_20  and  N_22
REMARK                            x       y       z     vdW  Elec       q    Type
REMARK                         _______ _______ _______ _____ _____    ______ ____
ROOT
ATOM      1  N   UNL     1       5.374  -3.696   1.362  0.00  0.00    -0.189 NA
ATOM      2  H   UNL     1       6.064  -3.464   2.003  0.00  0.00    +0.148 HD
ENDROOT
BRANCH   1   3
ATOM      3  C   UNL     1       4.436  -4.782   1.658  0.00  0.00    +0.062 C 
ATOM      4  C   UNL     1       3.252  -4.211   2.462  0.00  0.00    +0.019 C 
ATOM      5  C   UNL     1       2.463  -5.282   3.165  0.00  0.00    +0.001 C 
ATOM      6  C   UNL     1       3.001  -5.424   4.603  0.00  0.00    -0.000 C 
ATOM      7  C   UNL     1       4.220  -6.218   4.664  0.00  0.00    -0.002 C 
ATOM      8  C   UNL     1       5.377  -5.580   3.869  0.00  0.00    -0.015 C 
ATOM      9  C   UNL     1       5.187  -5.896   2.413  0.00  0.00    -0.056 C 
BRANCH   9  10
ATOM     10  N   UNL     1       6.505  -6.084   1.793  0.00  0.00    +0.381 N 
ATOM     11  H   UNL     1       7.028  -5.223   1.847  0.00  0.00    -0.090 HD
ATOM     12  H   UNL     1       7.005  -6.812   2.281  0.00  0.00    -0.090 HD
ATOM     13  H   UNL     1       6.388  -6.346   0.826  0.00  0.00    -0.090 HD
ENDBRANCH   9  10
ENDBRANCH   1   3
BRANCH   1  14
ATOM     14  S   UNL     1       5.256  -2.867  -0.066  0.00  0.00    +0.052 S 
ATOM     15  O   UNL     1       5.165  -3.841  -1.096  0.00  0.00    -0.154 OA
ATOM     16  O   UNL     1       6.273  -1.874  -0.044  0.00  0.00    -0.154 OA
BRANCH  14  18
ATOM     17  C   UNL     1       3.695  -0.685  -0.038  0.00  0.00    +0.028 C 
ATOM     18  C   UNL     1       3.716  -2.010  -0.046  0.00  0.00    +0.153 C 
BRANCH  17  22
ATOM     19  C   UNL     1      -0.017   1.379   0.010  0.00  0.00    +0.000 A 
ATOM     20  C   UNL     1       1.168   2.093   0.002  0.00  0.00    +0.001 A 
ATOM     21  C   UNL     1       2.377   1.429  -0.013  0.00  0.00    +0.008 A 
ATOM     22  C   UNL     1       2.403   0.034  -0.021  0.00  0.00    -0.024 A 
ATOM     23  C   UNL     1       1.204  -0.681  -0.013  0.00  0.00    +0.008 A 
ATOM     24  C   UNL     1       0.002  -0.004   0.002  0.00  0.00    +0.001 A 
ENDBRANCH  17  22
ENDBRANCH  14  18
ENDBRANCH   1  14
TORSDOF 5
