REMARK  Name = ZINC40104186
REMARK  11 active torsions:
REMARK  status: ('A' for Active; 'I' for Inactive)
REMARK    1  A    between atoms: C_1  and  N_2
REMARK    2  A    between atoms: N_2  and  C_3
REMARK    3  A    between atoms: N_2  and  C_4
REMARK    4  A    between atoms: C_4  and  C_5
REMARK    5  A    between atoms: C_5  and  C_7
REMARK    6  A    between atoms: C_5  and  C_24
REMARK    7  A    between atoms: C_7  and  N_8
REMARK    8  A    between atoms: N_11  and  C_12
REMARK    9  A    between atoms: C_17  and  N_18
REMARK   10  A    between atoms: C_24  and  C_26
REMARK   11  A    between atoms: C_24  and  O_32
REMARK                            x       y       z     vdW  Elec       q    Type
REMARK                         _______ _______ _______ _____ _____    ______ ____
ROOT
ATOM      1  N   UNL     1      -3.182  -2.049  -1.895  0.00  0.00    -0.299 N 
ATOM      2  C   UNL     1      -4.369  -2.377  -2.442  0.00  0.00    +0.304 C 
ATOM      3  O   UNL     1      -5.080  -3.202  -1.901  0.00  0.00    -0.253 OA
ATOM      4  N   UNL     1      -4.768  -1.792  -3.589  0.00  0.00    -0.268 N 
ATOM      5  H   UNL     1      -2.615  -1.391  -2.327  0.00  0.00    +0.150 HD
ATOM      6  H   UNL     1      -4.172  -1.187  -4.057  0.00  0.00    +0.156 HD
ENDROOT
BRANCH   4   7
ATOM      7  C   UNL     1      -6.043  -2.057  -4.104  0.00  0.00    +0.056 A 
ATOM      8  C   UNL     1      -6.672  -3.260  -3.819  0.00  0.00    +0.025 A 
ATOM      9  C   UNL     1      -7.930  -3.520  -4.329  0.00  0.00    +0.002 A 
ATOM     10  C   UNL     1      -8.566  -2.583  -5.123  0.00  0.00    +0.002 A 
ATOM     11  C   UNL     1      -7.947  -1.382  -5.412  0.00  0.00    +0.025 A 
ATOM     12  C   UNL     1      -6.687  -1.110  -4.900  0.00  0.00    +0.058 A 
BRANCH  12  13
ATOM     13  N   UNL     1      -6.060   0.109  -5.187  0.00  0.00    -0.270 N 
ATOM     14  C   UNL     1      -5.192   0.342  -6.348  0.00  0.00    +0.114 C 
ATOM     15  C   UNL     1      -5.098   1.877  -6.491  0.00  0.00    +0.029 C 
ATOM     16  C   UNL     1      -5.375   2.346  -5.044  0.00  0.00    +0.098 C 
ATOM     17  C   UNL     1      -6.180   1.218  -4.437  0.00  0.00    +0.220 C 
ATOM     18  O   UNL     1      -6.837   1.302  -3.421  0.00  0.00    -0.275 OA
ENDBRANCH  12  13
ENDBRANCH   4   7
BRANCH   1  19
ATOM     19  C   UNL     1      -2.749  -2.685  -0.649  0.00  0.00    +0.110 C 
BRANCH  19  20
ATOM     20  C   UNL     1      -1.469  -2.010  -0.149  0.00  0.00    +0.023 C 
BRANCH  20  21
ATOM     21  C   UNL     1      -1.796  -0.599   0.344  0.00  0.00    -0.072 C 
BRANCH  21  23
ATOM     22  C   UNL     1      -2.582   1.571  -0.309  0.00  0.00    -0.097 C 
ATOM     23  N   UNL     1      -2.218   0.232  -0.791  0.00  0.00    +0.376 N 
ATOM     24  C   UNL     1      -1.115   0.341  -1.755  0.00  0.00    -0.097 C 
ATOM     25  H   UNL     1      -3.016  -0.193  -1.240  0.00  0.00    -0.083 HD
ENDBRANCH  21  23
ENDBRANCH  20  21
BRANCH  20  26
ATOM     26  C   UNL     1      -0.876  -2.828   0.999  0.00  0.00    +0.147 C 
BRANCH  26  27
ATOM     27  C   UNL     1       0.389  -2.169   1.484  0.00  0.00    -0.019 A 
ATOM     28  C   UNL     1       0.333  -1.217   2.486  0.00  0.00    +0.006 A 
ATOM     29  C   UNL     1       1.494  -0.613   2.930  0.00  0.00    +0.000 A 
ATOM     30  C   UNL     1       2.711  -0.960   2.374  0.00  0.00    +0.000 A 
ATOM     31  C   UNL     1       2.767  -1.912   1.374  0.00  0.00    +0.000 A 
ATOM     32  C   UNL     1       1.607  -2.520   0.932  0.00  0.00    +0.006 A 
ENDBRANCH  26  27
BRANCH  26  33
ATOM     33  O   UNL     1      -1.819  -2.897   2.071  0.00  0.00    -0.387 OA
ATOM     34  H   UNL     1      -2.066  -2.035   2.433  0.00  0.00    +0.210 HD
ENDBRANCH  26  33
ENDBRANCH  20  26
ENDBRANCH  19  20
ENDBRANCH   1  19
TORSDOF 9
