REMARK  Name = ZINC38046163
REMARK  4 active torsions:
REMARK  status: ('A' for Active; 'I' for Inactive)
REMARK    1  A    between atoms: C_3  and  C_8
REMARK    2  A    between atoms: C_8  and  N_9
REMARK    3  A    between atoms: C_10  and  C_12
REMARK    4  A    between atoms: C_15  and  O_19
REMARK                            x       y       z     vdW  Elec       q    Type
REMARK                         _______ _______ _______ _____ _____    ______ ____
ROOT
ATOM      1  N   UNL     1       4.273   1.498  -2.436  0.00  0.00    -0.316 N 
ATOM      2  C   UNL     1       5.574   1.786  -2.639  0.00  0.00    +0.199 C 
ATOM      3  O   UNL     1       6.195   2.410  -1.805  0.00  0.00    -0.278 OA
ATOM      4  H   UNL     1       3.777   0.999  -3.103  0.00  0.00    +0.149 HD
ENDROOT
BRANCH   2   5
ATOM      5  C   UNL     1       6.257   1.334  -3.904  0.00  0.00    +0.018 C 
ATOM      6  C   UNL     1       5.949   2.309  -5.061  0.00  0.00    +0.023 C 
ATOM      7  C   UNL     1       7.258   2.394  -5.873  0.00  0.00    +0.097 C 
ATOM      8  C   UNL     1       8.246   1.462  -5.139  0.00  0.00    -0.050 C 
ATOM      9  N   UNL     1       7.733   1.391  -3.745  0.00  0.00    +0.388 N 
ATOM     10  H   UNL     1       8.000   2.216  -3.229  0.00  0.00    -0.085 HD
ATOM     11  H   UNL     1       8.070   0.559  -3.285  0.00  0.00    -0.085 HD
BRANCH   7  12
ATOM     12  O   UNL     1       7.043   1.938  -7.210  0.00  0.00    -0.394 OA
ATOM     13  H   UNL     1       7.832   1.968  -7.768  0.00  0.00    +0.210 HD
ENDBRANCH   7  12
ENDBRANCH   2   5
BRANCH   1  14
ATOM     14  C   UNL     1       3.609   1.938  -1.206  0.00  0.00    +0.110 C 
BRANCH  14  17
ATOM     15  C   UNL     1      -0.019   1.527   0.010  0.00  0.00    +0.028 C 
ATOM     16  C   UNL     1       1.421   2.049  -0.001  0.00  0.00    +0.009 C 
ATOM     17  C   UNL     1       2.148   1.484  -1.225  0.00  0.00    +0.032 C 
ATOM     18  C   UNL     1       2.085  -0.045  -1.185  0.00  0.00    +0.164 C 
ATOM     19  O   UNL     1       0.720  -0.463  -1.145  0.00  0.00    -0.379 OA
ATOM     20  C   UNL     1       0.002  -0.004   0.002  0.00  0.00    +0.160 C 
ENDBRANCH  14  17
ENDBRANCH   1  14
TORSDOF 4
