REMARK  Name = ZINC37946400
REMARK  7 active torsions:
REMARK  status: ('A' for Active; 'I' for Inactive)
REMARK    1  A    between atoms: C_1  and  C_2
REMARK    2  A    between atoms: C_5  and  C_11
REMARK    3  A    between atoms: C_5  and  N_14
REMARK    4  A    between atoms: C_7  and  C_9
REMARK    5  A    between atoms: C_7  and  C_10
REMARK    6  A    between atoms: N_14  and  C_15
REMARK    7  A    between atoms: C_15  and  C_16
REMARK                            x       y       z     vdW  Elec       q    Type
REMARK                         _______ _______ _______ _____ _____    ______ ____
ROOT
ATOM      1  C   UNL     1       0.752   1.818   0.233  0.00  0.00    +0.007 C 
ATOM      2  C   UNL     1       0.489   0.318   0.091  0.00  0.00    -0.014 C 
ATOM      3  C   UNL     1      -1.020   0.066   0.053  0.00  0.00    -0.000 C 
ATOM      4  C   UNL     1      -1.283  -1.434  -0.089  0.00  0.00    +0.011 C 
ATOM      5  C   UNL     1      -0.673  -2.174   1.103  0.00  0.00    +0.003 C 
ATOM      6  C   UNL     1       0.836  -1.923   1.141  0.00  0.00    -0.035 C 
ATOM      7  C   UNL     1       1.099  -0.422   1.283  0.00  0.00    +0.009 C 
ATOM      8  C   UNL     1       1.471  -2.431  -0.155  0.00  0.00    +0.011 C 
ATOM      9  C   UNL     1       1.446  -2.663   2.333  0.00  0.00    +0.011 C 
ENDROOT
BRANCH   4  10
ATOM     10  C   UNL     1      -0.658  -1.935  -1.365  0.00  0.00    +0.200 C 
ATOM     11  O   UNL     1      -0.081  -1.163  -2.102  0.00  0.00    -0.278 OA
ATOM     12  N   UNL     1      -0.740  -3.241  -1.689  0.00  0.00    -0.330 N 
ATOM     13  H   UNL     1      -1.129  -3.872  -1.063  0.00  0.00    +0.145 HD
ATOM     14  H   UNL     1      -0.411  -3.550  -2.547  0.00  0.00    +0.145 HD
ENDBRANCH   4  10
BRANCH   4  15
ATOM     15  N   UNL     1      -2.732  -1.675  -0.126  0.00  0.00    +0.392 N 
ATOM     16  H   UNL     1      -2.907  -2.669  -0.131  0.00  0.00    -0.084 HD
ATOM     17  H   UNL     1      -3.163  -1.262   0.688  0.00  0.00    -0.084 HD
BRANCH  15  18
ATOM     18  C   UNL     1      -3.298  -1.072  -1.340  0.00  0.00    -0.038 C 
BRANCH  18  19
ATOM     19  C   UNL     1      -4.797  -1.231  -1.327  0.00  0.00    -0.027 A 
ATOM     20  C   UNL     1      -5.739  -0.397  -0.824  0.00  0.00    +0.009 A 
ATOM     21  C   UNL     1      -7.072  -0.751  -0.926  0.00  0.00    +0.008 A 
ATOM     22  C   UNL     1      -7.396  -1.921  -1.528  0.00  0.00    +0.045 A 
ATOM     23  S   UNL     1      -5.792  -2.562  -1.979  0.00  0.00    -0.104 S 
ENDBRANCH  18  19
ENDBRANCH  15  18
ENDBRANCH   4  15
TORSDOF 4
