REMARK  Name = ZINC64375707
REMARK  7 active torsions:
REMARK  status: ('A' for Active; 'I' for Inactive)
REMARK    1  A    between atoms: N_3  and  C_6
REMARK    2  A    between atoms: C_6  and  C_7
REMARK    3  A    between atoms: C_7  and  C_8
REMARK    4  A    between atoms: C_8  and  N_9
REMARK    5  A    between atoms: N_12  and  N_13
REMARK    6  A    between atoms: N_13  and  S_14
REMARK    7  A    between atoms: S_14  and  C_17
REMARK                            x       y       z     vdW  Elec       q    Type
REMARK                         _______ _______ _______ _____ _____    ______ ____
ROOT
ATOM      1  N   UNL     1       6.075   0.589   2.771  0.00  0.00    -0.298 N 
ATOM      2  C   UNL     1       7.403   0.570   3.005  0.00  0.00    +0.315 C 
ATOM      3  O   UNL     1       8.184   0.564   2.073  0.00  0.00    -0.251 OA
ATOM      4  N   UNL     1       7.864   0.557   4.271  0.00  0.00    -0.216 N 
ATOM      5  H   UNL     1       5.452   0.594   3.514  0.00  0.00    +0.150 HD
ATOM      6  H   UNL     1       8.819   0.543   4.439  0.00  0.00    +0.172 HD
ENDROOT
BRANCH   4   7
ATOM      7  N   UNL     1       6.964   0.563   5.345  0.00  0.00    -0.107 NA
ATOM      8  H   UNL     1       6.293   1.260   5.410  0.00  0.00    +0.172 HD
BRANCH   7   9
ATOM      9  S   UNL     1       7.046  -0.619   6.501  0.00  0.00    +0.079 S 
ATOM     10  O   UNL     1       6.116  -0.261   7.514  0.00  0.00    -0.152 OA
ATOM     11  O   UNL     1       6.986  -1.862   5.816  0.00  0.00    -0.152 OA
BRANCH   9  12
ATOM     12  C   UNL     1       8.647  -0.523   7.231  0.00  0.00    +0.177 A 
ATOM     13  C   UNL     1       9.696  -1.251   6.698  0.00  0.00    +0.155 A 
ATOM     14  C   UNL     1      10.954  -1.175   7.271  0.00  0.00    +0.078 A 
ATOM     15  C   UNL     1      11.162  -0.371   8.379  0.00  0.00    +0.129 A 
ATOM     16  C   UNL     1      10.113   0.358   8.912  0.00  0.00    +0.078 A 
ATOM     17  C   UNL     1       8.857   0.286   8.336  0.00  0.00    +0.155 A 
ATOM     18  F   UNL     1       7.834   1.001   8.853  0.00  0.00    -0.203 F 
ATOM     19  F   UNL     1      12.389  -0.298   8.939  0.00  0.00    -0.205 F 
ATOM     20  F   UNL     1       9.493  -2.036   5.617  0.00  0.00    -0.203 F 
ENDBRANCH   9  12
ENDBRANCH   7   9
ENDBRANCH   4   7
BRANCH   1  21
ATOM     21  C   UNL     1       5.574   0.603   1.395  0.00  0.00    +0.107 C 
BRANCH  21  22
ATOM     22  C   UNL     1       4.044   0.624   1.409  0.00  0.00    +0.040 C 
BRANCH  22  23
ATOM     23  C   UNL     1       3.521   0.638  -0.028  0.00  0.00    +0.124 C 
BRANCH  23  26
ATOM     24  C   UNL     1      -0.016   1.337   0.009  0.00  0.00    +0.101 A 
ATOM     25  C   UNL     1       1.259   1.771  -0.000  0.00  0.00    +0.104 A 
ATOM     26  N   UNL     1       2.056   0.658  -0.014  0.00  0.00    -0.338 N 
ATOM     27  C   UNL     1       1.240  -0.418  -0.012  0.00  0.00    +0.173 A 
ATOM     28  N   UNL     1       0.002  -0.004   0.002  0.00  0.00    -0.352 N 
ATOM     29  H   UNL     1      -0.781  -0.576   0.007  0.00  0.00    +0.166 HD
ENDBRANCH  23  26
ENDBRANCH  22  23
ENDBRANCH  21  22
ENDBRANCH   1  21
TORSDOF 7
