REMARK  Name = ZINC36704378
REMARK  12 active torsions:
REMARK  status: ('A' for Active; 'I' for Inactive)
REMARK    1  A    between atoms: C_1  and  C_2
REMARK    2  A    between atoms: C_2  and  O_3
REMARK    3  A    between atoms: O_3  and  C_4
REMARK    4  A    between atoms: N_13  and  C_14
REMARK    5  A    between atoms: C_14  and  C_15
REMARK    6  A    between atoms: C_15  and  C_16
REMARK    7  A    between atoms: C_16  and  N_17
REMARK    8  A    between atoms: N_17  and  C_18
REMARK    9  A    between atoms: N_17  and  C_19
REMARK   10  A    between atoms: C_20  and  C_22
REMARK   11  A    between atoms: N_27  and  S_28
REMARK   12  A    between atoms: S_28  and  C_31
REMARK                            x       y       z     vdW  Elec       q    Type
REMARK                         _______ _______ _______ _____ _____    ______ ____
ROOT
ATOM      1  C   UNL     1      -0.267  -1.068  -2.135  0.00  0.00    +0.147 A 
ATOM      2  C   UNL     1      -1.168  -1.754  -1.354  0.00  0.00    +0.048 A 
ATOM      3  C   UNL     1      -1.418  -3.103  -1.553  0.00  0.00    +0.005 A 
ATOM      4  C   UNL     1      -0.748  -3.776  -2.558  0.00  0.00    +0.017 A 
ATOM      5  C   UNL     1       0.155  -3.102  -3.343  0.00  0.00    +0.044 A 
ATOM      6  C   UNL     1       0.433  -1.727  -3.177  0.00  0.00    +0.122 A 
ATOM      7  N   UNL     1       1.341  -1.206  -4.032  0.00  0.00    -0.221 NA
ATOM      8  C   UNL     1       1.926  -1.922  -4.962  0.00  0.00    +0.168 A 
ATOM      9  S   UNL     1       1.211  -3.539  -4.703  0.00  0.00    -0.052 S 
ATOM     10  N   UNL     1       2.867  -1.527  -5.901  0.00  0.00    -0.249 N 
ATOM     11  C   UNL     1       3.293  -0.249  -5.931  0.00  0.00    +0.240 C 
ATOM     12  O   UNL     1       4.049   0.117  -6.806  0.00  0.00    -0.273 OA
ENDROOT
BRANCH  11  13
ATOM     13  C   UNL     1       2.831   0.725  -4.878  0.00  0.00    +0.166 C 
ATOM     14  C   UNL     1       3.625   0.503  -3.573  0.00  0.00    +0.031 C 
ATOM     15  C   UNL     1       4.738   1.581  -3.656  0.00  0.00    +0.019 C 
ATOM     16  C   UNL     1       3.988   2.749  -4.343  0.00  0.00    +0.110 C 
ATOM     17  N   UNL     1       3.091   2.102  -5.322  0.00  0.00    -0.164 NA
BRANCH  17  18
ATOM     18  S   UNL     1       2.480   2.806  -6.691  0.00  0.00    +0.068 S 
ATOM     19  O   UNL     1       3.368   3.860  -7.036  0.00  0.00    -0.152 OA
ATOM     20  O   UNL     1       2.168   1.748  -7.587  0.00  0.00    -0.152 OA
BRANCH  18  21
ATOM     21  C   UNL     1       0.950   3.561  -6.250  0.00  0.00    +0.143 A 
ATOM     22  C   UNL     1       0.715   4.821  -5.809  0.00  0.00    +0.036 A 
ATOM     23  C   UNL     1      -0.583   5.199  -5.521  0.00  0.00    +0.010 A 
ATOM     24  C   UNL     1      -1.583   4.300  -5.689  0.00  0.00    +0.047 A 
ATOM     25  S   UNL     1      -0.695   2.866  -6.276  0.00  0.00    -0.077 S 
ENDBRANCH  18  21
ENDBRANCH  17  18
ENDBRANCH  11  13
BRANCH   1  26
ATOM     26  O   UNL     1      -0.050   0.254  -1.909  0.00  0.00    -0.490 OA
BRANCH  26  28
ATOM     27  C   UNL     1      -0.412   2.340  -0.743  0.00  0.00    +0.048 C 
ATOM     28  C   UNL     1      -0.787   0.860  -0.845  0.00  0.00    +0.226 C 
ENDBRANCH  26  28
ENDBRANCH   1  26
BRANCH  10  29
ATOM     29  C   UNL     1       3.397  -2.499  -6.860  0.00  0.00    +0.114 C 
BRANCH  29  30
ATOM     30  C   UNL     1       2.523  -2.505  -8.116  0.00  0.00    +0.001 C 
BRANCH  30  31
ATOM     31  C   UNL     1       3.066  -3.534  -9.110  0.00  0.00    -0.078 C 
BRANCH  31  32
ATOM     32  N   UNL     1       2.227  -3.540 -10.316  0.00  0.00    +0.376 N 
ATOM     33  C   UNL     1       2.815  -4.440 -11.317  0.00  0.00    -0.097 C 
ATOM     34  C   UNL     1       0.877  -4.006  -9.971  0.00  0.00    -0.097 C 
ATOM     35  H   UNL     1       2.174  -2.606 -10.693  0.00  0.00    -0.083 HD
ENDBRANCH  31  32
ENDBRANCH  30  31
ENDBRANCH  29  30
ENDBRANCH  10  29
TORSDOF 9
