REMARK  Name = ZINC38551055
REMARK  8 active torsions:
REMARK  status: ('A' for Active; 'I' for Inactive)
REMARK    1  A    between atoms: C_1  and  C_2
REMARK    2  A    between atoms: N_8  and  C_9
REMARK    3  A    between atoms: C_9  and  C_11
REMARK    4  A    between atoms: C_9  and  C_19
REMARK    5  A    between atoms: C_16  and  O_17
REMARK    6  A    between atoms: O_17  and  C_18
REMARK    7  A    between atoms: C_23  and  N_24
REMARK    8  A    between atoms: C_25  and  C_27
REMARK                            x       y       z     vdW  Elec       q    Type
REMARK                         _______ _______ _______ _____ _____    ______ ____
ROOT
ATOM      1  C   UNL     1      -0.068  -2.070   3.673  0.00  0.00    +0.138 C 
ENDROOT
BRANCH   1   9
ATOM      2  C   UNL     1      -0.578   1.393  -0.070  0.00  0.00    +0.044 C 
ATOM      3  C   UNL     1      -0.341  -0.094  -0.018  0.00  0.00    -0.046 A 
ATOM      4  C   UNL     1      -0.209  -0.833  -1.187  0.00  0.00    +0.021 A 
ATOM      5  C   UNL     1       0.008  -2.194  -1.106  0.00  0.00    +0.084 A 
ATOM      6  N   UNL     1       0.092  -2.797   0.065  0.00  0.00    -0.350 N 
ATOM      7  C   UNL     1      -0.029  -2.128   1.201  0.00  0.00    +0.097 A 
ATOM      8  C   UNL     1      -0.243  -0.753   1.194  0.00  0.00    +0.045 A 
ATOM      9  N   UNL     1       0.065  -2.804   2.412  0.00  0.00    -0.319 N 
ATOM     10  H   UNL     1       0.218  -3.762   2.422  0.00  0.00    +0.148 HD
ATOM     11  H   UNL     1       0.245  -3.755   0.094  0.00  0.00    +0.166 HD
ENDBRANCH   1   9
BRANCH   1  12
ATOM     12  C   UNL     1       0.579  -2.858   4.783  0.00  0.00    +0.009 A 
ATOM     13  C   UNL     1       1.491  -2.240   5.640  0.00  0.00    -0.030 A 
ATOM     14  C   UNL     1       2.032  -3.016   6.616  0.00  0.00    -0.005 A 
ATOM     15  S   UNL     1       1.285  -4.604   6.361  0.00  0.00    -0.078 S 
ATOM     16  C   UNL     1       0.270  -4.170   4.956  0.00  0.00    +0.078 A 
ATOM     17  C   UNL     1       3.026  -2.611   7.657  0.00  0.00    +0.043 C 
ATOM     18  C   UNL     1       3.637  -1.264   7.242  0.00  0.00    +0.005 C 
ATOM     19  C   UNL     1       2.505  -0.315   6.839  0.00  0.00    +0.005 C 
ATOM     20  C   UNL     1       1.885  -0.771   5.518  0.00  0.00    +0.036 C 
BRANCH  16  21
ATOM     21  N   UNL     1      -0.609  -4.972   4.225  0.00  0.00    -0.273 N 
ATOM     22  C   UNL     1      -0.752  -6.275   4.538  0.00  0.00    +0.284 C 
ATOM     23  O   UNL     1      -0.116  -6.753   5.459  0.00  0.00    -0.266 OA
ATOM     24  H   UNL     1      -1.116  -4.591   3.491  0.00  0.00    +0.156 HD
BRANCH  22  25
ATOM     25  C   UNL     1      -1.676  -7.116   3.771  0.00  0.00    +0.189 A 
ATOM     26  C   UNL     1      -1.919  -8.443   3.985  0.00  0.00    +0.054 A 
ATOM     27  C   UNL     1      -2.864  -8.839   3.025  0.00  0.00    +0.042 A 
ATOM     28  C   UNL     1      -3.152  -7.752   2.277  0.00  0.00    +0.196 A 
ATOM     29  O   UNL     1      -2.437  -6.714   2.732  0.00  0.00    -0.458 OA
ENDBRANCH  22  25
ENDBRANCH  16  21
ENDBRANCH   1  12
BRANCH   1  30
ATOM     30  C   UNL     1      -1.528  -1.867   3.985  0.00  0.00    +0.019 A 
ATOM     31  C   UNL     1      -2.478  -2.693   3.416  0.00  0.00    +0.009 A 
ATOM     32  C   UNL     1      -3.818  -2.508   3.701  0.00  0.00    +0.001 A 
ATOM     33  C   UNL     1      -4.211  -1.496   4.558  0.00  0.00    +0.004 A 
ATOM     34  C   UNL     1      -3.265  -0.667   5.130  0.00  0.00    +0.046 A 
ATOM     35  C   UNL     1      -1.919  -0.855   4.849  0.00  0.00    +0.125 A 
BRANCH  35  36
ATOM     36  O   UNL     1      -0.986  -0.045   5.415  0.00  0.00    -0.495 OA
ATOM     37  C   UNL     1      -1.462   0.977   6.294  0.00  0.00    +0.277 C 
ENDBRANCH  35  36
ENDBRANCH   1  30
TORSDOF 6
