REMARK  Name = ZINC58214190
REMARK  6 active torsions:
REMARK  status: ('A' for Active; 'I' for Inactive)
REMARK    1  A    between atoms: C_1  and  C_2
REMARK    2  A    between atoms: C_4  and  C_7
REMARK    3  A    between atoms: C_7  and  N_13
REMARK    4  A    between atoms: N_13  and  C_14
REMARK    5  A    between atoms: C_14  and  C_15
REMARK    6  A    between atoms: N_20  and  C_21
REMARK                            x       y       z     vdW  Elec       q    Type
REMARK                         _______ _______ _______ _____ _____    ______ ____
ROOT
ATOM      1  N   UNL     1      -2.504  -3.155   1.136  0.00  0.00    +0.393 N 
ATOM      2  H   UNL     1      -3.124  -3.950   1.127  0.00  0.00    -0.084 HD
ATOM      3  H   UNL     1      -1.980  -3.146   1.998  0.00  0.00    -0.084 HD
ENDROOT
BRANCH   1   4
ATOM      4  C   UNL     1      -1.576  -3.245   0.001  0.00  0.00    -0.003 C 
ATOM      5  C   UNL     1      -2.370  -3.259  -1.307  0.00  0.00    -0.005 C 
ATOM      6  C   UNL     1      -3.311  -4.465  -1.320  0.00  0.00    -0.001 C 
ATOM      7  C   UNL     1      -2.492  -5.752  -1.208  0.00  0.00    -0.000 C 
ATOM      8  C   UNL     1      -1.698  -5.739   0.100  0.00  0.00    -0.001 C 
ATOM      9  C   UNL     1      -0.757  -4.533   0.113  0.00  0.00    -0.005 C 
BRANCH   4  13
ATOM     10  C   UNL     1       0.002   1.509   0.051  0.00  0.00    +0.112 C 
ATOM     11  C   UNL     1       0.019   0.002   0.035  0.00  0.00    +0.224 A 
ATOM     12  N   UNL     1      -1.028  -0.775   0.027  0.00  0.00    -0.198 NA
ATOM     13  C   UNL     1      -0.649  -2.057   0.013  0.00  0.00    +0.161 A 
ATOM     14  N   UNL     1       0.652  -2.112   0.014  0.00  0.00    -0.063 NA
ATOM     15  O   UNL     1       1.114  -0.769   0.022  0.00  0.00    -0.338 OA
ENDBRANCH   4  13
ENDBRANCH   1   4
BRANCH   1  16
ATOM     16  C   UNL     1      -3.290  -1.918   1.028  0.00  0.00    +0.017 C 
BRANCH  16  17
ATOM     17  C   UNL     1      -4.242  -1.825   2.192  0.00  0.00    +0.203 C 
ATOM     18  O   UNL     1      -4.263  -2.702   3.030  0.00  0.00    -0.277 OA
ATOM     19  N   UNL     1      -5.070  -0.767   2.303  0.00  0.00    -0.241 N 
ATOM     20  C   UNL     1      -5.921  -0.684   3.345  0.00  0.00    +0.310 C 
ATOM     21  O   UNL     1      -5.942  -1.563   4.184  0.00  0.00    -0.252 OA
ATOM     22  N   UNL     1      -6.749   0.374   3.456  0.00  0.00    -0.269 N 
ATOM     23  H   UNL     1      -5.053  -0.066   1.633  0.00  0.00    +0.159 HD
ATOM     24  H   UNL     1      -6.686   1.107   2.824  0.00  0.00    +0.156 HD
BRANCH  22  25
ATOM     25  C   UNL     1      -7.699   0.414   4.482  0.00  0.00    +0.035 A 
ATOM     26  C   UNL     1      -8.943   0.989   4.257  0.00  0.00    +0.023 A 
ATOM     27  C   UNL     1      -9.878   1.028   5.272  0.00  0.00    +0.002 A 
ATOM     28  C   UNL     1      -9.578   0.494   6.512  0.00  0.00    +0.000 A 
ATOM     29  C   UNL     1      -8.340  -0.079   6.740  0.00  0.00    +0.002 A 
ATOM     30  C   UNL     1      -7.402  -0.126   5.727  0.00  0.00    +0.023 A 
ENDBRANCH  22  25
ENDBRANCH  16  17
ENDBRANCH   1  16
TORSDOF 5
