REMARK  Name = ZINC42483527
REMARK  7 active torsions:
REMARK  status: ('A' for Active; 'I' for Inactive)
REMARK    1  A    between atoms: C_3  and  C_9
REMARK    2  A    between atoms: C_6  and  N_7
REMARK    3  A    between atoms: C_9  and  N_10
REMARK    4  A    between atoms: N_10  and  C_11
REMARK    5  A    between atoms: N_10  and  C_14
REMARK    6  A    between atoms: C_11  and  C_12
REMARK    7  A    between atoms: C_12  and  O_13
REMARK                            x       y       z     vdW  Elec       q    Type
REMARK                         _______ _______ _______ _____ _____    ______ ____
ROOT
ATOM      1  N   UNL     1       4.189   2.329   1.390  0.00  0.00    +0.386 N 
ATOM      2  H   UNL     1       3.331   2.688   1.782  0.00  0.00    -0.081 HD
ENDROOT
BRANCH   1   3
ATOM      3  C   UNL     1       5.303   3.215   1.757  0.00  0.00    -0.068 C 
ATOM      4  C   UNL     1       5.530   3.150   3.268  0.00  0.00    -0.015 C 
ATOM      5  C   UNL     1       6.689   4.072   3.650  0.00  0.00    -0.002 C 
ATOM      6  C   UNL     1       6.353   5.508   3.246  0.00  0.00    -0.000 C 
ATOM      7  C   UNL     1       6.126   5.573   1.734  0.00  0.00    -0.002 C 
ATOM      8  C   UNL     1       4.966   4.651   1.353  0.00  0.00    -0.015 C 
ENDBRANCH   1   3
BRANCH   1   9
ATOM      9  C   UNL     1       4.073   2.269  -0.073  0.00  0.00    -0.041 C 
BRANCH   9  12
ATOM     10  C   UNL     1       1.957  -0.628  -1.246  0.00  0.00    +0.023 A 
ATOM     11  C   UNL     1       3.052   0.140  -0.901  0.00  0.00    +0.004 A 
ATOM     12  C   UNL     1       2.875   1.434  -0.447  0.00  0.00    -0.050 A 
ATOM     13  C   UNL     1       1.602   1.964  -0.336  0.00  0.00    +0.021 A 
ATOM     14  C   UNL     1       0.502   1.200  -0.678  0.00  0.00    +0.038 A 
ATOM     15  C   UNL     1       0.677  -0.100  -1.135  0.00  0.00    +0.026 A 
ATOM     16 BR   UNL     1       1.366   3.734   0.286  0.00  0.00    -0.050 Br
BRANCH  15  17
ATOM     17  N   UNL     1      -0.432  -0.875  -1.483  0.00  0.00    -0.358 N 
ATOM     18  H   UNL     1      -0.309  -1.782  -1.801  0.00  0.00    +0.142 HD
ATOM     19  H   UNL     1      -1.326  -0.505  -1.405  0.00  0.00    +0.142 HD
ENDBRANCH  15  17
ENDBRANCH   9  12
ENDBRANCH   1   9
BRANCH   1  20
ATOM     20  C   UNL     1       4.441   0.982   1.917  0.00  0.00    -0.050 C 
BRANCH  20  21
ATOM     21  C   UNL     1       5.739   0.434   1.319  0.00  0.00    +0.137 C 
BRANCH  21  22
ATOM     22  O   UNL     1       6.847   1.184   1.820  0.00  0.00    -0.397 OA
ATOM     23  H   UNL     1       7.705   0.891   1.482  0.00  0.00    +0.209 HD
ENDBRANCH  21  22
ENDBRANCH  20  21
ENDBRANCH   1  20
TORSDOF 7
