REMARK  Name = ZINC63926223
REMARK  4 active torsions:
REMARK  status: ('A' for Active; 'I' for Inactive)
REMARK    1  A    between atoms: C_4  and  N_24
REMARK    2  A    between atoms: C_5  and  C_7
REMARK    3  A    between atoms: C_12  and  C_15
REMARK    4  A    between atoms: C_25  and  C_27
REMARK                            x       y       z     vdW  Elec       q    Type
REMARK                         _______ _______ _______ _____ _____    ______ ____
ROOT
ATOM      1  C   UNL     1       1.029  -2.274  -0.311  0.00  0.00    +0.249 C 
ATOM      2  O   UNL     1       1.952  -3.046  -0.485  0.00  0.00    -0.270 OA
ATOM      3  N   UNL     1      -0.242  -2.713  -0.397  0.00  0.00    -0.293 N 
ATOM      4  C   UNL     1      -0.547  -4.136  -0.622  0.00  0.00    +0.113 C 
ATOM      5  C   UNL     1      -1.314  -4.655   0.597  0.00  0.00    +0.054 C 
ATOM      6  C   UNL     1      -2.395  -3.689   0.985  0.00  0.00    -0.043 C 
ATOM      7  C   UNL     1      -2.426  -2.415   0.610  0.00  0.00    -0.004 C 
ATOM      8  C   UNL     1      -1.379  -1.791  -0.263  0.00  0.00    +0.135 C 
ENDROOT
BRANCH   6   9
ATOM      9  C   UNL     1      -3.444  -4.164   1.797  0.00  0.00    -0.015 C 
ATOM     10  C   UNL     1      -3.546  -5.416   2.391  0.00  0.00    +0.022 A 
ATOM     11  C   UNL     1      -2.704  -6.552   2.385  0.00  0.00    +0.013 A 
ATOM     12  C   UNL     1      -3.100  -7.653   3.085  0.00  0.00    +0.020 A 
ATOM     13  C   UNL     1      -4.306  -7.652   3.786  0.00  0.00    +0.113 A 
ATOM     14  N   UNL     1      -5.107  -6.618   3.811  0.00  0.00    -0.238 NA
ATOM     15  C   UNL     1      -4.808  -5.479   3.151  0.00  0.00    +0.135 A 
ATOM     16  N   UNL     1      -5.461  -4.342   3.047  0.00  0.00    -0.365 N 
ATOM     17  C   UNL     1      -4.691  -3.415   2.212  0.00  0.00    +0.150 C 
ATOM     18  H   UNL     1      -6.316  -4.146   3.460  0.00  0.00    +0.161 HD
ENDBRANCH   6   9
BRANCH   1  23
ATOM     19  C   UNL     1       0.916   1.475  -0.439  0.00  0.00    +0.001 A 
ATOM     20  C   UNL     1       1.813   1.810   0.563  0.00  0.00    +0.002 A 
ATOM     21  C   UNL     1       2.456   0.825   1.283  0.00  0.00    +0.024 A 
ATOM     22  C   UNL     1       2.208  -0.514   1.007  0.00  0.00    +0.046 A 
ATOM     23  C   UNL     1       1.301  -0.857  -0.007  0.00  0.00    +0.058 A 
ATOM     24  C   UNL     1       0.657   0.153  -0.727  0.00  0.00    +0.015 A 
BRANCH  22  25
ATOM     25  N   UNL     1       2.857  -1.509   1.731  0.00  0.00    -0.280 N 
ATOM     26  C   UNL     1       4.103  -1.299   2.200  0.00  0.00    +0.255 C 
ATOM     27  O   UNL     1       4.632  -0.213   2.054  0.00  0.00    -0.269 OA
ATOM     28  H   UNL     1       2.412  -2.355   1.898  0.00  0.00    +0.155 HD
BRANCH  26  29
ATOM     29  C   UNL     1       4.819  -2.377   2.886  0.00  0.00    +0.074 A 
ATOM     30  C   UNL     1       6.090  -2.367   3.442  0.00  0.00    +0.021 A 
ATOM     31  C   UNL     1       6.495  -3.543   4.025  0.00  0.00    +0.008 A 
ATOM     32  C   UNL     1       5.653  -4.606   4.020  0.00  0.00    +0.046 A 
ATOM     33  S   UNL     1       4.282  -4.042   3.230  0.00  0.00    -0.092 S 
ENDBRANCH  26  29
ENDBRANCH  22  25
ENDBRANCH   1  23
TORSDOF 4
