REMARK  Name = ZINC63151103
REMARK  14 active torsions:
REMARK  status: ('A' for Active; 'I' for Inactive)
REMARK    1  A    between atoms: C_1  and  C_2
REMARK    2  A    between atoms: C_2  and  O_3
REMARK    3  A    between atoms: O_3  and  C_4
REMARK    4  A    between atoms: C_7  and  C_12
REMARK    5  A    between atoms: C_9  and  O_10
REMARK    6  A    between atoms: O_10  and  C_11
REMARK    7  A    between atoms: C_12  and  C_14
REMARK    8  A    between atoms: C_12  and  C_30
REMARK    9  A    between atoms: C_14  and  N_15
REMARK   10  A    between atoms: C_16  and  C_18
REMARK   11  A    between atoms: C_18  and  N_19
REMARK   12  A    between atoms: C_20  and  C_22
REMARK   13  A    between atoms: C_24  and  C_29
REMARK   14  A    between atoms: C_26  and  C_28
REMARK                            x       y       z     vdW  Elec       q    Type
REMARK                         _______ _______ _______ _____ _____    ______ ____
ROOT
ATOM      1  C   UNL     1      -1.996  -6.097  -0.011  0.00  0.00    +0.064 C 
ENDROOT
BRANCH   1   2
ATOM      2  C   UNL     1      -1.343  -6.683   1.214  0.00  0.00    -0.033 C 
ATOM      3  C   UNL     1      -1.941  -7.408   2.186  0.00  0.00    -0.000 A 
ATOM      4  C   UNL     1      -3.326  -7.850   2.388  0.00  0.00    +0.010 A 
ATOM      5  C   UNL     1      -3.628  -8.581   3.485  0.00  0.00    +0.001 A 
ATOM      6  C   UNL     1      -2.654  -8.926   4.432  0.00  0.00    +0.002 A 
ATOM      7  C   UNL     1      -1.361  -8.557   4.316  0.00  0.00    +0.026 A 
ATOM      8  C   UNL     1      -0.931  -7.786   3.200  0.00  0.00    +0.043 A 
ATOM      9  N   UNL     1       0.246  -7.313   2.868  0.00  0.00    -0.380 N 
ATOM     10  C   UNL     1       0.116  -6.586   1.600  0.00  0.00    +0.145 C 
ATOM     11  H   UNL     1       1.066  -7.428   3.373  0.00  0.00    +0.160 HD
ENDBRANCH   1   2
BRANCH   1  15
ATOM     12  C   UNL     1      -1.498  -1.849   0.006  0.00  0.00    +0.162 A 
ATOM     13  C   UNL     1      -0.389  -2.680  -0.003  0.00  0.00    +0.050 A 
ATOM     14  C   UNL     1      -0.553  -4.052  -0.008  0.00  0.00    +0.008 A 
ATOM     15  C   UNL     1      -1.823  -4.600  -0.005  0.00  0.00    -0.035 A 
ATOM     16  C   UNL     1      -2.934  -3.777   0.004  0.00  0.00    +0.053 A 
ATOM     17  C   UNL     1      -2.776  -2.400   0.016  0.00  0.00    +0.162 A 
BRANCH  17  18
ATOM     18  O   UNL     1      -3.868  -1.589   0.030  0.00  0.00    -0.491 OA
ATOM     19  C   UNL     1      -5.148  -2.225   0.039  0.00  0.00    +0.277 C 
ENDBRANCH  17  18
BRANCH  12  20
ATOM     20  O   UNL     1      -1.339  -0.499   0.012  0.00  0.00    -0.489 OA
BRANCH  20  22
ATOM     21  C   UNL     1      -0.019   1.526   0.010  0.00  0.00    +0.048 C 
ATOM     22  C   UNL     1       0.002  -0.004   0.002  0.00  0.00    +0.226 C 
ENDBRANCH  20  22
ENDBRANCH  12  20
ENDBRANCH   1  15
BRANCH   1  23
ATOM     23  C   UNL     1      -1.345  -6.680  -1.266  0.00  0.00    +0.116 C 
BRANCH  23  24
ATOM     24  N   UNL     1      -1.615  -8.118  -1.333  0.00  0.00    -0.313 N 
ATOM     25  C   UNL     1      -1.136  -8.847  -2.361  0.00  0.00    +0.230 C 
ATOM     26  O   UNL     1      -0.481  -8.312  -3.230  0.00  0.00    -0.274 OA
ATOM     27  H   UNL     1      -2.140  -8.546  -0.638  0.00  0.00    +0.149 HD
BRANCH  25  28
ATOM     28  C   UNL     1      -1.415 -10.326  -2.430  0.00  0.00    +0.200 C 
BRANCH  28  29
ATOM     29  N   UNL     1      -0.791 -10.885  -3.632  0.00  0.00    -0.303 N 
ATOM     30  C   UNL     1      -0.909 -12.200  -3.903  0.00  0.00    +0.244 C 
ATOM     31  O   UNL     1      -1.532 -12.922  -3.151  0.00  0.00    -0.270 OA
ATOM     32  H   UNL     1      -0.293 -10.309  -4.233  0.00  0.00    +0.150 HD
BRANCH  30  33
ATOM     33  C   UNL     1      -0.279 -12.764  -5.116  0.00  0.00    +0.037 A 
ATOM     34  C   UNL     1       0.443 -11.938  -5.979  0.00  0.00    +0.016 A 
ATOM     35  C   UNL     1       1.029 -12.471  -7.109  0.00  0.00    -0.049 A 
ATOM     36  C   UNL     1       0.902 -13.820  -7.388  0.00  0.00    +0.006 A 
ATOM     37  C   UNL     1       0.187 -14.644  -6.537  0.00  0.00    -0.049 A 
ATOM     38  C   UNL     1      -0.399 -14.125  -5.400  0.00  0.00    +0.016 A 
ATOM     39  C   UNL     1       0.053 -16.113  -6.848  0.00  0.00    +0.044 C 
ATOM     40  C   UNL     1       1.809 -11.581  -8.043  0.00  0.00    +0.044 C 
ENDBRANCH  30  33
ENDBRANCH  28  29
ENDBRANCH  25  28
ENDBRANCH  23  24
ENDBRANCH   1  23
TORSDOF 10
