REMARK  Name = ZINC63179504
REMARK  10 active torsions:
REMARK  status: ('A' for Active; 'I' for Inactive)
REMARK    1  A    between atoms: C_1  and  C_2
REMARK    2  A    between atoms: C_2  and  C_3
REMARK    3  A    between atoms: C_2  and  N_4
REMARK    4  A    between atoms: N_4  and  C_5
REMARK    5  A    between atoms: N_4  and  S_6
REMARK    6  A    between atoms: S_6  and  N_9
REMARK    7  A    between atoms: C_13  and  C_16
REMARK    8  A    between atoms: N_18  and  C_19
REMARK    9  A    between atoms: C_19  and  C_20
REMARK   10  A    between atoms: C_20  and  N_21
REMARK                            x       y       z     vdW  Elec       q    Type
REMARK                         _______ _______ _______ _____ _____    ______ ____
ROOT
ATOM      1  N   UNL     1      -1.591  -3.035  -0.817  0.00  0.00    -0.166 NA
ATOM      2  C   UNL     1      -0.312  -3.658  -1.183  0.00  0.00    +0.110 C 
ATOM      3  C   UNL     1       0.332  -4.240   0.079  0.00  0.00    +0.018 C 
ATOM      4  C   UNL     1      -0.656  -5.189   0.760  0.00  0.00    +0.015 C 
ATOM      5  C   UNL     1      -1.910  -4.413   1.171  0.00  0.00    +0.091 C 
ATOM      6  C   UNL     1      -2.577  -3.831  -0.073  0.00  0.00    +0.123 C 
ENDROOT
BRANCH   5   7
ATOM      7  C   UNL     1      -2.869  -5.341   1.872  0.00  0.00    +0.217 C 
ATOM      8  O   UNL     1      -3.979  -5.519   1.419  0.00  0.00    -0.275 OA
ATOM      9  N   UNL     1      -2.492  -5.972   3.001  0.00  0.00    -0.317 N 
ATOM     10  H   UNL     1      -1.603  -5.829   3.363  0.00  0.00    +0.149 HD
BRANCH   9  11
ATOM     11  C   UNL     1      -3.424  -6.874   3.682  0.00  0.00    +0.085 C 
BRANCH  11  12
ATOM     12  C   UNL     1      -2.753  -7.455   4.928  0.00  0.00    -0.067 C 
BRANCH  12  13
ATOM     13  N   UNL     1      -3.688  -8.360   5.611  0.00  0.00    +0.379 N 
ATOM     14  H   UNL     1      -4.514  -7.848   5.882  0.00  0.00    -0.090 HD
ATOM     15  H   UNL     1      -3.946  -9.110   4.987  0.00  0.00    -0.090 HD
ATOM     16  H   UNL     1      -3.245  -8.743   6.432  0.00  0.00    -0.090 HD
ENDBRANCH  12  13
ENDBRANCH  11  12
ENDBRANCH   9  11
ENDBRANCH   5   7
BRANCH   1  17
ATOM     17  S   UNL     1      -1.913  -1.464  -1.230  0.00  0.00    +0.100 S 
ATOM     18  O   UNL     1      -3.328  -1.333  -1.256  0.00  0.00    -0.141 OA
ATOM     19  O   UNL     1      -1.099  -1.164  -2.355  0.00  0.00    -0.141 OA
BRANCH  17  20
ATOM     20  N   UNL     1      -1.372  -0.511   0.012  0.00  0.00    -0.167 NA
ATOM     21  C   UNL     1      -2.269  -0.175   1.122  0.00  0.00    +0.133 C 
BRANCH  20  23
ATOM     22  C   UNL     1      -0.019   1.526   0.010  0.00  0.00    +0.025 C 
ATOM     23  C   UNL     1       0.002  -0.004   0.002  0.00  0.00    +0.074 C 
ATOM     24  C   UNL     1       0.742  -0.511   1.242  0.00  0.00    +0.025 C 
ENDBRANCH  20  23
ENDBRANCH  17  20
ENDBRANCH   1  17
TORSDOF 7
