REMARK  Name = ZINC66244509
REMARK  9 active torsions:
REMARK  status: ('A' for Active; 'I' for Inactive)
REMARK    1  A    between atoms: C_1  and  S_2
REMARK    2  A    between atoms: S_2  and  C_5
REMARK    3  A    between atoms: C_8  and  N_14
REMARK    4  A    between atoms: C_9  and  N_11
REMARK    5  A    between atoms: N_14  and  C_15
REMARK    6  A    between atoms: C_15  and  C_16
REMARK    7  A    between atoms: C_16  and  N_17
REMARK    8  A    between atoms: N_19  and  C_20
REMARK    9  A    between atoms: C_20  and  C_21
REMARK                            x       y       z     vdW  Elec       q    Type
REMARK                         _______ _______ _______ _____ _____    ______ ____
ROOT
ATOM      1  C   UNL     1       2.250  -0.993  -6.303  0.00  0.00    +0.122 C 
ENDROOT
BRANCH   1   2
ATOM      2  N   UNL     1       2.952  -0.964  -5.018  0.00  0.00    -0.340 N 
ATOM      3  H   UNL     1       3.921  -1.011  -4.993  0.00  0.00    +0.146 HD
BRANCH   2   7
ATOM      4  C   UNL     1       0.789  -0.683  -1.471  0.00  0.00    +0.090 A 
ATOM      5  C   UNL     1       0.136  -0.587  -2.687  0.00  0.00    +0.029 A 
ATOM      6  C   UNL     1       0.851  -0.680  -3.865  0.00  0.00    +0.027 A 
ATOM      7  C   UNL     1       2.227  -0.870  -3.828  0.00  0.00    +0.058 A 
ATOM      8  C   UNL     1       2.879  -0.966  -2.606  0.00  0.00    +0.149 A 
ATOM      9  C   UNL     1       2.159  -0.867  -1.431  0.00  0.00    +0.061 A 
BRANCH   4  11
ATOM     10  C   UNL     1      -0.135   1.205   0.431  0.00  0.00    +0.200 C 
ATOM     11  S   UNL     1      -0.126  -0.564   0.030  0.00  0.00    -0.006 S 
ATOM     12  O   UNL     1       0.648  -1.278   0.984  0.00  0.00    -0.170 OA
ATOM     13  O   UNL     1      -1.437  -0.996  -0.309  0.00  0.00    -0.170 OA
ENDBRANCH   4  11
BRANCH   8  14
ATOM     14  N   UNL     1       4.344  -1.168  -2.562  0.00  0.00    +0.058 N 
ATOM     15  O   UNL     1       4.880  -1.884  -3.375  0.00  0.00    -0.126 OA
ATOM     16  O   UNL     1       5.005  -0.618  -1.712  0.00  0.00    -0.126 OA
ENDBRANCH   8  14
ENDBRANCH   2   7
ENDBRANCH   1   2
BRANCH   1  17
ATOM     17  C   UNL     1       3.270  -1.099  -7.439  0.00  0.00    +0.134 C 
BRANCH  17  18
ATOM     18  N   UNL     1       2.568  -1.127  -8.725  0.00  0.00    -0.356 N 
ATOM     19  C   UNL     1       3.282  -1.220  -9.896  0.00  0.00    +0.169 C 
ATOM     20  N   UNL     1       2.658  -1.246 -11.040  0.00  0.00    -0.355 N 
ATOM     21  N   UNL     1       4.655  -1.287  -9.861  0.00  0.00    -0.371 N 
ATOM     22  H   UNL     1       1.599  -1.081  -8.750  0.00  0.00    +0.162 HD
ATOM     23  H   UNL     1       5.120  -1.268  -9.009  0.00  0.00    +0.159 HD
ATOM     24  H   UNL     1       5.159  -1.353 -10.687  0.00  0.00    +0.159 HD
ATOM     25  H   UNL     1       1.689  -1.199 -11.065  0.00  0.00    +0.162 HD
BRANCH  20  26
ATOM     26  C   UNL     1       3.419  -1.345 -12.288  0.00  0.00    +0.147 C 
BRANCH  26  27
ATOM     27  C   UNL     1       2.453  -1.355 -13.474  0.00  0.00    +0.137 C 
ATOM     28  C   UNL     1       3.236  -1.495 -14.804  0.00  0.00    +0.035 C 
ATOM     29  C   UNL     1       2.150  -2.118 -15.722  0.00  0.00    +0.031 C 
ATOM     30  C   UNL     1       1.360  -3.007 -14.738  0.00  0.00    +0.160 C 
ATOM     31  O   UNL     1       1.602  -2.511 -13.415  0.00  0.00    -0.375 OA
ENDBRANCH  26  27
ENDBRANCH  20  26
ENDBRANCH  17  18
ENDBRANCH   1  17
TORSDOF 8
