REMARK  Name = ZINC46289883
REMARK  10 active torsions:
REMARK  status: ('A' for Active; 'I' for Inactive)
REMARK    1  A    between atoms: C_1  and  C_2
REMARK    2  A    between atoms: C_2  and  C_4
REMARK    3  A    between atoms: C_2  and  O_21
REMARK    4  A    between atoms: N_6  and  N_7
REMARK    5  A    between atoms: N_10  and  C_11
REMARK    6  A    between atoms: C_11  and  C_12
REMARK    7  A    between atoms: C_17  and  N_18
REMARK    8  A    between atoms: N_18  and  C_19
REMARK    9  A    between atoms: N_18  and  C_20
REMARK   10  A    between atoms: O_21  and  C_22
REMARK                            x       y       z     vdW  Elec       q    Type
REMARK                         _______ _______ _______ _____ _____    ______ ____
ROOT
ATOM      1  N   UNL     1      -5.208  -0.606  -0.938  0.00  0.00    -0.218 N 
ATOM      2  C   UNL     1      -5.694  -0.233  -2.139  0.00  0.00    +0.316 C 
ATOM      3  O   UNL     1      -6.876  -0.373  -2.387  0.00  0.00    -0.251 OA
ATOM      4  N   UNL     1      -4.868   0.294  -3.065  0.00  0.00    -0.294 N 
ATOM      5  H   UNL     1      -5.802  -0.985  -0.271  0.00  0.00    +0.174 HD
ATOM      6  H   UNL     1      -3.925   0.405  -2.867  0.00  0.00    +0.151 HD
ENDROOT
BRANCH   1   9
ATOM      7  C   UNL     1      -3.361  -0.818   0.549  0.00  0.00    +0.270 C 
ATOM      8  O   UNL     1      -4.104  -1.292   1.382  0.00  0.00    -0.270 OA
ATOM      9  N   UNL     1      -3.846  -0.445  -0.652  0.00  0.00    -0.230 N 
ATOM     10  H   UNL     1      -3.252  -0.066  -1.319  0.00  0.00    +0.173 HD
BRANCH   7  12
ATOM     11  C   UNL     1      -1.551   0.846   0.873  0.00  0.00    +0.062 C 
ATOM     12  C   UNL     1      -1.896  -0.644   0.856  0.00  0.00    +0.257 C 
BRANCH  12  13
ATOM     13  O   UNL     1      -1.607  -1.215   2.134  0.00  0.00    -0.480 OA
BRANCH  13  14
ATOM     14  C   UNL     1      -0.332  -1.635   2.348  0.00  0.00    +0.122 A 
ATOM     15  C   UNL     1      -0.007  -2.296   3.524  0.00  0.00    +0.048 A 
ATOM     16  C   UNL     1       1.289  -2.723   3.740  0.00  0.00    +0.042 A 
ATOM     17  C   UNL     1       2.264  -2.490   2.784  0.00  0.00    +0.124 A 
ATOM     18  C   UNL     1       1.941  -1.830   1.611  0.00  0.00    +0.042 A 
ATOM     19  C   UNL     1       0.644  -1.408   1.389  0.00  0.00    +0.048 A 
ATOM     20  F   UNL     1       3.531  -2.908   2.997  0.00  0.00    -0.205 F 
ENDBRANCH  13  14
ENDBRANCH  12  13
ENDBRANCH   7  12
ENDBRANCH   1   9
BRANCH   4  21
ATOM     21  C   UNL     1      -5.396   0.699  -4.370  0.00  0.00    +0.144 C 
BRANCH  21  22
ATOM     22  C   UNL     1      -4.277   1.253  -5.214  0.00  0.00    +0.008 A 
ATOM     23  C   UNL     1      -4.109   2.619  -5.347  0.00  0.00    +0.010 A 
ATOM     24  C   UNL     1      -3.065   3.086  -6.135  0.00  0.00    +0.018 A 
ATOM     25  C   UNL     1      -2.231   2.179  -6.757  0.00  0.00    +0.084 A 
ATOM     26  N   UNL     1      -2.414   0.880  -6.613  0.00  0.00    -0.349 N 
ATOM     27  C   UNL     1      -3.395   0.397  -5.866  0.00  0.00    +0.103 A 
ATOM     28  H   UNL     1      -1.814   0.265  -7.062  0.00  0.00    +0.167 HD
BRANCH  27  29
ATOM     29  N   UNL     1      -3.548  -0.979  -5.736  0.00  0.00    -0.323 N 
ATOM     30  C   UNL     1      -4.476  -1.698  -6.612  0.00  0.00    +0.130 C 
ATOM     31  C   UNL     1      -2.781  -1.709  -4.724  0.00  0.00    +0.130 C 
ENDBRANCH  27  29
ENDBRANCH  21  22
ENDBRANCH   4  21
TORSDOF 7
