REMARK  Name = ZINC65742873
REMARK  9 active torsions:
REMARK  status: ('A' for Active; 'I' for Inactive)
REMARK    1  A    between atoms: C_1  and  C_2
REMARK    2  A    between atoms: C_13  and  O_33
REMARK    3  A    between atoms: C_17  and  C_32
REMARK    4  A    between atoms: C_19  and  O_30
REMARK    5  A    between atoms: C_22  and  C_29
REMARK    6  A    between atoms: C_23  and  C_24
REMARK    7  A    between atoms: C_23  and  O_28
REMARK    8  A    between atoms: C_24  and  C_26
REMARK    9  A    between atoms: C_26  and  O_27
REMARK                            x       y       z     vdW  Elec       q    Type
REMARK                         _______ _______ _______ _____ _____    ______ ____
ROOT
ATOM      1  C   UNL     1       1.709   1.273   1.567  0.00  0.00    +0.011 C 
ATOM      2  C   UNL     1       1.345  -0.145   1.122  0.00  0.00    +0.026 C 
ATOM      3  C   UNL     1       0.003  -0.130   0.340  0.00  0.00    +0.011 C 
ATOM      4  C   UNL     1      -1.028  -0.471   1.421  0.00  0.00    +0.005 C 
ATOM      5  C   UNL     1      -2.345  -1.036   0.923  0.00  0.00    +0.034 C 
ATOM      6  C   UNL     1      -3.061  -0.001   0.053  0.00  0.00    +0.011 C 
ATOM      7  C   UNL     1      -4.367  -0.595  -0.482  0.00  0.00    +0.032 C 
ATOM      8  C   UNL     1      -5.189  -1.071   0.702  0.00  0.00    -0.058 C 
ATOM      9  C   UNL     1      -6.422  -0.683   0.812  0.00  0.00    +0.008 C 
ATOM     10  C   UNL     1      -7.332  -1.064   1.934  0.00  0.00    +0.160 C 
ATOM     11  C   UNL     1      -6.629  -1.875   2.975  0.00  0.00    +0.005 C 
ATOM     12  C   UNL     1      -5.402  -2.272   2.868  0.00  0.00    -0.014 C 
ATOM     13  C   UNL     1      -4.525  -1.982   1.696  0.00  0.00    +0.044 C 
ATOM     14  C   UNL     1      -3.196  -1.377   2.156  0.00  0.00    +0.153 C 
ATOM     15  C   UNL     1      -2.475  -2.349   3.086  0.00  0.00    +0.154 C 
ATOM     16  C   UNL     1      -1.083  -1.831   3.481  0.00  0.00    +0.044 C 
ATOM     17  C   UNL     1      -0.299  -1.591   2.210  0.00  0.00    +0.010 C 
ATOM     18  C   UNL     1       1.120  -1.049   2.360  0.00  0.00    +0.134 C 
ATOM     19  C   UNL     1      -0.282  -2.880   1.386  0.00  0.00    +0.015 C 
ATOM     20  F   UNL     1      -3.468  -0.203   2.867  0.00  0.00    -0.238 F 
ATOM     21  C   UNL     1      -4.200  -3.304   0.997  0.00  0.00    +0.023 C 
ENDROOT
BRANCH  18  22
ATOM     22  C   UNL     1       2.115  -2.181   2.366  0.00  0.00    +0.190 C 
ATOM     23  O   UNL     1       2.542  -2.616   1.324  0.00  0.00    -0.292 OA
BRANCH  22  24
ATOM     24  C   UNL     1       2.577  -2.771   3.674  0.00  0.00    +0.233 C 
BRANCH  24  25
ATOM     25  O   UNL     1       3.511  -3.821   3.419  0.00  0.00    -0.387 OA
ATOM     26  H   UNL     1       3.851  -4.247   4.218  0.00  0.00    +0.210 HD
ENDBRANCH  24  25
ENDBRANCH  22  24
ENDBRANCH  18  22
BRANCH  18  27
ATOM     27  O   UNL     1       1.234  -0.282   3.560  0.00  0.00    -0.380 OA
ATOM     28  H   UNL     1       2.103   0.122   3.688  0.00  0.00    +0.211 HD
ENDBRANCH  18  27
BRANCH  15  29
ATOM     29  O   UNL     1      -2.332  -3.607   2.425  0.00  0.00    -0.389 OA
ATOM     30  H   UNL     1      -1.882  -4.280   2.954  0.00  0.00    +0.210 HD
ENDBRANCH  15  29
BRANCH  10  31
ATOM     31  O   UNL     1      -8.422  -1.826   1.410  0.00  0.00    -0.384 OA
ATOM     32  H   UNL     1      -9.059  -2.111   2.079  0.00  0.00    +0.211 HD
ENDBRANCH  10  31
TORSDOF 6
