REMARK  Name = ZINC13527173
REMARK  8 active torsions:
REMARK  status: ('A' for Active; 'I' for Inactive)
REMARK    1  A    between atoms: C_1  and  C_2
REMARK    2  A    between atoms: C_5  and  C_8
REMARK    3  A    between atoms: C_21  and  C_22
REMARK    4  A    between atoms: C_22  and  O_24
REMARK    5  A    between atoms: O_24  and  C_25
REMARK    6  A    between atoms: C_25  and  C_26
REMARK    7  A    between atoms: N_31  and  C_32
REMARK    8  A    between atoms: C_32  and  C_33
REMARK                            x       y       z     vdW  Elec       q    Type
REMARK                         _______ _______ _______ _____ _____    ______ ____
ROOT
ATOM      1  C   UNL     1       6.188  -2.290  -0.067  0.00  0.00    +0.013 C 
ATOM      2  C   UNL     1       4.947  -2.739  -0.321  0.00  0.00    -0.021 C 
ATOM      3  C   UNL     1       4.575  -4.159  -0.668  0.00  0.00    +0.042 C 
ATOM      4  C   UNL     1       3.053  -4.150  -0.861  0.00  0.00    +0.043 C 
ATOM      5  C   UNL     1       2.603  -2.731  -0.618  0.00  0.00    -0.007 A 
ATOM      6  C   UNL     1       3.713  -1.928  -0.307  0.00  0.00    +0.072 A 
ATOM      7  N   UNL     1       3.573  -0.631  -0.051  0.00  0.00    -0.247 NA
ATOM      8  C   UNL     1       2.395  -0.014  -0.070  0.00  0.00    +0.072 A 
ATOM      9  C   UNL     1       2.291   1.363   0.208  0.00  0.00    +0.028 A 
ATOM     10  C   UNL     1       1.072   1.967   0.181  0.00  0.00    +0.002 A 
ATOM     11  C   UNL     1      -0.082   1.246  -0.118  0.00  0.00    +0.001 A 
ATOM     12  C   UNL     1      -0.020  -0.088  -0.393  0.00  0.00    +0.011 A 
ATOM     13  C   UNL     1       1.216  -0.741  -0.374  0.00  0.00    +0.015 A 
ATOM     14  C   UNL     1       1.334  -2.171  -0.661  0.00  0.00    +0.073 A 
ENDROOT
BRANCH   1  19
ATOM     15  C   UNL     1      10.567  -5.997   0.311  0.00  0.00    +0.044 C 
ATOM     16  C   UNL     1       9.419  -5.026   0.212  0.00  0.00    -0.050 A 
ATOM     17  C   UNL     1       9.610  -3.794  -0.389  0.00  0.00    +0.004 A 
ATOM     18  C   UNL     1       8.564  -2.899  -0.483  0.00  0.00    +0.008 A 
ATOM     19  C   UNL     1       7.310  -3.240   0.030  0.00  0.00    -0.025 A 
ATOM     20  C   UNL     1       7.126  -4.484   0.640  0.00  0.00    +0.008 A 
ATOM     21  C   UNL     1       8.180  -5.370   0.723  0.00  0.00    +0.004 A 
ENDBRANCH   1  19
BRANCH  14  22
ATOM     22  C   UNL     1       0.147  -2.988  -0.986  0.00  0.00    +0.341 C 
ATOM     23  O   UNL     1      -0.211  -3.108  -2.141  0.00  0.00    -0.245 OA
BRANCH  22  24
ATOM     24  O   UNL     1      -0.539  -3.600  -0.002  0.00  0.00    -0.452 OA
BRANCH  24  25
ATOM     25  C   UNL     1      -1.695  -4.386  -0.394  0.00  0.00    +0.328 C 
BRANCH  25  26
ATOM     26  C   UNL     1      -2.331  -4.990   0.831  0.00  0.00    +0.258 C 
ATOM     27  O   UNL     1      -1.857  -4.780   1.927  0.00  0.00    -0.272 OA
ATOM     28  N   UNL     1      -3.427  -5.766   0.709  0.00  0.00    -0.237 N 
ATOM     29  C   UNL     1      -3.996  -6.306   1.805  0.00  0.00    +0.306 C 
ATOM     30  O   UNL     1      -3.520  -6.095   2.903  0.00  0.00    -0.252 OA
ATOM     31  N   UNL     1      -5.091  -7.081   1.683  0.00  0.00    -0.292 N 
ATOM     32  H   UNL     1      -3.806  -5.934  -0.168  0.00  0.00    +0.159 HD
ATOM     33  H   UNL     1      -5.471  -7.250   0.806  0.00  0.00    +0.151 HD
BRANCH  31  34
ATOM     34  C   UNL     1      -5.710  -7.669   2.874  0.00  0.00    +0.180 C 
BRANCH  34  35
ATOM     35  C   UNL     1      -6.909  -8.485   2.467  0.00  0.00    +0.122 A 
ATOM     36  C   UNL     1      -6.901  -9.792   2.149  0.00  0.00    +0.046 A 
ATOM     37  C   UNL     1      -8.232 -10.146   1.832  0.00  0.00    +0.041 A 
ATOM     38  C   UNL     1      -8.975  -9.033   1.975  0.00  0.00    +0.195 A 
ATOM     39  O   UNL     1      -8.169  -8.032   2.365  0.00  0.00    -0.466 OA
ENDBRANCH  34  35
ENDBRANCH  31  34
ENDBRANCH  25  26
ENDBRANCH  24  25
ENDBRANCH  22  24
ENDBRANCH  14  22
TORSDOF 7
