REMARK  Name = ZINC04161159
REMARK  12 active torsions:
REMARK  status: ('A' for Active; 'I' for Inactive)
REMARK    1  A    between atoms: C_1  and  C_2
REMARK    2  A    between atoms: C_2  and  C_3
REMARK    3  A    between atoms: C_3  and  C_5
REMARK    4  A    between atoms: C_3  and  N_12
REMARK    5  A    between atoms: N_7  and  C_8
REMARK    6  A    between atoms: C_8  and  C_9
REMARK    7  A    between atoms: C_8  and  C_10
REMARK    8  A    between atoms: C_8  and  C_11
REMARK    9  A    between atoms: N_12  and  C_13
REMARK   10  A    between atoms: C_19  and  C_21
REMARK   11  A    between atoms: C_22  and  N_29
REMARK   12  A    between atoms: C_23  and  C_26
REMARK                            x       y       z     vdW  Elec       q    Type
REMARK                         _______ _______ _______ _____ _____    ______ ____
ROOT
ATOM      1  N   UNL     1       2.026   3.931  -0.221  0.00  0.00    -0.255 N 
ATOM      2  C   UNL     1       3.091   3.139   0.013  0.00  0.00    +0.261 C 
ATOM      3  O   UNL     1       4.193   3.632   0.169  0.00  0.00    -0.269 OA
ENDROOT
BRANCH   1   4
ATOM      4  C   UNL     1       0.743   3.376  -0.285  0.00  0.00    +0.037 A 
ATOM      5  C   UNL     1      -0.118   3.490   0.798  0.00  0.00    +0.023 A 
ATOM      6  C   UNL     1      -1.385   2.942   0.732  0.00  0.00    +0.002 A 
ATOM      7  C   UNL     1      -1.792   2.276  -0.410  0.00  0.00    +0.000 A 
ATOM      8  C   UNL     1      -0.938   2.166  -1.492  0.00  0.00    +0.002 A 
ATOM      9  C   UNL     1       0.329   2.712  -1.432  0.00  0.00    +0.023 A 
ENDBRANCH   1   4
BRANCH   2  10
ATOM     10  C   UNL     1       2.923   1.686   0.079  0.00  0.00    +0.116 A 
ATOM     11  C   UNL     1       3.892   0.687   0.190  0.00  0.00    +0.076 A 
ATOM     12  C   UNL     1       3.338  -0.593   0.225  0.00  0.00    +0.155 A 
ATOM     13  N   UNL     1       2.033  -0.731   0.154  0.00  0.00    -0.203 NA
ATOM     14  S   UNL     1       1.427   0.720   0.048  0.00  0.00    +0.019 S 
BRANCH  12  15
ATOM     15  C   UNL     1       4.208  -1.778   0.340  0.00  0.00    +0.262 C 
ATOM     16  O   UNL     1       5.415  -1.643   0.404  0.00  0.00    -0.269 OA
ATOM     17  N   UNL     1       3.665  -3.011   0.372  0.00  0.00    -0.324 N 
ATOM     18  H   UNL     1       2.703  -3.119   0.321  0.00  0.00    +0.145 HD
ATOM     19  H   UNL     1       4.237  -3.791   0.448  0.00  0.00    +0.145 HD
ENDBRANCH  12  15
BRANCH  11  20
ATOM     20  N   UNL     1       5.256   0.940   0.259  0.00  0.00    -0.355 N 
ATOM     21  H   UNL     1       5.582   1.853   0.230  0.00  0.00    +0.142 HD
ATOM     22  H   UNL     1       5.882   0.203   0.335  0.00  0.00    +0.142 HD
ENDBRANCH  11  20
ENDBRANCH   2  10
BRANCH   1  23
ATOM     23  C   UNL     1       2.211   5.372  -0.408  0.00  0.00    +0.167 C 
BRANCH  23  24
ATOM     24  C   UNL     1       1.806   5.753  -1.809  0.00  0.00    +0.234 C 
ATOM     25  O   UNL     1       1.402   4.904  -2.575  0.00  0.00    -0.274 OA
ATOM     26  N   UNL     1       1.892   7.036  -2.210  0.00  0.00    -0.309 N 
ATOM     27  H   UNL     1       2.215   7.715  -1.597  0.00  0.00    +0.149 HD
BRANCH  26  28
ATOM     28  C   UNL     1       1.498   7.407  -3.571  0.00  0.00    +0.026 C 
ATOM     29  C   UNL     1       0.027   7.049  -3.792  0.00  0.00    +0.031 C 
ATOM     30  C   UNL     1       1.692   8.912  -3.767  0.00  0.00    +0.031 C 
ATOM     31  C   UNL     1       2.364   6.646  -4.577  0.00  0.00    +0.031 C 
ENDBRANCH  26  28
ENDBRANCH  23  24
BRANCH  23  33
ATOM     32  C   UNL     1       1.853   5.861   2.016  0.00  0.00    +0.006 C 
ATOM     33  C   UNL     1       1.345   6.132   0.598  0.00  0.00    +0.029 C 
ENDBRANCH  23  33
ENDBRANCH   1  23
TORSDOF 8
