REMARK  Name = ZINC44010643
REMARK  9 active torsions:
REMARK  status: ('A' for Active; 'I' for Inactive)
REMARK    1  A    between atoms: C_1  and  C_2
REMARK    2  A    between atoms: C_2  and  C_4
REMARK    3  A    between atoms: C_2  and  N_17
REMARK    4  A    between atoms: C_7  and  N_10
REMARK    5  A    between atoms: N_13  and  C_14
REMARK    6  A    between atoms: C_18  and  C_19
REMARK    7  A    between atoms: C_23  and  O_26
REMARK    8  A    between atoms: C_24  and  O_25
REMARK    9  A    between atoms: O_26  and  C_27
REMARK                            x       y       z     vdW  Elec       q    Type
REMARK                         _______ _______ _______ _____ _____    ______ ____
ROOT
ATOM      1  C   UNL     1       0.014   1.510  -0.316  0.00  0.00    +0.035 C 
ATOM      2  C   UNL     1       0.197  -0.006  -0.223  0.00  0.00    +0.106 C 
ENDROOT
BRANCH   2   3
ATOM      3  C   UNL     1       1.049  -0.481  -1.372  0.00  0.00    -0.025 A 
ATOM      4  C   UNL     1       0.486  -0.654  -2.623  0.00  0.00    +0.007 A 
ATOM      5  C   UNL     1       1.264  -1.089  -3.678  0.00  0.00    +0.024 A 
ATOM      6  C   UNL     1       2.614  -1.352  -3.481  0.00  0.00    +0.035 A 
ATOM      7  C   UNL     1       3.176  -1.177  -2.224  0.00  0.00    +0.024 A 
ATOM      8  C   UNL     1       2.394  -0.736  -1.174  0.00  0.00    +0.007 A 
BRANCH   6   9
ATOM      9  N   UNL     1       3.405  -1.792  -4.548  0.00  0.00    -0.269 N 
ATOM     10  C   UNL     1       3.152  -1.359  -5.799  0.00  0.00    +0.304 C 
ATOM     11  O   UNL     1       2.297  -0.516  -5.989  0.00  0.00    -0.253 OA
ATOM     12  N   UNL     1       3.846  -1.861  -6.840  0.00  0.00    -0.296 N 
ATOM     13  H   UNL     1       4.136  -2.410  -4.387  0.00  0.00    +0.156 HD
ATOM     14  H   UNL     1       4.528  -2.534  -6.688  0.00  0.00    +0.151 HD
BRANCH  12  15
ATOM     15  C   UNL     1       3.571  -1.391  -8.199  0.00  0.00    +0.075 C 
ATOM     16  C   UNL     1       3.487  -2.442  -9.307  0.00  0.00    +0.024 C 
ATOM     17  C   UNL     1       4.696  -1.508  -9.229  0.00  0.00    +0.024 C 
ENDBRANCH  12  15
ENDBRANCH   6   9
ENDBRANCH   2   3
BRANCH   2  18
ATOM     18  N   UNL     1      -1.112  -0.661  -0.283  0.00  0.00    -0.383 N 
ATOM     19  C   UNL     1      -1.512  -1.400   0.701  0.00  0.00    +0.090 C 
ATOM     20  H   UNL     1      -1.679  -0.540  -1.061  0.00  0.00    +0.160 HD
BRANCH  19  21
ATOM     21  C   UNL     1      -2.773  -2.155   0.591  0.00  0.00    +0.036 A 
ATOM     22  C   UNL     1      -3.151  -3.043   1.602  0.00  0.00    +0.013 A 
ATOM     23  C   UNL     1      -4.330  -3.747   1.496  0.00  0.00    +0.004 A 
ATOM     24  C   UNL     1      -5.147  -3.580   0.390  0.00  0.00    +0.049 A 
ATOM     25  C   UNL     1      -4.787  -2.704  -0.620  0.00  0.00    +0.162 A 
ATOM     26  C   UNL     1      -3.602  -1.982  -0.524  0.00  0.00    +0.167 A 
BRANCH  26  27
ATOM     27  O   UNL     1      -3.247  -1.117  -1.510  0.00  0.00    -0.503 OA
ATOM     28  H   UNL     1      -2.718  -1.518  -2.213  0.00  0.00    +0.292 HD
ENDBRANCH  26  27
BRANCH  25  29
ATOM     29  O   UNL     1      -5.594  -2.545  -1.703  0.00  0.00    -0.491 OA
ATOM     30  C   UNL     1      -6.798  -3.314  -1.733  0.00  0.00    +0.277 C 
ENDBRANCH  25  29
ENDBRANCH  19  21
ENDBRANCH   2  18
TORSDOF 7
