REMARK  Name = ZINC23859479
REMARK  10 active torsions:
REMARK  status: ('A' for Active; 'I' for Inactive)
REMARK    1  A    between atoms: C_1  and  C_2
REMARK    2  A    between atoms: C_5  and  N_11
REMARK    3  A    between atoms: C_6  and  N_8
REMARK    4  A    between atoms: C_12  and  C_14
REMARK    5  A    between atoms: N_16  and  C_17
REMARK    6  A    between atoms: C_17  and  C_18
REMARK    7  A    between atoms: C_18  and  C_20
REMARK    8  A    between atoms: C_18  and  N_31
REMARK    9  A    between atoms: N_29  and  C_30
REMARK   10  A    between atoms: N_34  and  C_37
REMARK                            x       y       z     vdW  Elec       q    Type
REMARK                         _______ _______ _______ _____ _____    ______ ____
ROOT
ATOM      1  C   UNL     1       2.585  -1.829   4.617  0.00  0.00    +0.104 C 
ENDROOT
BRANCH   1   2
ATOM      2  C   UNL     1       1.890  -0.998   3.570  0.00  0.00    -0.028 A 
ATOM      3  C   UNL     1       0.788  -1.503   2.903  0.00  0.00    +0.007 A 
ATOM      4  C   UNL     1       0.156  -0.743   1.944  0.00  0.00    +0.024 A 
ATOM      5  C   UNL     1       0.620   0.538   1.638  0.00  0.00    +0.033 A 
ATOM      6  C   UNL     1       1.720   1.041   2.312  0.00  0.00    -0.026 A 
ATOM      7  C   UNL     1       2.352   0.269   3.273  0.00  0.00    +0.010 A 
ATOM      8  C   UNL     1       2.260   2.422   2.041  0.00  0.00    +0.038 C 
ATOM      9  C   UNL     1       1.692   2.948   0.721  0.00  0.00    +0.024 C 
ATOM     10  C   UNL     1       0.178   2.698   0.725  0.00  0.00    +0.105 C 
ATOM     11  N   UNL     1      -0.058   1.254   0.653  0.00  0.00    -0.333 N 
ATOM     12  C   UNL     1      -1.496   0.955   0.681  0.00  0.00    +0.129 C 
ENDBRANCH   1   2
BRANCH   1  13
ATOM     13  N   UNL     1       3.206  -2.999   3.982  0.00  0.00    -0.297 NA
ATOM     14  C   UNL     1       3.760  -2.651   2.666  0.00  0.00    +0.066 C 
ATOM     15  C   UNL     1       4.466  -3.873   2.074  0.00  0.00    -0.064 C 
ATOM     16  N   UNL     1       3.509  -4.983   1.963  0.00  0.00    +0.379 N 
ATOM     17  C   UNL     1       2.956  -5.330   3.279  0.00  0.00    -0.064 C 
ATOM     18  C   UNL     1       2.249  -4.109   3.872  0.00  0.00    +0.066 C 
ATOM     19  C   UNL     1       4.131  -6.153   1.328  0.00  0.00    -0.096 C 
ATOM     20  H   UNL     1       2.679  -4.653   1.322  0.00  0.00    -0.082 HD
ENDBRANCH   1  13
BRANCH   1  21
ATOM     21  C   UNL     1       1.564  -2.296   5.657  0.00  0.00    +0.128 C 
BRANCH  21  24
ATOM     22  C   UNL     1       1.525  -3.689   7.656  0.00  0.00    +0.299 C 
ATOM     23  O   UNL     1       0.318  -3.568   7.681  0.00  0.00    -0.265 OA
ATOM     24  N   UNL     1       2.242  -3.091   6.684  0.00  0.00    -0.306 N 
ATOM     25  H   UNL     1       3.336  -3.201   6.662  0.00  0.00    +0.149 HD
BRANCH  22  27
ATOM     26  N   UNL     1       1.499  -5.097   9.675  0.00  0.00    -0.276 N 
ATOM     27  C   UNL     1       2.216  -4.500   8.703  0.00  0.00    +0.303 C 
ATOM     28  O   UNL     1       3.423  -4.621   8.678  0.00  0.00    -0.265 OA
ATOM     29  H   UNL     1       0.400  -5.047   9.658  0.00  0.00    +0.155 HD
BRANCH  26  34
ATOM     30  C   UNL     1       4.146  -7.872  13.853  0.00  0.00    +0.044 C 
ATOM     31  C   UNL     1       3.443  -7.135  12.743  0.00  0.00    -0.048 A 
ATOM     32  C   UNL     1       3.875  -7.279  11.437  0.00  0.00    +0.005 A 
ATOM     33  C   UNL     1       3.232  -6.605  10.417  0.00  0.00    +0.026 A 
ATOM     34  C   UNL     1       2.151  -5.781  10.704  0.00  0.00    +0.064 A 
ATOM     35  C   UNL     1       1.723  -5.635  12.018  0.00  0.00    +0.148 A 
ATOM     36  C   UNL     1       2.366  -6.316  13.032  0.00  0.00    +0.038 A 
BRANCH  35  37
ATOM     37  N   UNL     1       0.574  -4.755  12.329  0.00  0.00    +0.058 N 
ATOM     38  O   UNL     1       0.217  -4.605  13.484  0.00  0.00    -0.126 OA
ATOM     39  O   UNL     1      -0.013  -4.179  11.430  0.00  0.00    -0.126 OA
ENDBRANCH  35  37
ENDBRANCH  26  34
ENDBRANCH  22  27
ENDBRANCH  21  24
ENDBRANCH   1  21
TORSDOF 7
