REMARK  Name = ZINC02447324
REMARK  7 active torsions:
REMARK  status: ('A' for Active; 'I' for Inactive)
REMARK    1  A    between atoms: C_1  and  C_2
REMARK    2  A    between atoms: C_2  and  N_3
REMARK    3  A    between atoms: C_9  and  N_14
REMARK    4  A    between atoms: C_10  and  C_11
REMARK    5  A    between atoms: N_14  and  C_15
REMARK    6  A    between atoms: C_15  and  N_17
REMARK    7  A    between atoms: C_18  and  C_20
REMARK                            x       y       z     vdW  Elec       q    Type
REMARK                         _______ _______ _______ _____ _____    ______ ____
ROOT
ATOM      1  N   UNL     1       0.713  -0.491   1.192  0.00  0.00    +0.383 N 
ATOM      2  C   UNL     1       0.841  -1.952   1.122  0.00  0.00    -0.074 C 
ATOM      3  C   UNL     1       1.837  -2.447   2.176  0.00  0.00    +0.018 C 
ATOM      4  C   UNL     1       1.421  -1.867   3.520  0.00  0.00    -0.027 A 
ATOM      5  C   UNL     1       0.569  -0.818   3.574  0.00  0.00    -0.021 A 
ATOM      6  S   UNL     1       0.370  -0.491   5.299  0.00  0.00    -0.079 S 
ATOM      7  C   UNL     1       1.369  -1.683   5.933  0.00  0.00    +0.084 A 
ATOM      8  C   UNL     1       1.862  -2.343   4.816  0.00  0.00    +0.068 A 
ATOM      9  C   UNL     1      -0.043  -0.117   2.402  0.00  0.00    -0.035 C 
ATOM     10  H   UNL     1       1.631  -0.075   1.228  0.00  0.00    -0.081 HD
ENDROOT
BRANCH   8  11
ATOM     11  C   UNL     1       2.788  -3.472   4.942  0.00  0.00    +0.244 C 
ATOM     12  O   UNL     1       3.989  -3.275   4.961  0.00  0.00    -0.270 OA
ATOM     13  N   UNL     1       2.310  -4.729   5.036  0.00  0.00    -0.325 N 
ATOM     14  H   UNL     1       1.353  -4.886   5.021  0.00  0.00    +0.145 HD
ATOM     15  H   UNL     1       2.923  -5.476   5.119  0.00  0.00    +0.145 HD
ENDBRANCH   8  11
BRANCH   1  17
ATOM     16  C   UNL     1      -0.019   1.526   0.010  0.00  0.00    -0.017 C 
ATOM     17  C   UNL     1       0.002  -0.004   0.002  0.00  0.00    -0.082 C 
ENDBRANCH   1  17
BRANCH   7  18
ATOM     18  N   UNL     1       1.639  -1.947   7.266  0.00  0.00    -0.291 N 
ATOM     19  H   UNL     1       2.240  -2.671   7.506  0.00  0.00    +0.154 HD
BRANCH  18  20
ATOM     20  C   UNL     1       1.068  -1.199   8.231  0.00  0.00    +0.142 C 
ATOM     21  S   UNL     1       0.009   0.078   7.809  0.00  0.00    -0.018 S 
BRANCH  20  22
ATOM     22  N   UNL     1       1.331  -1.456   9.528  0.00  0.00    -0.261 N 
ATOM     23  C   UNL     1       0.760  -0.707  10.492  0.00  0.00    +0.285 C 
ATOM     24  O   UNL     1       0.007   0.200  10.192  0.00  0.00    -0.266 OA
ATOM     25  H   UNL     1       1.931  -2.179   9.767  0.00  0.00    +0.157 HD
BRANCH  23  26
ATOM     26  C   UNL     1       1.046  -0.986  11.902  0.00  0.00    +0.189 A 
ATOM     27  C   UNL     1       0.532  -0.312  12.974  0.00  0.00    +0.054 A 
ATOM     28  C   UNL     1       1.071  -0.912  14.123  0.00  0.00    +0.042 A 
ATOM     29  C   UNL     1       1.879  -1.913  13.707  0.00  0.00    +0.196 A 
ATOM     30  O   UNL     1       1.857  -1.958  12.369  0.00  0.00    -0.458 OA
ENDBRANCH  23  26
ENDBRANCH  20  22
ENDBRANCH  18  20
ENDBRANCH   7  18
TORSDOF 6
