REMARK  Name = ZINC09434330
REMARK  8 active torsions:
REMARK  status: ('A' for Active; 'I' for Inactive)
REMARK    1  A    between atoms: C_1  and  N_2
REMARK    2  A    between atoms: C_4  and  C_11
REMARK    3  A    between atoms: C_13  and  C_28
REMARK    4  A    between atoms: N_23  and  C_24
REMARK    5  A    between atoms: C_24  and  C_25
REMARK    6  A    between atoms: C_25  and  O_26
REMARK    7  A    between atoms: O_26  and  C_27
REMARK    8  A    between atoms: N_33  and  C_36
REMARK                            x       y       z     vdW  Elec       q    Type
REMARK                         _______ _______ _______ _____ _____    ______ ____
ROOT
ATOM      1  C   UNL     1      -3.973   1.585   0.964  0.00  0.00    +0.125 C 
ATOM      2  C   UNL     1      -2.894   0.970   0.076  0.00  0.00    +0.131 C 
ATOM      3  C   UNL     1      -1.664   1.839   0.074  0.00  0.00    -0.021 A 
ATOM      4  C   UNL     1      -0.409   1.281  -0.042  0.00  0.00    +0.005 A 
ATOM      5  C   UNL     1       0.710   2.095  -0.073  0.00  0.00    +0.000 A 
ATOM      6  C   UNL     1       0.578   3.470   0.015  0.00  0.00    +0.001 A 
ATOM      7  C   UNL     1      -0.673   4.040   0.143  0.00  0.00    +0.013 A 
ATOM      8  C   UNL     1      -1.801   3.224   0.187  0.00  0.00    +0.041 A 
ATOM      9  C   UNL     1      -3.155   3.800   0.331  0.00  0.00    +0.247 C 
ATOM     10  O   UNL     1      -3.332   4.993   0.184  0.00  0.00    -0.270 OA
ATOM     11  N   UNL     1      -4.189   2.990   0.626  0.00  0.00    -0.287 N 
ENDROOT
BRANCH   1  15
ATOM     12  C   UNL     1      -2.182   2.798   5.501  0.00  0.00    +0.149 C 
ATOM     13  N   UNL     1      -2.756   2.002   4.414  0.00  0.00    -0.349 N 
ATOM     14  C   UNL     1      -3.017   2.464   3.153  0.00  0.00    +0.092 A 
ATOM     15  C   UNL     1      -3.544   1.482   2.405  0.00  0.00    -0.001 A 
ATOM     16  C   UNL     1      -3.618   0.290   3.253  0.00  0.00    +0.005 A 
ATOM     17  C   UNL     1      -3.109   0.674   4.508  0.00  0.00    +0.049 A 
ATOM     18  C   UNL     1      -3.051  -0.262   5.535  0.00  0.00    +0.026 A 
ATOM     19  C   UNL     1      -3.492  -1.549   5.314  0.00  0.00    +0.002 A 
ATOM     20  C   UNL     1      -3.994  -1.922   4.075  0.00  0.00    +0.001 A 
ATOM     21  C   UNL     1      -4.059  -1.019   3.051  0.00  0.00    +0.010 A 
ENDBRANCH   1  15
BRANCH   2  22
ATOM     22  C   UNL     1      -3.415   0.849  -1.333  0.00  0.00    +0.225 C 
ATOM     23  O   UNL     1      -3.494   1.833  -2.037  0.00  0.00    -0.275 OA
ATOM     24  N   UNL     1      -3.794  -0.354  -1.810  0.00  0.00    -0.298 N 
ATOM     25  C   UNL     1      -3.598  -1.577  -1.016  0.00  0.00    +0.126 C 
ATOM     26  C   UNL     1      -4.934  -2.334  -0.961  0.00  0.00    +0.125 C 
ATOM     27  N   UNL     1      -5.424  -2.553  -2.328  0.00  0.00    -0.314 N 
ATOM     28  C   UNL     1      -5.707  -1.280  -3.003  0.00  0.00    +0.125 C 
ATOM     29  C   UNL     1      -4.409  -0.479  -3.140  0.00  0.00    +0.126 C 
BRANCH  27  30
ATOM     30  C   UNL     1      -6.544  -3.378  -2.330  0.00  0.00    +0.099 A 
ATOM     31  C   UNL     1      -6.474  -4.636  -1.740  0.00  0.00    +0.042 A 
ATOM     32  C   UNL     1      -7.597  -5.443  -1.744  0.00  0.00    +0.005 A 
ATOM     33  C   UNL     1      -8.753  -4.968  -2.350  0.00  0.00    +0.018 A 
ATOM     34  C   UNL     1      -8.749  -3.712  -2.921  0.00  0.00    +0.084 A 
ATOM     35  N   UNL     1      -7.667  -2.889  -2.931  0.00  0.00    -0.350 N 
ATOM     36  H   UNL     1      -7.693  -1.958  -3.364  0.00  0.00    +0.166 HD
ENDBRANCH  27  30
ENDBRANCH   2  22
BRANCH  11  37
ATOM     37  C   UNL     1      -5.553   3.525   0.607  0.00  0.00    +0.137 C 
BRANCH  37  38
ATOM     38  C   UNL     1      -6.095   3.490  -0.823  0.00  0.00    +0.178 C 
BRANCH  38  39
ATOM     39  O   UNL     1      -6.237   2.133  -1.246  0.00  0.00    -0.381 OA
ATOM     40  C   UNL     1      -6.740   1.988  -2.575  0.00  0.00    +0.194 C 
ENDBRANCH  38  39
ENDBRANCH  37  38
ENDBRANCH  11  37
TORSDOF 6
