REMARK  Name = ZINC38546760
REMARK  12 active torsions:
REMARK  status: ('A' for Active; 'I' for Inactive)
REMARK    1  A    between atoms: C_1  and  C_2
REMARK    2  A    between atoms: C_3  and  C_34
REMARK    3  A    between atoms: C_5  and  N_26
REMARK    4  A    between atoms: C_6  and  C_7
REMARK    5  A    between atoms: C_7  and  C_9
REMARK    6  A    between atoms: C_7  and  N_19
REMARK    7  A    between atoms: C_12  and  O_17
REMARK    8  A    between atoms: C_13  and  O_15
REMARK    9  A    between atoms: O_15  and  C_16
REMARK   10  A    between atoms: O_17  and  C_18
REMARK   11  A    between atoms: N_22  and  C_25
REMARK   12  A    between atoms: C_27  and  C_29
REMARK                            x       y       z     vdW  Elec       q    Type
REMARK                         _______ _______ _______ _____ _____    ______ ____
ROOT
ATOM      1  C   UNL     1       0.460   0.060   2.369  0.00  0.00    +0.120 C 
ENDROOT
BRANCH   1   2
ATOM      2  N   UNL     1      -0.487  -0.610   3.270  0.00  0.00    -0.295 NA
ATOM      3  C   UNL     1      -1.865  -0.482   2.775  0.00  0.00    +0.067 C 
ATOM      4  C   UNL     1      -2.811  -1.243   3.708  0.00  0.00    -0.064 C 
ATOM      5  N   UNL     1      -2.707  -0.692   5.066  0.00  0.00    +0.379 N 
ATOM      6  C   UNL     1      -1.331  -0.849   5.555  0.00  0.00    -0.064 C 
ATOM      7  C   UNL     1      -0.373  -0.086   4.638  0.00  0.00    +0.067 C 
ATOM      8  C   UNL     1      -3.628  -1.410   5.957  0.00  0.00    -0.096 C 
ATOM      9  H   UNL     1      -2.949   0.287   5.051  0.00  0.00    -0.082 HD
ENDBRANCH   1   2
BRANCH   1  15
ATOM     10  C   UNL     1       0.494   1.821   0.047  0.00  0.00    +0.045 C 
ATOM     11  C   UNL     1       0.330   0.332  -0.124  0.00  0.00    -0.034 A 
ATOM     12  C   UNL     1       0.202  -0.207  -1.360  0.00  0.00    -0.008 A 
ATOM     13  S   UNL     1       0.044  -1.947  -0.994  0.00  0.00    -0.078 S 
ATOM     14  C   UNL     1       0.160  -1.842   0.784  0.00  0.00    +0.077 A 
ATOM     15  C   UNL     1       0.314  -0.502   0.978  0.00  0.00    +0.006 A 
ATOM     16  C   UNL     1       0.194   0.484  -2.700  0.00  0.00    +0.052 C 
BRANCH  14  17
ATOM     17  N   UNL     1       0.109  -2.868   1.731  0.00  0.00    -0.275 N 
ATOM     18  C   UNL     1       0.069  -4.154   1.330  0.00  0.00    +0.255 C 
ATOM     19  O   UNL     1       0.077  -4.421   0.142  0.00  0.00    -0.269 OA
ATOM     20  H   UNL     1       0.103  -2.655   2.677  0.00  0.00    +0.156 HD
BRANCH  18  21
ATOM     21  C   UNL     1       0.016  -5.230   2.323  0.00  0.00    +0.074 A 
ATOM     22  C   UNL     1      -0.024  -6.602   2.124  0.00  0.00    +0.021 A 
ATOM     23  C   UNL     1      -0.070  -7.369   3.264  0.00  0.00    +0.008 A 
ATOM     24  C   UNL     1      -0.072  -6.755   4.472  0.00  0.00    +0.046 A 
ATOM     25  S   UNL     1      -0.005  -5.117   4.102  0.00  0.00    -0.092 S 
ENDBRANCH  18  21
ENDBRANCH  14  17
ENDBRANCH   1  15
BRANCH   1  26
ATOM     26  C   UNL     1       1.867  -0.169   2.858  0.00  0.00    -0.022 A 
ATOM     27  C   UNL     1       2.204  -1.371   3.451  0.00  0.00    +0.009 A 
ATOM     28  C   UNL     1       3.493  -1.585   3.902  0.00  0.00    +0.050 A 
ATOM     29  C   UNL     1       4.451  -0.595   3.758  0.00  0.00    +0.162 A 
ATOM     30  C   UNL     1       4.112   0.615   3.160  0.00  0.00    +0.162 A 
ATOM     31  C   UNL     1       2.819   0.822   2.707  0.00  0.00    +0.055 A 
BRANCH  30  32
ATOM     32  O   UNL     1       5.049   1.591   3.018  0.00  0.00    -0.491 OA
ATOM     33  C   UNL     1       4.629   2.807   2.395  0.00  0.00    +0.277 C 
ENDBRANCH  30  32
BRANCH  29  34
ATOM     34  O   UNL     1       5.720  -0.804   4.201  0.00  0.00    -0.491 OA
ATOM     35  C   UNL     1       5.995  -2.069   4.805  0.00  0.00    +0.277 C 
ENDBRANCH  29  34
ENDBRANCH   1  26
TORSDOF 7
