REMARK  Name = ZINC01203659
REMARK  8 active torsions:
REMARK  status: ('A' for Active; 'I' for Inactive)
REMARK    1  A    between atoms: C_1  and  C_2
REMARK    2  A    between atoms: C_4  and  C_36
REMARK    3  A    between atoms: N_9  and  N_10
REMARK    4  A    between atoms: C_11  and  C_13
REMARK    5  A    between atoms: C_13  and  N_24
REMARK    6  A    between atoms: C_14  and  C_15
REMARK    7  A    between atoms: C_18  and  N_21
REMARK    8  A    between atoms: C_25  and  C_27
REMARK                            x       y       z     vdW  Elec       q    Type
REMARK                         _______ _______ _______ _____ _____    ______ ____
ROOT
ATOM      1  C   UNL     1       0.334  -4.929   6.827  0.00  0.00    +0.098 C 
ATOM      2  C   UNL     1      -0.013  -4.662   8.109  0.00  0.00    +0.036 C 
ENDROOT
BRANCH   2   3
ATOM      3  C   UNL     1      -0.134  -5.759   9.081  0.00  0.00    -0.023 A 
ATOM      4  C   UNL     1       0.498  -6.983   8.843  0.00  0.00    +0.010 A 
ATOM      5  C   UNL     1       0.380  -8.007   9.760  0.00  0.00    +0.033 A 
ATOM      6  C   UNL     1      -0.363  -7.824  10.913  0.00  0.00    +0.126 A 
ATOM      7  C   UNL     1      -0.992  -6.616  11.156  0.00  0.00    +0.033 A 
ATOM      8  C   UNL     1      -0.879  -5.581  10.252  0.00  0.00    +0.010 A 
BRANCH   6   9
ATOM      9  N   UNL     1      -0.486  -8.928  11.892  0.00  0.00    +0.056 N 
ATOM     10  O   UNL     1       0.062  -9.985  11.682  0.00  0.00    -0.126 OA
ATOM     11  O   UNL     1      -1.134  -8.773  12.900  0.00  0.00    -0.126 OA
ENDBRANCH   6   9
ENDBRANCH   2   3
BRANCH   1  13
ATOM     12  N   UNL     1       0.951  -4.092   4.620  0.00  0.00    -0.201 N 
ATOM     13  C   UNL     1       0.606  -3.827   5.896  0.00  0.00    +0.277 C 
ATOM     14  O   UNL     1       0.519  -2.674   6.275  0.00  0.00    -0.267 OA
ATOM     15  H   UNL     1       1.020  -5.011   4.318  0.00  0.00    +0.178 HD
BRANCH  12  24
ATOM     16  C   UNL     1       2.255   1.211   0.143  0.00  0.00    +0.044 C 
ATOM     17  C   UNL     1       2.218  -0.295   0.197  0.00  0.00    -0.049 A 
ATOM     18  C   UNL     1       2.517  -1.034  -0.935  0.00  0.00    +0.008 A 
ATOM     19  C   UNL     1       2.487  -2.414  -0.902  0.00  0.00    -0.028 A 
ATOM     20  C   UNL     1       2.155  -3.077   0.275  0.00  0.00    +0.046 A 
ATOM     21  C   UNL     1       1.854  -2.325   1.417  0.00  0.00    +0.029 A 
ATOM     22  C   UNL     1       1.892  -0.935   1.375  0.00  0.00    +0.015 A 
ATOM     23  C   UNL     1       1.546  -3.299   2.490  0.00  0.00    +0.153 C 
ATOM     24  N   UNL     1       1.210  -3.041   3.731  0.00  0.00    -0.174 NA
ATOM     25  C   UNL     1       1.699  -4.624   1.857  0.00  0.00    +0.269 C 
ATOM     26  O   UNL     1       1.534  -5.700   2.400  0.00  0.00    -0.268 OA
ATOM     27  N   UNL     1       2.052  -4.430   0.575  0.00  0.00    -0.279 N 
ATOM     28  C   UNL     1       2.814  -3.204  -2.143  0.00  0.00    +0.046 C 
ATOM     29  H   UNL     1       2.215  -5.145  -0.060  0.00  0.00    +0.155 HD
ENDBRANCH  12  24
ENDBRANCH   1  13
BRANCH   1  30
ATOM     30  N   UNL     1       0.434  -6.253   6.392  0.00  0.00    -0.277 N 
ATOM     31  C   UNL     1       1.595  -6.709   5.881  0.00  0.00    +0.248 C 
ATOM     32  O   UNL     1       2.521  -5.942   5.697  0.00  0.00    -0.270 OA
ATOM     33  H   UNL     1      -0.333  -6.844   6.457  0.00  0.00    +0.155 HD
BRANCH  31  34
ATOM     34  C   UNL     1       1.743  -8.140   5.544  0.00  0.00    +0.037 A 
ATOM     35  C   UNL     1       0.647  -9.000   5.639  0.00  0.00    +0.013 A 
ATOM     36  C   UNL     1       0.791 -10.335   5.323  0.00  0.00    +0.001 A 
ATOM     37  C   UNL     1       2.019 -10.822   4.912  0.00  0.00    +0.000 A 
ATOM     38  C   UNL     1       3.110  -9.976   4.816  0.00  0.00    +0.001 A 
ATOM     39  C   UNL     1       2.977  -8.638   5.124  0.00  0.00    +0.013 A 
ENDBRANCH  31  34
ENDBRANCH   1  30
TORSDOF 6
