REMARK  Name = ZINC16194637
REMARK  11 active torsions:
REMARK  status: ('A' for Active; 'I' for Inactive)
REMARK    1  A    between atoms: C_1  and  O_2
REMARK    2  A    between atoms: O_2  and  C_3
REMARK    3  A    between atoms: C_4  and  C_16
REMARK    4  A    between atoms: C_6  and  C_10
REMARK    5  A    between atoms: C_8  and  O_9
REMARK    6  A    between atoms: N_11  and  N_12
REMARK    7  A    between atoms: N_12  and  C_13
REMARK    8  A    between atoms: C_13  and  N_15
REMARK    9  A    between atoms: N_17  and  N_18
REMARK   10  A    between atoms: N_18  and  C_19
REMARK   11  A    between atoms: C_19  and  N_21
REMARK                            x       y       z     vdW  Elec       q    Type
REMARK                         _______ _______ _______ _____ _____    ______ ____
ROOT
ATOM      1  C   UNL     1       0.129  -2.828  -0.020  0.00  0.00    +0.170 A 
ATOM      2  C   UNL     1      -1.093  -2.142   0.001  0.00  0.00    +0.040 A 
ATOM      3  C   UNL     1      -2.290  -2.858   0.009  0.00  0.00    +0.022 A 
ATOM      4  C   UNL     1      -2.265  -4.252   0.001  0.00  0.00    -0.001 A 
ATOM      5  C   UNL     1      -1.041  -4.928  -0.014  0.00  0.00    +0.058 A 
ATOM      6  C   UNL     1       0.146  -4.219  -0.021  0.00  0.00    +0.160 A 
ENDROOT
BRANCH   1   8
ATOM      7  C   UNL     1       1.873  -1.810   1.234  0.00  0.00    +0.277 C 
ATOM      8  O   UNL     1       1.297  -2.135  -0.033  0.00  0.00    -0.491 OA
ENDBRANCH   1   8
BRANCH   6   9
ATOM      9  O   UNL     1       1.333  -4.883  -0.036  0.00  0.00    -0.503 OA
ATOM     10  H   UNL     1       1.668  -5.070  -0.924  0.00  0.00    +0.292 HD
ENDBRANCH   6   9
BRANCH   4  11
ATOM     11  C   UNL     1      -3.528  -5.012   0.009  0.00  0.00    +0.138 C 
ATOM     12  N   UNL     1      -3.505  -6.309   0.002  0.00  0.00    -0.188 NA
BRANCH  12  13
ATOM     13  N   UNL     1      -4.705  -7.032   0.010  0.00  0.00    -0.219 N 
ATOM     14  H   UNL     1      -5.554  -6.562   0.021  0.00  0.00    +0.176 HD
BRANCH  13  15
ATOM     15  C   UNL     1      -4.681  -8.379   0.003  0.00  0.00    +0.147 C 
ATOM     16  S   UNL     1      -6.147  -9.262   0.013  0.00  0.00    -0.017 S 
BRANCH  15  17
ATOM     17  N   UNL     1      -3.502  -9.032  -0.012  0.00  0.00    -0.339 N 
ATOM     18  H   UNL     1      -2.670  -8.532  -0.018  0.00  0.00    +0.144 HD
ATOM     19  H   UNL     1      -3.484 -10.002  -0.018  0.00  0.00    +0.144 HD
ENDBRANCH  15  17
ENDBRANCH  13  15
ENDBRANCH  12  13
ENDBRANCH   4  11
BRANCH   2  20
ATOM     20  C   UNL     1      -1.113  -0.668   0.009  0.00  0.00    +0.142 C 
ATOM     21  N   UNL     1       0.002  -0.004   0.002  0.00  0.00    -0.188 NA
BRANCH  21  22
ATOM     22  N   UNL     1      -0.017   1.397   0.010  0.00  0.00    -0.219 N 
ATOM     23  H   UNL     1      -0.864   1.870   0.016  0.00  0.00    +0.176 HD
BRANCH  22  24
ATOM     24  C   UNL     1       1.141   2.087   0.002  0.00  0.00    +0.147 C 
ATOM     25  S   UNL     1       1.118   3.798   0.012  0.00  0.00    -0.017 S 
BRANCH  24  26
ATOM     26  N   UNL     1       2.317   1.429  -0.012  0.00  0.00    -0.339 N 
ATOM     27  H   UNL     1       2.330   0.459  -0.018  0.00  0.00    +0.144 HD
ATOM     28  H   UNL     1       3.151   1.925  -0.018  0.00  0.00    +0.144 HD
ENDBRANCH  24  26
ENDBRANCH  22  24
ENDBRANCH  21  22
ENDBRANCH   2  20
TORSDOF 10
