REMARK  Name = ZINC13424749
REMARK  10 active torsions:
REMARK  status: ('A' for Active; 'I' for Inactive)
REMARK    1  A    between atoms: C_3  and  O_36
REMARK    2  A    between atoms: C_6  and  C_7
REMARK    3  A    between atoms: C_12  and  O_19
REMARK    4  A    between atoms: C_14  and  O_18
REMARK    5  A    between atoms: O_19  and  C_20
REMARK    6  A    between atoms: C_22  and  O_35
REMARK    7  A    between atoms: C_24  and  O_34
REMARK    8  A    between atoms: C_26  and  O_33
REMARK    9  A    between atoms: C_28  and  C_31
REMARK   10  A    between atoms: C_31  and  O_32
REMARK                            x       y       z     vdW  Elec       q    Type
REMARK                         _______ _______ _______ _____ _____    ______ ____
ROOT
ATOM      1  C   UNL     1       2.021   1.865   3.708  0.00  0.00    +0.064 A 
ATOM      2  C   UNL     1       3.245   2.431   3.558  0.00  0.00    +0.208 A 
ATOM      3  O   UNL     1       3.776   2.688   2.359  0.00  0.00    -0.462 OA
ATOM      4  C   UNL     1       3.150   2.411   1.198  0.00  0.00    +0.145 A 
ATOM      5  C   UNL     1       3.756   2.702  -0.016  0.00  0.00    +0.093 A 
ATOM      6  C   UNL     1       3.105   2.412  -1.205  0.00  0.00    +0.131 A 
ATOM      7  C   UNL     1       1.842   1.830  -1.200  0.00  0.00    +0.092 A 
ATOM      8  C   UNL     1       1.221   1.532  -0.001  0.00  0.00    +0.135 A 
ATOM      9  C   UNL     1       1.871   1.826   1.204  0.00  0.00    +0.106 A 
ATOM     10  C   UNL     1       1.248   1.520   2.502  0.00  0.00    +0.204 A 
ATOM     11  O   UNL     1       0.143   1.010   2.575  0.00  0.00    -0.286 OA
ENDROOT
BRANCH   1  17
ATOM     12  C   UNL     1       0.186   2.024   5.387  0.00  0.00    +0.012 A 
ATOM     13  C   UNL     1      -0.324   1.770   6.644  0.00  0.00    +0.046 A 
ATOM     14  C   UNL     1       0.447   1.102   7.585  0.00  0.00    +0.117 A 
ATOM     15  C   UNL     1       1.730   0.682   7.264  0.00  0.00    +0.046 A 
ATOM     16  C   UNL     1       2.244   0.928   6.007  0.00  0.00    +0.012 A 
ATOM     17  C   UNL     1       1.472   1.599   5.060  0.00  0.00    -0.011 A 
BRANCH  14  18
ATOM     18  O   UNL     1      -0.056   0.859   8.824  0.00  0.00    -0.507 OA
ATOM     19  H   UNL     1       0.122   1.560   9.465  0.00  0.00    +0.292 HD
ENDBRANCH  14  18
ENDBRANCH   1  17
BRANCH   8  20
ATOM     20  O   UNL     1      -0.011   0.963   0.007  0.00  0.00    -0.506 OA
ATOM     21  H   UNL     1       0.002  -0.004   0.002  0.00  0.00    +0.292 HD
ENDBRANCH   8  20
BRANCH   6  22
ATOM     22  O   UNL     1       3.706   2.701  -2.387  0.00  0.00    -0.461 OA
BRANCH  22  23
ATOM     23  C   UNL     1       2.984   2.380  -3.578  0.00  0.00    +0.339 C 
ATOM     24  C   UNL     1       3.759   2.887  -4.797  0.00  0.00    +0.214 C 
ATOM     25  C   UNL     1       3.009   2.486  -6.071  0.00  0.00    +0.180 C 
ATOM     26  C   UNL     1       2.830   0.965  -6.088  0.00  0.00    +0.177 C 
ATOM     27  C   UNL     1       2.092   0.532  -4.819  0.00  0.00    +0.179 C 
ATOM     28  O   UNL     1       2.826   0.962  -3.671  0.00  0.00    -0.331 OA
BRANCH  26  29
ATOM     29  O   UNL     1       2.070   0.586  -7.237  0.00  0.00    -0.386 OA
ATOM     30  H   UNL     1       2.478   0.834  -8.078  0.00  0.00    +0.210 HD
ENDBRANCH  26  29
BRANCH  25  31
ATOM     31  O   UNL     1       1.729   3.120  -6.092  0.00  0.00    -0.386 OA
ATOM     32  H   UNL     1       1.768   4.086  -6.077  0.00  0.00    +0.210 HD
ENDBRANCH  25  31
BRANCH  24  33
ATOM     33  O   UNL     1       5.065   2.307  -4.809  0.00  0.00    -0.383 OA
ATOM     34  H   UNL     1       5.595   2.516  -4.027  0.00  0.00    +0.210 HD
ENDBRANCH  24  33
BRANCH  27  35
ATOM     35  C   UNL     1       1.962  -0.993  -4.799  0.00  0.00    +0.190 C 
BRANCH  35  36
ATOM     36  O   UNL     1       1.173  -1.389  -3.676  0.00  0.00    -0.392 OA
ATOM     37  H   UNL     1       1.048  -2.345  -3.600  0.00  0.00    +0.210 HD
ENDBRANCH  35  36
ENDBRANCH  27  35
ENDBRANCH  22  23
ENDBRANCH   6  22
TORSDOF 10
