REMARK  Name = ZINC15162863
REMARK  10 active torsions:
REMARK  status: ('A' for Active; 'I' for Inactive)
REMARK    1  A    between atoms: C_1  and  C_2
REMARK    2  A    between atoms: C_2  and  C_24
REMARK    3  A    between atoms: N_3  and  N_4
REMARK    4  A    between atoms: C_5  and  S_7
REMARK    5  A    between atoms: S_7  and  C_8
REMARK    6  A    between atoms: N_13  and  C_16
REMARK    7  A    between atoms: C_25  and  C_26
REMARK    8  A    between atoms: C_29  and  N_32
REMARK    9  A    between atoms: N_32  and  C_33
REMARK   10  A    between atoms: N_32  and  C_34
REMARK                            x       y       z     vdW  Elec       q    Type
REMARK                         _______ _______ _______ _____ _____    ______ ____
ROOT
ATOM      1  N   UNL     1      -0.326   0.904   2.606  0.00  0.00    -0.217 N 
ATOM      2  C   UNL     1      -0.244  -0.003   3.639  0.00  0.00    +0.146 C 
ATOM      3  N   UNL     1      -0.301  -1.282   3.390  0.00  0.00    -0.380 N 
ATOM      4  H   UNL     1      -0.283   1.855   2.792  0.00  0.00    +0.176 HD
ATOM      5  H   UNL     1      -0.243  -1.921   4.118  0.00  0.00    +0.158 HD
ATOM      6  H   UNL     1      -0.401  -1.595   2.477  0.00  0.00    +0.158 HD
ENDROOT
BRANCH   1   9
ATOM      7  C   UNL     1      -0.482   2.788   0.599  0.00  0.00    +0.067 C 
ATOM      8  C   UNL     1      -0.548   1.310   0.311  0.00  0.00    +0.056 C 
ATOM      9  N   UNL     1      -0.470   0.453   1.288  0.00  0.00    -0.186 NA
BRANCH   8  10
ATOM     10  C   UNL     1      -0.694   0.854  -1.023  0.00  0.00    +0.025 C 
ATOM     11  C   UNL     1      -0.753  -0.469  -1.281  0.00  0.00    +0.010 C 
BRANCH  11  12
ATOM     12  C   UNL     1      -0.905  -0.943  -2.665  0.00  0.00    -0.025 A 
ATOM     13  C   UNL     1      -0.983  -0.024  -3.717  0.00  0.00    +0.010 A 
ATOM     14  C   UNL     1      -1.125  -0.471  -5.011  0.00  0.00    +0.023 A 
ATOM     15  C   UNL     1      -1.190  -1.836  -5.274  0.00  0.00    +0.029 A 
ATOM     16  C   UNL     1      -1.113  -2.754  -4.232  0.00  0.00    +0.023 A 
ATOM     17  C   UNL     1      -0.966  -2.315  -2.935  0.00  0.00    +0.010 A 
BRANCH  15  18
ATOM     18  N   UNL     1      -1.334  -2.285  -6.587  0.00  0.00    -0.336 N 
ATOM     19  C   UNL     1      -1.416  -1.320  -7.686  0.00  0.00    +0.129 C 
ATOM     20  C   UNL     1      -1.404  -3.722  -6.866  0.00  0.00    +0.129 C 
ENDBRANCH  15  18
ENDBRANCH  11  12
ENDBRANCH   8  10
ENDBRANCH   1   9
BRANCH   2  21
ATOM     21  S   UNL     1      -0.062   0.565   5.297  0.00  0.00    -0.078 S 
BRANCH  21  22
ATOM     22  C   UNL     1      -0.000  -0.960   6.279  0.00  0.00    +0.149 C 
ATOM     23  C   UNL     1       0.231  -0.637   7.769  0.00  0.00    +0.120 C 
ATOM     24  C   UNL     1      -1.008  -1.182   8.446  0.00  0.00    +0.228 C 
ATOM     25  O   UNL     1      -1.235  -1.136   9.636  0.00  0.00    -0.275 OA
ATOM     26  N   UNL     1      -1.813  -1.723   7.523  0.00  0.00    -0.209 N 
ATOM     27  C   UNL     1      -1.344  -1.655   6.267  0.00  0.00    +0.240 C 
ATOM     28  O   UNL     1      -1.906  -2.081   5.280  0.00  0.00    -0.274 OA
BRANCH  26  29
ATOM     29  C   UNL     1      -3.044  -2.313   7.842  0.00  0.00    +0.045 A 
ATOM     30  C   UNL     1      -3.219  -3.682   7.690  0.00  0.00    +0.025 A 
ATOM     31  C   UNL     1      -4.432  -4.262   8.005  0.00  0.00    +0.023 A 
ATOM     32  C   UNL     1      -5.474  -3.479   8.471  0.00  0.00    +0.059 A 
ATOM     33  C   UNL     1      -5.303  -2.114   8.624  0.00  0.00    +0.061 A 
ATOM     34  C   UNL     1      -4.088  -1.530   8.315  0.00  0.00    +0.045 A 
ATOM     35 CL   UNL     1      -6.612  -1.135   9.209  0.00  0.00    -0.082 Cl
ATOM     36 CL   UNL     1      -6.998  -4.211   8.866  0.00  0.00    -0.082 Cl
ENDBRANCH  26  29
ENDBRANCH  21  22
ENDBRANCH   2  21
TORSDOF 7
