REMARK  Name = ZINC20555680
REMARK  5 active torsions:
REMARK  status: ('A' for Active; 'I' for Inactive)
REMARK    1  A    between atoms: C_1  and  C_2
REMARK    2  A    between atoms: C_7  and  N_8
REMARK    3  A    between atoms: C_17  and  C_19
REMARK    4  A    between atoms: C_19  and  S_20
REMARK    5  A    between atoms: S_20  and  C_21
REMARK                            x       y       z     vdW  Elec       q    Type
REMARK                         _______ _______ _______ _____ _____    ______ ____
ROOT
ATOM      1  N   UNL     1      -3.571  -0.697  -0.072  0.00  0.00    -0.327 N 
ATOM      2  C   UNL     1      -2.526  -0.012   0.505  0.00  0.00    +0.180 C 
ATOM      3  N   UNL     1      -2.463   1.285   0.405  0.00  0.00    -0.371 N 
ATOM      4  N   UNL     1      -1.544  -0.699   1.188  0.00  0.00    -0.298 N 
ATOM      5  C   UNL     1      -0.444  -0.030   1.668  0.00  0.00    +0.212 A 
ATOM      6  N   UNL     1       0.517  -0.720   2.340  0.00  0.00    -0.175 NA
ATOM      7  C   UNL     1       1.601  -0.070   2.814  0.00  0.00    +0.275 A 
ATOM      8  O   UNL     1       2.473  -0.672   3.419  0.00  0.00    -0.266 OA
ATOM      9  C   UNL     1       1.706   1.316   2.598  0.00  0.00    +0.094 A 
ATOM     10  C   UNL     1       0.711   1.954   1.917  0.00  0.00    +0.034 A 
ATOM     11  N   UNL     1      -0.338   1.267   1.469  0.00  0.00    -0.328 N 
ATOM     12  H   UNL     1      -4.407  -0.144  -0.526  0.00  0.00    +0.169 HD
ATOM     13  H   UNL     1      -1.627   1.833   0.866  0.00  0.00    +0.159 HD
ATOM     14  H   UNL     1      -1.641  -1.783   1.349  0.00  0.00    +0.172 HD
ATOM     15  H   UNL     1      -3.246   1.833  -0.140  0.00  0.00    +0.159 HD
ATOM     16  H   UNL     1      -1.127   1.806   0.923  0.00  0.00    +0.168 HD
ENDROOT
BRANCH   1  23
ATOM     17  C   UNL     1      -6.079  -2.040  -0.055  0.00  0.00    +0.046 C 
ATOM     18  C   UNL     1      -4.773  -2.791  -0.072  0.00  0.00    -0.027 A 
ATOM     19  C   UNL     1      -4.769  -4.173  -0.080  0.00  0.00    +0.005 A 
ATOM     20  C   UNL     1      -3.571  -4.862  -0.096  0.00  0.00    +0.000 A 
ATOM     21  C   UNL     1      -2.373  -4.172  -0.104  0.00  0.00    +0.002 A 
ATOM     22  C   UNL     1      -2.369  -2.791  -0.101  0.00  0.00    +0.026 A 
ATOM     23  C   UNL     1      -3.571  -2.095  -0.079  0.00  0.00    +0.045 A 
ENDBRANCH   1  23
BRANCH  10  24
ATOM     24  C   UNL     1       0.799   3.438   1.671  0.00  0.00    +0.129 C 
BRANCH  24  25
ATOM     25  S   UNL     1       1.238   3.738  -0.059  0.00  0.00    -0.093 S 
BRANCH  25  26
ATOM     26  C   UNL     1       1.271   5.500  -0.066  0.00  0.00    +0.136 A 
ATOM     27  N   UNL     1       1.535   6.316  -1.062  0.00  0.00    -0.233 NA
ATOM     28  C   UNL     1       1.523   7.659  -0.921  0.00  0.00    +0.079 A 
ATOM     29  C   UNL     1       1.786   8.642  -1.903  0.00  0.00    +0.029 A 
ATOM     30  C   UNL     1       1.730   9.976  -1.592  0.00  0.00    +0.002 A 
ATOM     31  C   UNL     1       1.417  10.409  -0.312  0.00  0.00    +0.001 A 
ATOM     32  C   UNL     1       1.154   9.474   0.674  0.00  0.00    +0.017 A 
ATOM     33  C   UNL     1       1.207   8.137   0.371  0.00  0.00    +0.040 A 
ATOM     34  S   UNL     1       0.946   6.632   1.278  0.00  0.00    -0.061 S 
ENDBRANCH  25  26
ENDBRANCH  24  25
ENDBRANCH  10  24
TORSDOF 4
