REMARK  Name = ZINC60091012
REMARK  8 active torsions:
REMARK  status: ('A' for Active; 'I' for Inactive)
REMARK    1  A    between atoms: C_1  and  C_2
REMARK    2  A    between atoms: C_3  and  N_9
REMARK    3  A    between atoms: C_10  and  C_12
REMARK    4  A    between atoms: C_12  and  C_14
REMARK    5  A    between atoms: C_12  and  N_15
REMARK    6  A    between atoms: N_15  and  C_16
REMARK    7  A    between atoms: C_16  and  C_17
REMARK    8  A    between atoms: C_17  and  C_23
REMARK                            x       y       z     vdW  Elec       q    Type
REMARK                         _______ _______ _______ _____ _____    ______ ____
ROOT
ATOM      1  N   UNL     1       0.649  -0.913  -6.021  0.00  0.00    +0.387 N 
ATOM      2  H   UNL     1       1.563  -1.327  -6.128  0.00  0.00    -0.085 HD
ATOM      3  H   UNL     1      -0.036  -1.641  -5.886  0.00  0.00    -0.085 HD
ENDROOT
BRANCH   1   4
ATOM      4  C   UNL     1       0.650  -0.019  -4.855  0.00  0.00    +0.013 C 
ATOM      5  C   UNL     1       1.773   1.010  -5.002  0.00  0.00    -0.004 C 
BRANCH   4   7
ATOM      6  N   UNL     1       0.909  -0.214  -2.403  0.00  0.00    -0.287 N 
ATOM      7  C   UNL     1       0.870  -0.828  -3.602  0.00  0.00    +0.203 C 
ATOM      8  O   UNL     1       1.012  -2.030  -3.674  0.00  0.00    -0.277 OA
ATOM      9  H   UNL     1       0.716   0.734  -2.336  0.00  0.00    +0.155 HD
BRANCH   6  12
ATOM     10  C   UNL     1       0.007   0.771   0.110  0.00  0.00    +0.047 C 
ATOM     11  C   UNL     1       0.806  -0.501  -0.007  0.00  0.00    -0.011 A 
ATOM     12  C   UNL     1       1.227  -0.946  -1.253  0.00  0.00    +0.038 A 
ATOM     13  C   UNL     1       1.964  -2.119  -1.356  0.00  0.00    +0.023 A 
ATOM     14  C   UNL     1       2.276  -2.839  -0.220  0.00  0.00    +0.003 A 
ATOM     15  C   UNL     1       1.856  -2.395   1.020  0.00  0.00    +0.020 A 
ATOM     16  C   UNL     1       1.127  -1.223   1.127  0.00  0.00    +0.046 A 
ATOM     17 CL   UNL     1       0.608  -0.664   2.687  0.00  0.00    -0.083 Cl
ENDBRANCH   6  12
ENDBRANCH   4   7
ENDBRANCH   1   4
BRANCH   1  18
ATOM     18  C   UNL     1       0.316  -0.144  -7.227  0.00  0.00    -0.070 C 
BRANCH  18  19
ATOM     19  C   UNL     1       0.254  -1.086  -8.431  0.00  0.00    -0.015 C 
ATOM     20  C   UNL     1       1.564  -1.873  -8.534  0.00  0.00    +0.038 C 
ATOM     21  C   UNL     1       2.719  -0.899  -8.780  0.00  0.00    +0.160 C 
ATOM     22  O   UNL     1       2.462  -0.148  -9.968  0.00  0.00    -0.380 OA
ATOM     23  C   UNL     1       1.275   0.645  -9.913  0.00  0.00    +0.160 C 
ATOM     24  C   UNL     1       0.062  -0.268  -9.712  0.00  0.00    +0.038 C 
BRANCH  19  25
ATOM     25  C   UNL     1      -0.899  -2.041  -8.266  0.00  0.00    -0.039 A 
ATOM     26  C   UNL     1      -1.803  -1.859  -7.235  0.00  0.00    +0.008 A 
ATOM     27  C   UNL     1      -2.863  -2.733  -7.079  0.00  0.00    +0.050 A 
ATOM     28  C   UNL     1      -3.022  -3.794  -7.956  0.00  0.00    +0.166 A 
ATOM     29  C   UNL     1      -2.112  -3.977  -8.994  0.00  0.00    +0.167 A 
ATOM     30  C   UNL     1      -1.055  -3.094  -9.148  0.00  0.00    +0.053 A 
ATOM     31  O   UNL     1      -2.482  -5.078  -9.710  0.00  0.00    -0.453 OA
ATOM     32  C   UNL     1      -3.390  -5.802  -8.859  0.00  0.00    +0.466 C 
ATOM     33  O   UNL     1      -3.963  -4.780  -8.021  0.00  0.00    -0.453 OA
ENDBRANCH  19  25
ENDBRANCH  18  19
ENDBRANCH   1  18
TORSDOF 6
