REMARK  Name = ZINC63398589
REMARK  4 active torsions:
REMARK  status: ('A' for Active; 'I' for Inactive)
REMARK    1  A    between atoms: C_6  and  S_10
REMARK    2  A    between atoms: S_10  and  C_11
REMARK    3  A    between atoms: C_14  and  C_16
REMARK    4  A    between atoms: N_22  and  C_25
REMARK                            x       y       z     vdW  Elec       q    Type
REMARK                         _______ _______ _______ _____ _____    ______ ____
ROOT
ATOM      1  C   UNL     1       2.984  -1.817  -2.868  0.00  0.00    +0.165 A 
ATOM      2  C   UNL     1       2.631  -2.255  -4.131  0.00  0.00    +0.057 A 
ATOM      3  C   UNL     1       1.798  -1.290  -4.681  0.00  0.00    +0.050 A 
ATOM      4  C   UNL     1       1.667  -0.281  -3.728  0.00  0.00    +0.130 A 
ATOM      5  O   UNL     1       2.392  -0.634  -2.642  0.00  0.00    -0.449 OA
ENDROOT
BRANCH   4   6
ATOM      6  C   UNL     1       0.915   0.883  -3.868  0.00  0.00    +0.064 C 
ATOM      7  C   UNL     1       0.174   1.371  -2.786  0.00  0.00    +0.105 C 
ATOM      8  C   UNL     1      -0.475   2.691  -2.839  0.00  0.00    +0.277 C 
ATOM      9  N   UNL     1      -1.174   3.107  -1.769  0.00  0.00    -0.123 NA
ATOM     10  C   UNL     1      -1.284   2.362  -0.695  0.00  0.00    +0.340 C 
ATOM     11  O   UNL     1      -1.999   2.833   0.345  0.00  0.00    -0.250 OA
ATOM     12  N   UNL     1      -0.708   1.134  -0.586  0.00  0.00    -0.188 N 
ATOM     13  C   UNL     1       0.015   0.607  -1.596  0.00  0.00    +0.264 C 
ATOM     14  O   UNL     1       0.522  -0.495  -1.490  0.00  0.00    -0.269 OA
ATOM     15  O   UNL     1      -0.379   3.394  -3.833  0.00  0.00    -0.268 OA
BRANCH  12  16
ATOM     16  C   UNL     1      -0.872   0.400   0.597  0.00  0.00    +0.046 A 
ATOM     17  C   UNL     1       0.211   0.185   1.438  0.00  0.00    +0.025 A 
ATOM     18  C   UNL     1       0.047  -0.539   2.603  0.00  0.00    +0.017 A 
ATOM     19  C   UNL     1      -1.197  -1.048   2.932  0.00  0.00    +0.018 A 
ATOM     20  C   UNL     1      -2.278  -0.834   2.096  0.00  0.00    +0.017 A 
ATOM     21  C   UNL     1      -2.120  -0.107   0.933  0.00  0.00    +0.025 A 
ATOM     22 BR   UNL     1      -1.419  -2.038   4.528  0.00  0.00    -0.050 Br
ENDBRANCH  12  16
ENDBRANCH   4   6
BRANCH   1  23
ATOM     23  S   UNL     1       4.032  -2.674  -1.740  0.00  0.00    -0.042 S 
BRANCH  23  29
ATOM     24  C   UNL     1       6.506   1.550  -4.887  0.00  0.00    +0.002 A 
ATOM     25  C   UNL     1       6.819   0.487  -5.753  0.00  0.00    +0.002 A 
ATOM     26  C   UNL     1       6.732  -0.805  -5.379  0.00  0.00    +0.027 A 
ATOM     27  C   UNL     1       6.297  -1.137  -4.016  0.00  0.00    +0.061 A 
ATOM     28  N   UNL     1       6.125  -2.267  -3.392  0.00  0.00    -0.355 N 
ATOM     29  C   UNL     1       5.672  -1.954  -2.031  0.00  0.00    +0.243 C 
ATOM     30  N   UNL     1       5.603  -0.490  -1.944  0.00  0.00    -0.355 N 
ATOM     31  C   UNL     1       5.966  -0.013  -3.099  0.00  0.00    +0.061 A 
ATOM     32  C   UNL     1       6.097   1.356  -3.617  0.00  0.00    +0.027 A 
ATOM     33  H   UNL     1       6.269  -3.153  -3.760  0.00  0.00    +0.162 HD
ATOM     34  H   UNL     1       5.335   0.026  -1.167  0.00  0.00    +0.162 HD
ENDBRANCH  23  29
ENDBRANCH   1  23
TORSDOF 4
