REMARK  Name = ZINC39677893
REMARK  7 active torsions:
REMARK  status: ('A' for Active; 'I' for Inactive)
REMARK    1  A    between atoms: C_1  and  C_2
REMARK    2  A    between atoms: C_5  and  C_10
REMARK    3  A    between atoms: C_14  and  C_23
REMARK    4  A    between atoms: N_25  and  C_26
REMARK    5  A    between atoms: C_26  and  C_27
REMARK    6  A    between atoms: N_30  and  C_34
REMARK    7  A    between atoms: C_34  and  C_35
REMARK                            x       y       z     vdW  Elec       q    Type
REMARK                         _______ _______ _______ _____ _____    ______ ____
ROOT
ATOM      1  C   UNL     1       0.161  -4.532   0.066  0.00  0.00    +0.250 C 
ATOM      2  O   UNL     1       0.289  -5.232   1.052  0.00  0.00    -0.270 OA
ATOM      3  N   UNL     1       0.024  -5.099  -1.149  0.00  0.00    -0.296 N 
ATOM      4  C   UNL     1      -0.036  -4.421  -2.466  0.00  0.00    +0.121 C 
ATOM      5  C   UNL     1       0.779  -5.332  -3.412  0.00  0.00    +0.100 C 
ATOM      6  C   UNL     1       0.731  -6.721  -2.755  0.00  0.00    -0.004 C 
ATOM      7  C   UNL     1      -0.093  -6.541  -1.472  0.00  0.00    +0.115 C 
ATOM      8  C   UNL     1       2.141  -7.190  -2.406  0.00  0.00    -0.010 C 
ATOM      9  C   UNL     1       2.073  -8.597  -1.807  0.00  0.00    -0.082 C 
ATOM     10  N   UNL     1       1.456  -9.514  -2.774  0.00  0.00    +0.379 N 
ATOM     11  C   UNL     1       0.069  -9.109  -3.033  0.00  0.00    -0.082 C 
ATOM     12  C   UNL     1       0.052  -7.723  -3.684  0.00  0.00    -0.010 C 
ATOM     13  H   UNL     1       1.978  -9.491  -3.637  0.00  0.00    -0.086 HD
ATOM     14  H   UNL     1       1.467 -10.451  -2.401  0.00  0.00    -0.086 HD
ENDROOT
BRANCH   1  19
ATOM     15  C   UNL     1       0.127   1.201   0.585  0.00  0.00    +0.047 C 
ATOM     16  C   UNL     1       0.137  -0.300   0.451  0.00  0.00    -0.012 A 
ATOM     17  C   UNL     1      -0.640  -0.911  -0.518  0.00  0.00    +0.007 A 
ATOM     18  C   UNL     1      -0.637  -2.283  -0.648  0.00  0.00    +0.016 A 
ATOM     19  C   UNL     1       0.154  -3.062   0.200  0.00  0.00    +0.075 A 
ATOM     20  C   UNL     1       0.938  -2.442   1.177  0.00  0.00    +0.171 A 
ATOM     21  C   UNL     1       0.929  -1.061   1.293  0.00  0.00    +0.162 A 
ATOM     22  F   UNL     1       1.690  -0.458   2.232  0.00  0.00    -0.202 F 
ATOM     23  F   UNL     1       1.706  -3.186   2.003  0.00  0.00    -0.202 F 
ENDBRANCH   1  19
BRANCH   5  24
ATOM     24  C   UNL     1       2.201  -4.845  -3.513  0.00  0.00    +0.218 C 
ATOM     25  O   UNL     1       2.714  -4.272  -2.576  0.00  0.00    -0.275 OA
ATOM     26  N   UNL     1       2.903  -5.047  -4.646  0.00  0.00    -0.313 N 
ATOM     27  H   UNL     1       2.493  -5.506  -5.395  0.00  0.00    +0.149 HD
BRANCH  26  28
ATOM     28  C   UNL     1       4.286  -4.574  -4.744  0.00  0.00    +0.137 C 
BRANCH  28  29
ATOM     29  C   UNL     1       4.849  -4.928  -6.122  0.00  0.00    +0.149 C 
ATOM     30  C   UNL     1       6.330  -4.544  -6.183  0.00  0.00    +0.118 C 
ATOM     31  N   UNL     1       6.846  -4.815  -7.533  0.00  0.00    -0.293 NA
ATOM     32  C   UNL     1       6.088  -4.061  -8.541  0.00  0.00    +0.113 C 
ATOM     33  C   UNL     1       4.609  -4.449  -8.457  0.00  0.00    +0.175 C 
ATOM     34  O   UNL     1       4.133  -4.209  -7.130  0.00  0.00    -0.372 OA
BRANCH  31  35
ATOM     35  C   UNL     1       8.281  -4.513  -7.619  0.00  0.00    +0.119 C 
BRANCH  35  36
ATOM     36  C   UNL     1       8.826  -5.028  -8.926  0.00  0.00    -0.033 A 
ATOM     37  C   UNL     1       9.322  -6.316  -9.009  0.00  0.00    +0.005 A 
ATOM     38  C   UNL     1       9.822  -6.788 -10.208  0.00  0.00    +0.000 A 
ATOM     39  C   UNL     1       9.824  -5.973 -11.325  0.00  0.00    +0.000 A 
ATOM     40  C   UNL     1       9.327  -4.686 -11.242  0.00  0.00    +0.000 A 
ATOM     41  C   UNL     1       8.824  -4.215 -10.044  0.00  0.00    +0.005 A 
ENDBRANCH  35  36
ENDBRANCH  31  35
ENDBRANCH  28  29
ENDBRANCH  26  28
ENDBRANCH   5  24
TORSDOF 6
