REMARK  Name = ZINC36595258
REMARK  17 active torsions:
REMARK  status: ('A' for Active; 'I' for Inactive)
REMARK    1  A    between atoms: C_1  and  C_2
REMARK    2  A    between atoms: C_5  and  C_7
REMARK    3  A    between atoms: C_7  and  N_8
REMARK    4  A    between atoms: N_8  and  C_9
REMARK    5  A    between atoms: C_9  and  C_11
REMARK    6  A    between atoms: C_9  and  C_18
REMARK    7  A    between atoms: C_14  and  O_17
REMARK    8  A    between atoms: N_20  and  C_21
REMARK    9  A    between atoms: C_21  and  C_22
REMARK   10  A    between atoms: C_21  and  C_23
REMARK   11  A    between atoms: C_21  and  C_24
REMARK   12  A    between atoms: C_24  and  C_25
REMARK   13  A    between atoms: C_25  and  C_26
REMARK   14  A    between atoms: C_25  and  C_27
REMARK   15  A    between atoms: C_25  and  C_28
REMARK   16  A    between atoms: C_29  and  C_31
REMARK   17  A    between atoms: C_36  and  O_37
REMARK                            x       y       z     vdW  Elec       q    Type
REMARK                         _______ _______ _______ _____ _____    ______ ____
ROOT
ATOM      1  C   UNL     1       3.096  -3.325  -1.324  0.00  0.00    +0.193 C 
ENDROOT
BRANCH   1   2
ATOM      2  C   UNL     1       2.526  -2.203  -2.153  0.00  0.00    -0.018 A 
ATOM      3  C   UNL     1       1.589  -2.475  -3.132  0.00  0.00    +0.009 A 
ATOM      4  C   UNL     1       1.064  -1.449  -3.893  0.00  0.00    +0.046 A 
ATOM      5  C   UNL     1       1.478  -0.143  -3.674  0.00  0.00    +0.117 A 
ATOM      6  C   UNL     1       2.418   0.128  -2.691  0.00  0.00    +0.046 A 
ATOM      7  C   UNL     1       2.936  -0.901  -1.929  0.00  0.00    +0.009 A 
BRANCH   5   8
ATOM      8  O   UNL     1       0.964   0.869  -4.422  0.00  0.00    -0.507 OA
ATOM      9  H   UNL     1       0.167   1.268  -4.048  0.00  0.00    +0.292 HD
ENDBRANCH   5   8
ENDBRANCH   1   2
BRANCH   1  10
ATOM     10  C   UNL     1       4.426  -3.745  -1.895  0.00  0.00    +0.239 C 
ATOM     11  O   UNL     1       4.580  -4.876  -2.304  0.00  0.00    -0.273 OA
ATOM     12  N   UNL     1       5.444  -2.863  -1.951  0.00  0.00    -0.308 N 
ATOM     13  H   UNL     1       5.321  -1.958  -1.624  0.00  0.00    +0.149 HD
BRANCH  12  14
ATOM     14  C   UNL     1       6.737  -3.272  -2.506  0.00  0.00    +0.030 C 
ATOM     15  C   UNL     1       7.431  -4.226  -1.533  0.00  0.00    +0.031 C 
ATOM     16  C   UNL     1       6.516  -3.979  -3.845  0.00  0.00    +0.031 C 
BRANCH  14  17
ATOM     17  C   UNL     1       7.613  -2.036  -2.721  0.00  0.00    +0.031 C 
BRANCH  17  18
ATOM     18  C   UNL     1       6.764  -0.903  -3.303  0.00  0.00    -0.036 C 
ATOM     19  C   UNL     1       5.757  -0.429  -2.253  0.00  0.00    +0.010 C 
ATOM     20  C   UNL     1       7.672   0.262  -3.701  0.00  0.00    +0.010 C 
ATOM     21  C   UNL     1       6.014  -1.410  -4.536  0.00  0.00    +0.010 C 
ENDBRANCH  17  18
ENDBRANCH  14  17
ENDBRANCH  12  14
ENDBRANCH   1  10
BRANCH   1  22
ATOM     22  N   UNL     1       2.175  -4.463  -1.343  0.00  0.00    -0.275 N 
ATOM     23  C   UNL     1       0.966  -4.362  -0.757  0.00  0.00    +0.251 C 
ATOM     24  O   UNL     1       0.178  -5.285  -0.825  0.00  0.00    -0.270 OA
BRANCH  23  25
ATOM     25  C   UNL     1       0.598  -3.130  -0.033  0.00  0.00    +0.078 A 
ATOM     26  C   UNL     1       1.467  -2.036  -0.021  0.00  0.00    +0.017 A 
ATOM     27  C   UNL     1       1.117  -0.888   0.656  0.00  0.00    +0.001 A 
ATOM     28  C   UNL     1      -0.093  -0.813   1.327  0.00  0.00    +0.004 A 
ATOM     29  C   UNL     1      -0.961  -1.887   1.323  0.00  0.00    +0.046 A 
ATOM     30  C   UNL     1      -0.628  -3.048   0.641  0.00  0.00    +0.129 A 
BRANCH  30  31
ATOM     31  O   UNL     1      -1.482  -4.102   0.632  0.00  0.00    -0.506 OA
ATOM     32  H   UNL     1      -1.348  -4.723   1.361  0.00  0.00    +0.292 HD
ENDBRANCH  30  31
ENDBRANCH  23  25
BRANCH  22  33
ATOM     33  C   UNL     1       2.568  -5.713  -2.000  0.00  0.00    +0.183 C 
BRANCH  33  38
ATOM     34  C   UNL     1       6.343  -7.907   0.524  0.00  0.00    +0.086 C 
ATOM     35  C   UNL     1       4.952  -7.538   0.078  0.00  0.00    +0.102 A 
ATOM     36  C   UNL     1       3.807  -8.029   0.585  0.00  0.00    +0.045 A 
ATOM     37  C   UNL     1       2.749  -7.413  -0.122  0.00  0.00    +0.046 A 
ATOM     38  C   UNL     1       3.310  -6.583  -1.020  0.00  0.00    +0.122 A 
ATOM     39  O   UNL     1       4.645  -6.659  -0.890  0.00  0.00    -0.463 OA
ENDBRANCH  33  38
ENDBRANCH  22  33
ENDBRANCH   1  22
TORSDOF 11
