REMARK  Name = ZINC49122852
REMARK  7 active torsions:
REMARK  status: ('A' for Active; 'I' for Inactive)
REMARK    1  A    between atoms: C_1  and  C_2
REMARK    2  A    between atoms: C_2  and  C_3
REMARK    3  A    between atoms: C_9  and  N_11
REMARK    4  A    between atoms: N_11  and  S_12
REMARK    5  A    between atoms: S_12  and  C_15
REMARK    6  A    between atoms: C_20  and  N_21
REMARK    7  A    between atoms: N_21  and  N_22
REMARK                            x       y       z     vdW  Elec       q    Type
REMARK                         _______ _______ _______ _____ _____    ______ ____
ROOT
ATOM      1  S   UNL     1      -0.710  -4.087  -0.349  0.00  0.00    +0.060 S 
ATOM      2  O   UNL     1      -2.039  -4.566  -0.506  0.00  0.00    -0.153 OA
ATOM      3  O   UNL     1       0.422  -4.830  -0.779  0.00  0.00    -0.153 OA
ENDROOT
BRANCH   1   4
ATOM      4  C   UNL     1      -0.486  -3.777   1.371  0.00  0.00    +0.127 A 
ATOM      5  C   UNL     1       0.626  -4.272   2.023  0.00  0.00    +0.030 A 
ATOM      6  C   UNL     1       0.803  -4.030   3.373  0.00  0.00    +0.002 A 
ATOM      7  C   UNL     1      -0.133  -3.290   4.074  0.00  0.00    +0.002 A 
ATOM      8  C   UNL     1      -1.246  -2.792   3.428  0.00  0.00    +0.026 A 
ATOM      9  C   UNL     1      -1.424  -3.029   2.070  0.00  0.00    +0.067 A 
BRANCH   9  10
ATOM     10  N   UNL     1      -2.547  -2.522   1.412  0.00  0.00    -0.281 N 
ATOM     11  H   UNL     1      -2.633  -2.624   0.451  0.00  0.00    +0.166 HD
BRANCH  10  12
ATOM     12  N   UNL     1      -3.524  -1.884   2.122  0.00  0.00    -0.256 NA
ATOM     13  H   UNL     1      -3.143  -1.112   2.649  0.00  0.00    +0.140 HD
ATOM     14  H   UNL     1      -4.268  -1.574   1.514  0.00  0.00    +0.140 HD
ENDBRANCH  10  12
ENDBRANCH   9  10
ENDBRANCH   1   4
BRANCH   1  15
ATOM     15  N   UNL     1      -0.640  -2.626  -1.124  0.00  0.00    -0.187 NA
ATOM     16  H   UNL     1      -1.425  -2.276  -1.573  0.00  0.00    +0.148 HD
BRANCH  15  22
ATOM     17  C   UNL     1       0.291  -0.364  -1.080  0.00  0.00    +0.007 C 
ATOM     18  C   UNL     1      -0.549   0.020  -2.300  0.00  0.00    +0.005 C 
ATOM     19  C   UNL     1       0.233  -0.292  -3.577  0.00  0.00    +0.000 C 
ATOM     20  C   UNL     1       0.551  -1.788  -3.628  0.00  0.00    +0.002 C 
ATOM     21  C   UNL     1       1.391  -2.172  -2.409  0.00  0.00    +0.020 C 
ATOM     22  C   UNL     1       0.610  -1.860  -1.131  0.00  0.00    +0.080 C 
BRANCH  17  24
ATOM     23  C   UNL     1      -0.701   1.459   0.311  0.00  0.00    +0.004 C 
ATOM     24  C   UNL     1      -0.491  -0.052   0.197  0.00  0.00    +0.002 C 
ENDBRANCH  17  24
ENDBRANCH  15  22
ENDBRANCH   1  15
TORSDOF 6
