REMARK  Name = ZINC38649723
REMARK  12 active torsions:
REMARK  status: ('A' for Active; 'I' for Inactive)
REMARK    1  A    between atoms: C_1  and  C_2
REMARK    2  A    between atoms: C_2  and  C_3
REMARK    3  A    between atoms: C_2  and  C_4
REMARK    4  A    between atoms: C_2  and  C_5
REMARK    5  A    between atoms: C_8  and  C_11
REMARK    6  A    between atoms: C_16  and  O_25
REMARK    7  A    between atoms: C_20  and  N_24
REMARK    8  A    between atoms: C_21  and  C_22
REMARK    9  A    between atoms: O_25  and  C_26
REMARK   10  A    between atoms: C_26  and  C_28
REMARK   11  A    between atoms: C_28  and  O_29
REMARK   12  A    between atoms: O_29  and  C_30
REMARK                            x       y       z     vdW  Elec       q    Type
REMARK                         _______ _______ _______ _____ _____    ______ ____
ROOT
ATOM      1  C   UNL     1       2.746  -1.832  -4.789  0.00  0.00    +0.098 C 
ATOM      2  C   UNL     1       3.925  -2.675  -4.382  0.00  0.00    +0.008 A 
ATOM      3  C   UNL     1       3.710  -3.933  -3.846  0.00  0.00    +0.012 A 
ATOM      4  C   UNL     1       4.779  -4.720  -3.467  0.00  0.00    +0.047 A 
ATOM      5  C   UNL     1       6.076  -4.250  -3.624  0.00  0.00    +0.135 A 
ATOM      6  C   UNL     1       6.295  -2.992  -4.161  0.00  0.00    +0.093 A 
ATOM      7  C   UNL     1       5.218  -2.201  -4.541  0.00  0.00    +0.138 A 
ATOM      8  O   UNL     1       5.449  -0.972  -5.065  0.00  0.00    -0.441 OA
ATOM      9  C   UNL     1       4.493  -0.360  -5.783  0.00  0.00    +0.199 C 
ATOM     10  C   UNL     1       3.194  -0.720  -5.696  0.00  0.00    +0.098 C 
ENDROOT
BRANCH   1  14
ATOM     11  C   UNL     1       0.926  -0.170  -1.301  0.00  0.00    -0.042 A 
ATOM     12  C   UNL     1       0.197  -0.999  -2.132  0.00  0.00    +0.004 A 
ATOM     13  C   UNL     1       0.786  -1.537  -3.261  0.00  0.00    +0.005 A 
ATOM     14  C   UNL     1       2.104  -1.245  -3.559  0.00  0.00    -0.035 A 
ATOM     15  C   UNL     1       2.833  -0.415  -2.728  0.00  0.00    +0.005 A 
ATOM     16  C   UNL     1       2.242   0.126  -1.601  0.00  0.00    +0.004 A 
BRANCH  11  18
ATOM     17  C   UNL     1       0.308   1.944  -0.160  0.00  0.00    +0.015 C 
ATOM     18  C   UNL     1       0.284   0.417  -0.070  0.00  0.00    -0.013 C 
ATOM     19  C   UNL     1       1.057  -0.033   1.172  0.00  0.00    +0.015 C 
ATOM     20  C   UNL     1      -1.165  -0.065   0.029  0.00  0.00    +0.015 C 
ENDBRANCH  11  18
ENDBRANCH   1  14
BRANCH   9  21
ATOM     21  N   UNL     1       4.847   0.663  -6.628  0.00  0.00    -0.328 N 
ATOM     22  H   UNL     1       5.775   0.933  -6.700  0.00  0.00    +0.145 HD
ATOM     23  H   UNL     1       4.168   1.115  -7.153  0.00  0.00    +0.145 HD
ENDBRANCH   9  21
BRANCH  10  24
ATOM     24  C   UNL     1       2.224  -0.026  -6.488  0.00  0.00    +0.101 C 
ATOM     25  N   UNL     1       1.454   0.524  -7.116  0.00  0.00    -0.191 NA
ENDBRANCH  10  24
BRANCH   5  26
ATOM     26  O   UNL     1       7.130  -5.024  -3.251  0.00  0.00    -0.423 OA
BRANCH  26  27
ATOM     27  C   UNL     1       7.847  -4.639  -2.183  0.00  0.00    +0.350 C 
ATOM     28  O   UNL     1       7.489  -3.693  -1.523  0.00  0.00    -0.247 OA
BRANCH  27  29
ATOM     29  C   UNL     1       9.100  -5.388  -1.808  0.00  0.00    +0.349 C 
BRANCH  29  30
ATOM     30  O   UNL     1       9.680  -4.793  -0.645  0.00  0.00    -0.479 OA
BRANCH  30  31
ATOM     31  C   UNL     1      10.825  -5.353  -0.172  0.00  0.00    +0.140 A 
ATOM     32  C   UNL     1      11.380  -6.449  -0.815  0.00  0.00    +0.048 A 
ATOM     33  C   UNL     1      12.543  -7.017  -0.332  0.00  0.00    +0.023 A 
ATOM     34  C   UNL     1      13.155  -6.494   0.793  0.00  0.00    +0.043 A 
ATOM     35  C   UNL     1      12.603  -5.401   1.437  0.00  0.00    +0.043 A 
ATOM     36  C   UNL     1      11.443  -4.826   0.954  0.00  0.00    +0.084 A 
ATOM     37 CL   UNL     1      10.754  -3.450   1.758  0.00  0.00    -0.080 Cl
ATOM     38 CL   UNL     1      14.616  -7.210   1.398  0.00  0.00    -0.083 Cl
ENDBRANCH  30  31
ENDBRANCH  29  30
ENDBRANCH  27  29
ENDBRANCH  26  27
ENDBRANCH   5  26
TORSDOF 9
