REMARK  Name = ZINC40154186
REMARK  9 active torsions:
REMARK  status: ('A' for Active; 'I' for Inactive)
REMARK    1  A    between atoms: C_1  and  C_2
REMARK    2  A    between atoms: C_3  and  N_9
REMARK    3  A    between atoms: C_4  and  C_8
REMARK    4  A    between atoms: N_5  and  C_7
REMARK    5  A    between atoms: C_10  and  C_12
REMARK    6  A    between atoms: C_12  and  C_14
REMARK    7  A    between atoms: C_12  and  N_15
REMARK    8  A    between atoms: C_18  and  N_21
REMARK    9  A    between atoms: N_24  and  C_25
REMARK                            x       y       z     vdW  Elec       q    Type
REMARK                         _______ _______ _______ _____ _____    ______ ____
ROOT
ATOM      1  N   UNL     1       0.028   2.921  -4.221  0.00  0.00    +0.387 N 
ATOM      2  C   UNL     1       1.483   2.995  -4.038  0.00  0.00    -0.076 C 
ATOM      3  C   UNL     1       1.926   4.460  -4.034  0.00  0.00    +0.004 C 
ATOM      4  C   UNL     1       1.543   5.108  -5.367  0.00  0.00    +0.071 C 
ATOM      5  C   UNL     1       0.034   4.958  -5.582  0.00  0.00    +0.004 C 
ATOM      6  C   UNL     1      -0.339   3.475  -5.529  0.00  0.00    -0.076 C 
ATOM      7  H   UNL     1      -0.427   3.450  -3.493  0.00  0.00    -0.081 HD
ENDROOT
BRANCH   4   8
ATOM      8  N   UNL     1       1.896   6.529  -5.341  0.00  0.00    -0.296 N 
ATOM      9  C   UNL     1       2.134   7.186  -6.493  0.00  0.00    +0.304 C 
ATOM     10  O   UNL     1       2.056   6.599  -7.555  0.00  0.00    -0.253 OA
ATOM     11  N   UNL     1       2.458   8.494  -6.468  0.00  0.00    -0.269 N 
ATOM     12  H   UNL     1       1.958   6.998  -4.494  0.00  0.00    +0.151 HD
ATOM     13  H   UNL     1       2.588   8.946  -5.620  0.00  0.00    +0.156 HD
BRANCH  11  14
ATOM     14  C   UNL     1       2.608   9.201  -7.668  0.00  0.00    +0.035 A 
ATOM     15  C   UNL     1       3.517  10.248  -7.749  0.00  0.00    +0.026 A 
ATOM     16  C   UNL     1       3.663  10.944  -8.934  0.00  0.00    +0.040 A 
ATOM     17  C   UNL     1       2.905  10.598 -10.039  0.00  0.00    +0.124 A 
ATOM     18  C   UNL     1       1.998   9.555  -9.960  0.00  0.00    +0.040 A 
ATOM     19  C   UNL     1       1.853   8.853  -8.780  0.00  0.00    +0.026 A 
ATOM     20  F   UNL     1       3.050  11.280 -11.197  0.00  0.00    -0.205 F 
ENDBRANCH  11  14
ENDBRANCH   4   8
BRANCH   1  21
ATOM     21  C   UNL     1      -0.402   1.518  -4.147  0.00  0.00    +0.016 C 
ATOM     22  C   UNL     1      -1.926   1.446  -4.254  0.00  0.00    -0.004 C 
BRANCH  21  24
ATOM     23  N   UNL     1       0.233  -0.403  -2.724  0.00  0.00    -0.284 N 
ATOM     24  C   UNL     1       0.038   0.926  -2.833  0.00  0.00    +0.203 C 
ATOM     25  O   UNL     1       0.217   1.646  -1.873  0.00  0.00    -0.277 OA
ATOM     26  H   UNL     1       0.131  -0.974  -3.501  0.00  0.00    +0.155 HD
BRANCH  23  29
ATOM     27  C   UNL     1      -0.799   0.621   0.031  0.00  0.00    +0.069 C 
ATOM     28  C   UNL     1       0.141  -0.529  -0.224  0.00  0.00    +0.081 A 
ATOM     29  C   UNL     1       0.585  -0.963  -1.481  0.00  0.00    +0.077 A 
ATOM     30  C   UNL     1       1.415  -2.019  -1.287  0.00  0.00    +0.057 A 
ATOM     31  N   UNL     1       1.490  -2.242   0.051  0.00  0.00    -0.270 N 
ATOM     32  N   UNL     1       0.685  -1.290   0.691  0.00  0.00    -0.175 NA
ATOM     33  C   UNL     1       2.275  -3.289   0.709  0.00  0.00    +0.172 C 
ATOM     34  C   UNL     1       2.125  -2.804  -2.360  0.00  0.00    +0.067 C 
ENDBRANCH  23  29
ENDBRANCH  21  24
ENDBRANCH   1  21
TORSDOF 5
