REMARK  Name = ZINC51397574
REMARK  6 active torsions:
REMARK  status: ('A' for Active; 'I' for Inactive)
REMARK    1  A    between atoms: C_1  and  C_2
REMARK    2  A    between atoms: C_2  and  N_3
REMARK    3  A    between atoms: N_3  and  C_4
REMARK    4  A    between atoms: C_7  and  C_10
REMARK    5  A    between atoms: C_12  and  C_18
REMARK    6  A    between atoms: C_18  and  N_19
REMARK                            x       y       z     vdW  Elec       q    Type
REMARK                         _______ _______ _______ _____ _____    ______ ____
ROOT
ATOM      1  N   UNL     1       0.392  -0.432  -1.152  0.00  0.00    -0.285 N 
ATOM      2  C   UNL     1      -0.326  -0.586  -2.333  0.00  0.00    +0.127 A 
ATOM      3  C   UNL     1      -0.802  -1.843  -2.692  0.00  0.00    -0.024 A 
ATOM      4  C   UNL     1      -1.515  -1.982  -3.869  0.00  0.00    +0.022 A 
ATOM      5  C   UNL     1      -1.730  -0.854  -4.651  0.00  0.00    +0.036 A 
ATOM      6  C   UNL     1      -1.229   0.364  -4.233  0.00  0.00    +0.128 A 
ATOM      7  N   UNL     1      -0.556   0.467  -3.103  0.00  0.00    -0.239 NA
ATOM      8 BR   UNL     1      -2.698  -0.984  -6.270  0.00  0.00    -0.049 Br
ENDROOT
BRANCH   1   9
ATOM      9  C   UNL     1       1.761  -0.713  -1.125  0.00  0.00    +0.035 A 
ATOM     10  C   UNL     1       2.426  -1.047  -2.298  0.00  0.00    +0.024 A 
ATOM     11  C   UNL     1       3.779  -1.324  -2.268  0.00  0.00    +0.005 A 
ATOM     12  C   UNL     1       4.471  -1.270  -1.072  0.00  0.00    -0.050 A 
ATOM     13  C   UNL     1       3.812  -0.938   0.098  0.00  0.00    +0.005 A 
ATOM     14  C   UNL     1       2.460  -0.654   0.074  0.00  0.00    +0.024 A 
ATOM     15  C   UNL     1       5.947  -1.573  -1.043  0.00  0.00    +0.044 C 
ENDBRANCH   1   9
BRANCH   1  17
ATOM     16  C   UNL     1      -0.266   1.554   0.115  0.00  0.00    +0.025 C 
ATOM     17  C   UNL     1      -0.286   0.025   0.064  0.00  0.00    +0.109 C 
ENDBRANCH   1  17
BRANCH   3  18
ATOM     18  C   UNL     1      -0.542  -3.038  -1.810  0.00  0.00    -0.047 C 
BRANCH  18  19
ATOM     19  N   UNL     1      -1.496  -3.038  -0.693  0.00  0.00    +0.381 N 
ATOM     20  H   UNL     1      -2.432  -3.163  -1.049  0.00  0.00    -0.090 HD
ATOM     21  H   UNL     1      -1.274  -3.792  -0.061  0.00  0.00    -0.090 HD
ATOM     22  H   UNL     1      -1.438  -2.159  -0.201  0.00  0.00    -0.090 HD
ENDBRANCH  18  19
ENDBRANCH   3  18
TORSDOF 4
