REMARK  Name = ZINC63362690
REMARK  11 active torsions:
REMARK  status: ('A' for Active; 'I' for Inactive)
REMARK    1  A    between atoms: CD1_1  and  CG1_2
REMARK    2  A    between atoms: CG1_2  and  CB_3
REMARK    3  A    between atoms: CB_3  and  CG2_5
REMARK    4  A    between atoms: CB_3  and  CA_6
REMARK    5  A    between atoms: CA_6  and  C_8
REMARK    6  A    between atoms: CA_6  and  N_11
REMARK    7  A    between atoms: C_12  and  C_14
REMARK    8  A    between atoms: C_20  and  C_22
REMARK    9  A    between atoms: C_22  and  C_24
REMARK   10  A    between atoms: C_22  and  N_34
REMARK   11  A    between atoms: C_24  and  C_25
REMARK                            x       y       z     vdW  Elec       q    Type
REMARK                         _______ _______ _______ _____ _____    ______ ____
ROOT
ATOM      1  C   UNK A   0       1.503  -4.189   4.349  0.00  0.00    +0.078 C 
ATOM      2  C   UNK A   0       3.015  -4.332   4.161  0.00  0.00    +0.032 C 
ATOM      3  C   UNK A   0       3.648  -4.798   5.476  0.00  0.00    +0.108 C 
ATOM      4  N   UNK A   0       2.976  -6.028   5.914  0.00  0.00    -0.303 N 
ATOM      5  C   UNK A   0       1.512  -6.027   6.041  0.00  0.00    +0.108 C 
ATOM      6  C   UNK A   0       0.903  -5.548   4.719  0.00  0.00    +0.032 C 
ATOM      7  C   UNK A   0       3.688  -7.138   6.195  0.00  0.00    +0.201 C 
ATOM      8  O   UNK A   0       4.896  -7.126   6.086  0.00  0.00    -0.277 OA
ENDROOT
BRANCH   1  10
ATOM      9  N   ILE A   1       1.260  -2.514   2.545  0.00  0.00    -0.302 N 
ATOM     10  C   UNK A   0       0.882  -3.698   3.067  0.00  0.00    +0.217 C 
ATOM     11  O   UNK A   0       0.042  -4.369   2.505  0.00  0.00    -0.275 OA
ATOM     12  H   ILE A   1       1.931  -1.978   2.995  0.00  0.00    +0.150 HD
BRANCH   9  13
ATOM     13  CA  ILE A   1       0.655  -2.037   1.299  0.00  0.00    +0.189 C 
BRANCH  13  14
ATOM     14  C   ILE A   1       1.394  -2.627   0.125  0.00  0.00    +0.376 C 
ATOM     15  O   ILE A   1       2.579  -2.894   0.222  0.00  0.00    -0.244 OA
ATOM     16  OXT ILE A   1       0.806  -2.836  -0.923  0.00  0.00    -0.244 OA
ENDBRANCH  13  14
BRANCH  13  17
ATOM     17  CB  ILE A   1       0.742  -0.511   1.242  0.00  0.00    +0.017 C 
ATOM     18  CG2 ILE A   1       2.210  -0.086   1.169  0.00  0.00    +0.010 C 
BRANCH  17  20
ATOM     19  CD1 ILE A   1      -0.019   1.526   0.010  0.00  0.00    +0.004 C 
ATOM     20  CG1 ILE A   1       0.002  -0.004   0.002  0.00  0.00    +0.002 C 
ENDBRANCH  17  20
ENDBRANCH  13  17
ENDBRANCH   9  13
ENDBRANCH   1  10
BRANCH   7  21
ATOM     21  C   UNK A   0       2.984  -8.392   6.643  0.00  0.00    +0.017 C 
BRANCH  21  22
ATOM     22  N   UNK A   0       3.861  -9.550   6.427  0.00  0.00    +0.386 N 
ATOM     23  H   UNK A   0       3.390 -10.390   6.727  0.00  0.00    -0.089 HD
ATOM     24  H   UNK A   0       4.086  -9.623   5.446  0.00  0.00    -0.089 HD
ATOM     25  H   UNK A   0       4.710  -9.433   6.959  0.00  0.00    -0.089 HD
ENDBRANCH  21  22
BRANCH  21  26
ATOM     26  C   UNK A   0       2.643  -8.282   8.131  0.00  0.00    +0.026 C 
BRANCH  26  27
ATOM     27  C   UNK A   0       1.831  -9.480   8.550  0.00  0.00    -0.043 C 
ATOM     28  C   UNK A   0       2.295 -10.618   9.117  0.00  0.00    -0.001 A 
ATOM     29  C   UNK A   0       3.641 -11.063   9.496  0.00  0.00    +0.010 A 
ATOM     30  C   UNK A   0       3.795 -12.284  10.056  0.00  0.00    +0.001 A 
ATOM     31  C   UNK A   0       2.703 -13.133  10.283  0.00  0.00    +0.002 A 
ATOM     32  C   UNK A   0       1.437 -12.795   9.962  0.00  0.00    +0.026 A 
ATOM     33  C   UNK A   0       1.159 -11.533   9.367  0.00  0.00    +0.043 A 
ATOM     34  N   UNK A   0       0.037 -10.983   8.972  0.00  0.00    -0.380 N 
ATOM     35  C   UNK A   0       0.334  -9.652   8.430  0.00  0.00    +0.144 C 
ATOM     36  H   UNK A   0      -0.844 -11.386   9.031  0.00  0.00    +0.160 HD
ENDBRANCH  26  27
ENDBRANCH  21  26
ENDBRANCH   7  21
TORSDOF 9
