REMARK  Name = ZINC12324441
REMARK  5 active torsions:
REMARK  status: ('A' for Active; 'I' for Inactive)
REMARK    1  A    between atoms: C_1  and  C_2
REMARK    2  A    between atoms: C_2  and  N_3
REMARK    3  A    between atoms: C_5  and  C_18
REMARK    4  A    between atoms: C_6  and  C_11
REMARK    5  A    between atoms: C_9  and  O_10
REMARK                            x       y       z     vdW  Elec       q    Type
REMARK                         _______ _______ _______ _____ _____    ______ ____
ROOT
ATOM      1  N   UNL     1       0.688  -0.476  -1.203  0.00  0.00    -0.264 N 
ATOM      2  C   UNL     1      -0.029  -0.708  -2.373  0.00  0.00    +0.087 C 
ATOM      3  C   UNL     1       0.512  -1.449  -3.340  0.00  0.00    +0.019 C 
ATOM      4  C   UNL     1       1.882  -2.046  -3.186  0.00  0.00    +0.147 C 
ATOM      5  N   UNL     1       2.618  -1.413  -2.098  0.00  0.00    -0.332 N 
ATOM      6  C   UNL     1       2.045  -0.689  -1.190  0.00  0.00    +0.261 C 
ATOM      7  H   UNL     1       3.579  -1.537  -2.054  0.00  0.00    +0.165 HD
ENDROOT
BRANCH   3   8
ATOM      8  C   UNL     1      -0.247  -1.688  -4.584  0.00  0.00    +0.080 A 
ATOM      9  C   UNL     1      -1.495  -1.150  -4.747  0.00  0.00    +0.076 A 
ATOM     10  S   UNL     1      -1.908  -1.753  -6.378  0.00  0.00    -0.060 S 
ATOM     11  C   UNL     1      -0.393  -2.652  -6.678  0.00  0.00    +0.156 A 
ATOM     12  N   UNL     1       0.276  -2.425  -5.562  0.00  0.00    -0.225 NA
ATOM     13  N   UNL     1      -0.018  -3.389  -7.789  0.00  0.00    -0.338 N 
ATOM     14  H   UNL     1      -0.619  -3.466  -8.546  0.00  0.00    +0.144 HD
ATOM     15  H   UNL     1       0.847  -3.829  -7.810  0.00  0.00    +0.144 HD
ENDBRANCH   3   8
BRANCH   4  16
ATOM     16  C   UNL     1       1.749  -3.519  -2.898  0.00  0.00    -0.021 A 
ATOM     17  C   UNL     1       1.444  -3.948  -1.619  0.00  0.00    +0.007 A 
ATOM     18  C   UNL     1       1.321  -5.299  -1.355  0.00  0.00    +0.020 A 
ATOM     19  C   UNL     1       1.504  -6.222  -2.369  0.00  0.00    +0.041 A 
ATOM     20  C   UNL     1       1.809  -5.792  -3.648  0.00  0.00    +0.020 A 
ATOM     21  C   UNL     1       1.925  -4.440  -3.913  0.00  0.00    +0.007 A 
ATOM     22 CL   UNL     1       1.351  -7.919  -2.038  0.00  0.00    -0.084 Cl
ENDBRANCH   4  16
BRANCH   1  24
ATOM     23  C   UNL     1      -0.019   1.526   0.010  0.00  0.00    +0.025 C 
ATOM     24  C   UNL     1       0.002  -0.004   0.002  0.00  0.00    +0.111 C 
ENDBRANCH   1  24
BRANCH   6  25
ATOM     25  O   UNL     1       2.793  -0.137  -0.210  0.00  0.00    -0.483 OA
ATOM     26  H   UNL     1       3.737  -0.336  -0.276  0.00  0.00    +0.295 HD
ENDBRANCH   6  25
TORSDOF 4
