REMARK  Name = ZINC54344903
REMARK  8 active torsions:
REMARK  status: ('A' for Active; 'I' for Inactive)
REMARK    1  A    between atoms: C_1  and  C_2
REMARK    2  A    between atoms: C_3  and  N_9
REMARK    3  A    between atoms: C_4  and  C_8
REMARK    4  A    between atoms: N_5  and  C_7
REMARK    5  A    between atoms: C_10  and  C_12
REMARK    6  A    between atoms: C_12  and  C_14
REMARK    7  A    between atoms: C_12  and  C_15
REMARK    8  A    between atoms: C_15  and  N_16
REMARK                            x       y       z     vdW  Elec       q    Type
REMARK                         _______ _______ _______ _____ _____    ______ ____
ROOT
ATOM      1  N   UNL     1      -0.220  -0.378  -2.465  0.00  0.00    -0.282 N 
ATOM      2  C   UNL     1       0.133   0.881  -2.793  0.00  0.00    +0.218 C 
ATOM      3  O   UNL     1       0.646   1.603  -1.964  0.00  0.00    -0.275 OA
ATOM      4  H   UNL     1      -0.572  -0.975  -3.143  0.00  0.00    +0.155 HD
ENDROOT
BRANCH   1   7
ATOM      5  C   UNL     1      -2.002   0.558  -0.087  0.00  0.00    +0.069 C 
ATOM      6  C   UNL     1      -0.861  -0.426  -0.044  0.00  0.00    +0.081 A 
ATOM      7  C   UNL     1      -0.079  -0.824  -1.137  0.00  0.00    +0.077 A 
ATOM      8  C   UNL     1       0.840  -1.718  -0.688  0.00  0.00    +0.057 A 
ATOM      9  N   UNL     1       0.640  -1.875   0.646  0.00  0.00    -0.270 N 
ATOM     10  N   UNL     1      -0.428  -1.050   1.021  0.00  0.00    -0.175 NA
ATOM     11  C   UNL     1       1.408  -2.750   1.535  0.00  0.00    +0.172 C 
ATOM     12  C   UNL     1       1.890  -2.409  -1.519  0.00  0.00    +0.067 C 
ENDBRANCH   1   7
BRANCH   2  13
ATOM     13  C   UNL     1      -0.110   1.391  -4.190  0.00  0.00    +0.055 C 
ATOM     14  C   UNL     1       0.652   0.520  -5.191  0.00  0.00    +0.015 C 
BRANCH  13  15
ATOM     15  C   UNL     1       0.378   2.837  -4.297  0.00  0.00    -0.074 C 
BRANCH  15  16
ATOM     16  N   UNL     1       0.034   3.374  -5.621  0.00  0.00    +0.379 N 
ATOM     17  H   UNL     1       0.477   2.816  -6.335  0.00  0.00    -0.090 HD
ATOM     18  H   UNL     1      -0.967   3.347  -5.745  0.00  0.00    -0.090 HD
ATOM     19  H   UNL     1       0.356   4.327  -5.691  0.00  0.00    -0.090 HD
ENDBRANCH  15  16
ENDBRANCH  13  15
ENDBRANCH   2  13
TORSDOF 4
