REMARK  Name = ZINC63165660
REMARK  10 active torsions:
REMARK  status: ('A' for Active; 'I' for Inactive)
REMARK    1  A    between atoms: C_1  and  N_2
REMARK    2  A    between atoms: N_2  and  C_3
REMARK    3  A    between atoms: C_7  and  N_10
REMARK    4  A    between atoms: C_11  and  C_13
REMARK    5  A    between atoms: C_13  and  C_15
REMARK    6  A    between atoms: C_13  and  N_25
REMARK    7  A    between atoms: C_15  and  C_16
REMARK    8  A    between atoms: C_26  and  O_28
REMARK    9  A    between atoms: O_28  and  C_29
REMARK   10  A    between atoms: C_29  and  C_30
REMARK                            x       y       z     vdW  Elec       q    Type
REMARK                         _______ _______ _______ _____ _____    ______ ____
ROOT
ATOM      1  C   UNL     1       0.080  -5.071  -6.029  0.00  0.00    +0.166 C 
ENDROOT
BRANCH   1   3
ATOM      2  N   UNL     1       0.185  -3.010  -4.665  0.00  0.00    -0.283 N 
ATOM      3  C   UNL     1       0.069  -4.353  -4.705  0.00  0.00    +0.238 C 
ATOM      4  O   UNL     1      -0.043  -4.982  -3.674  0.00  0.00    -0.273 OA
ATOM      5  H   UNL     1       0.201  -2.500  -5.490  0.00  0.00    +0.155 HD
BRANCH   2  12
ATOM      6  C   UNL     1       1.249  -0.860   1.264  0.00  0.00    +0.130 C 
ATOM      7  N   UNL     1       0.499  -0.305   0.134  0.00  0.00    -0.321 N 
ATOM      8  C   UNL     1      -0.180   0.986   0.268  0.00  0.00    +0.130 C 
ATOM      9  C   UNL     1       0.431  -1.006  -1.067  0.00  0.00    +0.121 A 
ATOM     10  C   UNL     1       0.984  -2.279  -1.153  0.00  0.00    +0.045 A 
ATOM     11  C   UNL     1       0.911  -2.966  -2.351  0.00  0.00    +0.028 A 
ATOM     12  C   UNL     1       0.282  -2.351  -3.432  0.00  0.00    +0.052 A 
ATOM     13  C   UNL     1      -0.246  -1.079  -3.273  0.00  0.00    +0.136 A 
ATOM     14  N   UNL     1      -0.163  -0.454  -2.113  0.00  0.00    -0.238 NA
ENDBRANCH   2  12
ENDBRANCH   1   3
BRANCH   1  15
ATOM     15  N   UNL     1      -0.059  -6.512  -5.804  0.00  0.00    -0.269 N 
ATOM     16  C   UNL     1      -0.620  -7.291  -6.751  0.00  0.00    +0.401 C 
ATOM     17  O   UNL     1      -1.010  -6.798  -7.790  0.00  0.00    -0.226 OA
ATOM     18  H   UNL     1       0.253  -6.906  -4.974  0.00  0.00    +0.153 HD
BRANCH  16  19
ATOM     19  O   UNL     1      -0.748  -8.615  -6.544  0.00  0.00    -0.446 OA
BRANCH  19  20
ATOM     20  C   UNL     1      -1.352  -9.380  -7.589  0.00  0.00    +0.269 C 
BRANCH  20  21
ATOM     21  C   UNL     1      -1.409 -10.829  -7.182  0.00  0.00    -0.010 A 
ATOM     22  C   UNL     1      -0.356 -11.674  -7.481  0.00  0.00    +0.007 A 
ATOM     23  C   UNL     1      -0.409 -13.003  -7.108  0.00  0.00    +0.000 A 
ATOM     24  C   UNL     1      -1.515 -13.489  -6.435  0.00  0.00    +0.000 A 
ATOM     25  C   UNL     1      -2.568 -12.645  -6.136  0.00  0.00    +0.000 A 
ATOM     26  C   UNL     1      -2.513 -11.314  -6.505  0.00  0.00    +0.007 A 
ENDBRANCH  20  21
ENDBRANCH  19  20
ENDBRANCH  16  19
ENDBRANCH   1  15
BRANCH   1  27
ATOM     27  C   UNL     1       1.401  -4.793  -6.750  0.00  0.00    +0.065 C 
BRANCH  27  28
ATOM     28  C   UNL     1       2.543  -5.345  -5.937  0.00  0.00    -0.039 C 
ATOM     29  C   UNL     1       3.140  -6.550  -6.088  0.00  0.00    -0.001 A 
ATOM     30  C   UNL     1       2.913  -7.663  -7.018  0.00  0.00    +0.010 A 
ATOM     31  C   UNL     1       3.689  -8.766  -6.922  0.00  0.00    +0.001 A 
ATOM     32  C   UNL     1       4.703  -8.873  -5.959  0.00  0.00    +0.002 A 
ATOM     33  C   UNL     1       4.971  -7.893  -5.071  0.00  0.00    +0.026 A 
ATOM     34  C   UNL     1       4.217  -6.687  -5.081  0.00  0.00    +0.043 A 
ATOM     35  N   UNL     1       4.282  -5.610  -4.337  0.00  0.00    -0.380 N 
ATOM     36  C   UNL     1       3.258  -4.664  -4.792  0.00  0.00    +0.144 C 
ATOM     37  H   UNL     1       4.907  -5.462  -3.610  0.00  0.00    +0.160 HD
ENDBRANCH  27  28
ENDBRANCH   1  27
TORSDOF 8
