REMARK  Name = ZINC67126209
REMARK  6 active torsions:
REMARK  status: ('A' for Active; 'I' for Inactive)
REMARK    1  A    between atoms: C_6  and  C_7
REMARK    2  A    between atoms: C_10  and  C_12
REMARK    3  A    between atoms: C_12  and  C_13
REMARK    4  A    between atoms: C_13  and  C_14
REMARK    5  A    between atoms: C_14  and  C_15
REMARK    6  A    between atoms: C_15  and  C_16
REMARK                            x       y       z     vdW  Elec       q    Type
REMARK                         _______ _______ _______ _____ _____    ______ ____
ROOT
ATOM      1  C   UNL     1       3.549   1.599   3.159  0.00  0.00    +0.096 C 
ENDROOT
BRANCH   1   8
ATOM      2  C   UNL     1      -0.019   1.526   0.010  0.00  0.00    +0.032 C 
ATOM      3  C   UNL     1       1.420   2.052  -0.001  0.00  0.00    +0.108 C 
ATOM      4  N   UNL     1       2.151   1.453   1.124  0.00  0.00    -0.301 N 
ATOM      5  C   UNL     1       2.159  -0.010   1.262  0.00  0.00    +0.108 C 
ATOM      6  C   UNL     1       0.712  -0.513   1.258  0.00  0.00    +0.032 C 
ATOM      7  C   UNL     1       0.002  -0.004   0.002  0.00  0.00    +0.078 C 
ATOM      8  C   UNL     1       2.803   2.229   2.011  0.00  0.00    +0.216 C 
ATOM      9  O   UNL     1       2.790   3.436   1.886  0.00  0.00    -0.276 OA
BRANCH   7  10
ATOM     10  C   UNL     1      -1.412  -0.525  -0.022  0.00  0.00    +0.214 C 
ATOM     11  O   UNL     1      -2.344   0.251  -0.031  0.00  0.00    -0.276 OA
ATOM     12  N   UNL     1      -1.640  -1.853  -0.033  0.00  0.00    -0.329 N 
ATOM     13  H   UNL     1      -0.895  -2.474  -0.025  0.00  0.00    +0.145 HD
ATOM     14  H   UNL     1      -2.550  -2.189  -0.048  0.00  0.00    +0.145 HD
ENDBRANCH   7  10
ENDBRANCH   1   8
BRANCH   1  15
ATOM     15  C   UNL     1       4.195   2.694   4.011  0.00  0.00    +0.009 C 
BRANCH  15  16
ATOM     16  C   UNL     1       4.952   2.054   5.176  0.00  0.00    +0.002 C 
BRANCH  16  17
ATOM     17  C   UNL     1       5.598   3.150   6.027  0.00  0.00    +0.016 C 
BRANCH  17  18
ATOM     18  C   UNL     1       6.355   2.510   7.192  0.00  0.00    +0.069 C 
ATOM     19  C   UNL     1       6.987   3.586   8.101  0.00  0.00    +0.108 C 
ATOM     20  C   UNL     1       8.391   3.227   8.597  0.00  0.00    +0.105 C 
ATOM     21  C   UNL     1       8.900   1.863   8.082  0.00  0.00    +0.093 C 
ATOM     22  S   UNL     1       7.853   1.611   6.596  0.00  0.00    -0.154 S 
ATOM     23  N   UNL     1       9.247   4.290   8.047  0.00  0.00    -0.294 N 
ATOM     24  C   UNL     1       8.489   5.141   7.343  0.00  0.00    +0.300 C 
ATOM     25  O   UNL     1       8.939   6.117   6.775  0.00  0.00    -0.253 OA
ATOM     26  N   UNL     1       7.198   4.814   7.317  0.00  0.00    -0.294 N 
ATOM     27  H   UNL     1      10.206   4.363   8.174  0.00  0.00    +0.151 HD
ATOM     28  H   UNL     1       6.506   5.312   6.854  0.00  0.00    +0.151 HD
ENDBRANCH  17  18
ENDBRANCH  16  17
ENDBRANCH  15  16
ENDBRANCH   1  15
TORSDOF 6
