REMARK  Name = ZINC63589291
REMARK  8 active torsions:
REMARK  status: ('A' for Active; 'I' for Inactive)
REMARK    1  A    between atoms: C_1  and  O_2
REMARK    2  A    between atoms: O_2  and  C_3
REMARK    3  A    between atoms: C_6  and  N_10
REMARK    4  A    between atoms: N_12  and  C_13
REMARK    5  A    between atoms: C_13  and  C_14
REMARK    6  A    between atoms: C_14  and  C_15
REMARK    7  A    between atoms: N_24  and  C_25
REMARK    8  A    between atoms: C_25  and  C_27
REMARK                            x       y       z     vdW  Elec       q    Type
REMARK                         _______ _______ _______ _____ _____    ______ ____
ROOT
ATOM      1  N   UNL     1       2.718  -2.646  -3.896  0.00  0.00    -0.328 N 
ATOM      2  C   UNL     1       2.465  -3.903  -4.364  0.00  0.00    +0.194 C 
ATOM      3  N   UNL     1       2.897  -4.269  -5.605  0.00  0.00    -0.357 N 
ATOM      4  N   UNL     1       1.800  -4.767  -3.612  0.00  0.00    -0.143 NA
ATOM      5  H   UNL     1       3.464  -3.671  -6.117  0.00  0.00    +0.162 HD
ATOM      6  H   UNL     1       2.768  -2.484  -2.941  0.00  0.00    +0.169 HD
ENDROOT
BRANCH   1  10
ATOM      7  C   UNL     1       3.278   0.501  -6.574  0.00  0.00    +0.138 A 
ATOM      8  C   UNL     1       4.078   0.400  -5.446  0.00  0.00    +0.049 A 
ATOM      9  C   UNL     1       3.893  -0.641  -4.558  0.00  0.00    +0.029 A 
ATOM     10  C   UNL     1       2.905  -1.589  -4.796  0.00  0.00    +0.043 A 
ATOM     11  C   UNL     1       2.104  -1.487  -5.925  0.00  0.00    +0.049 A 
ATOM     12  C   UNL     1       2.287  -0.441  -6.809  0.00  0.00    +0.084 A 
ATOM     13 CL   UNL     1       1.280  -0.310  -8.218  0.00  0.00    -0.080 Cl
BRANCH   7  15
ATOM     14  C   UNL     1       4.500   2.461  -7.143  0.00  0.00    +0.277 C 
ATOM     15  O   UNL     1       3.461   1.528  -7.447  0.00  0.00    -0.494 OA
ENDBRANCH   7  15
ENDBRANCH   1  10
BRANCH   4  16
ATOM     16  C   UNL     1       1.223  -4.360  -2.474  0.00  0.00    +0.270 C 
ATOM     17  O   UNL     1       1.150  -3.171  -2.219  0.00  0.00    -0.268 OA
BRANCH  16  18
ATOM     18  C   UNL     1       0.676  -5.355  -1.525  0.00  0.00    +0.043 A 
ATOM     19  C   UNL     1       0.863  -6.719  -1.756  0.00  0.00    +0.017 A 
ATOM     20  C   UNL     1       0.353  -7.644  -0.872  0.00  0.00    +0.050 A 
ATOM     21  C   UNL     1      -0.349  -7.225   0.250  0.00  0.00    +0.166 A 
ATOM     22  C   UNL     1      -0.539  -5.863   0.486  0.00  0.00    +0.167 A 
ATOM     23  C   UNL     1      -0.025  -4.931  -0.394  0.00  0.00    +0.062 A 
ATOM     24  O   UNL     1      -1.253  -5.717   1.641  0.00  0.00    -0.453 OA
ATOM     25  C   UNL     1      -1.847  -7.005   1.891  0.00  0.00    +0.466 C 
ATOM     26  O   UNL     1      -0.942  -7.928   1.257  0.00  0.00    -0.453 OA
ENDBRANCH  16  18
ENDBRANCH   4  16
BRANCH   3  27
ATOM     27  C   UNL     1       2.505  -5.565  -6.165  0.00  0.00    +0.120 C 
BRANCH  27  28
ATOM     28  C   UNL     1       3.119  -5.726  -7.557  0.00  0.00    +0.054 C 
BRANCH  28  29
ATOM     29  C   UNL     1       2.715  -7.059  -8.133  0.00  0.00    -0.040 C 
ATOM     30  C   UNL     1       1.676  -7.305  -8.963  0.00  0.00    -0.001 A 
ATOM     31  C   UNL     1       0.650  -6.439  -9.556  0.00  0.00    +0.010 A 
ATOM     32  C   UNL     1      -0.282  -6.987 -10.367  0.00  0.00    +0.001 A 
ATOM     33  C   UNL     1      -0.293  -8.359 -10.656  0.00  0.00    +0.002 A 
ATOM     34  C   UNL     1       0.616  -9.218 -10.150  0.00  0.00    +0.026 A 
ATOM     35  C   UNL     1       1.643  -8.750  -9.284  0.00  0.00    +0.043 A 
ATOM     36  N   UNL     1       2.623  -9.373  -8.676  0.00  0.00    -0.380 N 
ATOM     37  C   UNL     1       3.393  -8.391  -7.904  0.00  0.00    +0.144 C 
ATOM     38  H   UNL     1       2.810 -10.323  -8.730  0.00  0.00    +0.160 HD
ENDBRANCH  28  29
ENDBRANCH  27  28
ENDBRANCH   3  27
TORSDOF 7
