REMARK  Name = ZINC35288740
REMARK  14 active torsions:
REMARK  status: ('A' for Active; 'I' for Inactive)
REMARK    1  A    between atoms: C_3  and  O_9
REMARK    2  A    between atoms: C_6  and  C_7
REMARK    3  A    between atoms: O_9  and  C_10
REMARK    4  A    between atoms: C_10  and  C_11
REMARK    5  A    between atoms: C_11  and  C_13
REMARK    6  A    between atoms: C_11  and  O_35
REMARK    7  A    between atoms: C_13  and  N_14
REMARK    8  A    between atoms: N_18  and  C_21
REMARK    9  A    between atoms: C_21  and  C_22
REMARK   10  A    between atoms: C_22  and  C_24
REMARK   11  A    between atoms: C_22  and  O_34
REMARK   12  A    between atoms: C_24  and  O_25
REMARK   13  A    between atoms: O_25  and  C_26
REMARK   14  A    between atoms: C_29  and  C_32
REMARK                            x       y       z     vdW  Elec       q    Type
REMARK                         _______ _______ _______ _____ _____    ______ ____
ROOT
ATOM      1  N   UNL     1       8.499   2.302  -0.187  0.00  0.00    +0.382 N 
ATOM      2  C   UNL     1       8.643   2.923   1.106  0.00  0.00    -0.077 C 
ATOM      3  C   UNL     1       9.273   4.315   0.906  0.00  0.00    -0.003 C 
ATOM      4  C   UNL     1      10.722   4.251   0.740  0.00  0.00    +0.082 C 
ATOM      5  N   UNL     1      11.100   3.447  -0.450  0.00  0.00    -0.302 NA
ATOM      6  C   UNL     1      11.005   2.041  -0.146  0.00  0.00    +0.066 C 
ATOM      7  C   UNL     1       9.646   1.429  -0.530  0.00  0.00    -0.063 C 
ATOM      8  H   UNL     1       8.419   3.025  -0.887  0.00  0.00    -0.082 HD
ENDROOT
BRANCH   1   9
ATOM      9  C   UNL     1       7.271   1.497  -0.193  0.00  0.00    -0.044 C 
BRANCH   9  10
ATOM     10  C   UNL     1       6.986   1.012  -1.615  0.00  0.00    +0.135 C 
BRANCH  10  11
ATOM     11  O   UNL     1       6.747   2.137  -2.464  0.00  0.00    -0.390 OA
ATOM     12  H   UNL     1       6.035   2.715  -2.159  0.00  0.00    +0.210 HD
ENDBRANCH  10  11
BRANCH  10  13
ATOM     13  C   UNL     1       5.751   0.108  -1.608  0.00  0.00    +0.258 C 
BRANCH  13  14
ATOM     14  O   UNL     1       5.553  -0.439  -2.914  0.00  0.00    -0.489 OA
BRANCH  14  17
ATOM     15  C   UNL     1       3.168  -2.678  -4.498  0.00  0.00    +0.022 A 
ATOM     16  C   UNL     1       4.243  -1.834  -4.325  0.00  0.00    +0.047 A 
ATOM     17  C   UNL     1       4.492  -1.269  -3.080  0.00  0.00    +0.121 A 
ATOM     18  C   UNL     1       3.658  -1.551  -2.005  0.00  0.00    +0.047 A 
ATOM     19  C   UNL     1       2.581  -2.393  -2.169  0.00  0.00    +0.022 A 
ATOM     20  C   UNL     1       2.327  -2.964  -3.419  0.00  0.00    +0.052 A 
BRANCH  20  21
ATOM     21  C   UNL     1       1.208  -3.840  -3.594  0.00  0.00    +0.099 C 
ATOM     22  N   UNL     1       0.320  -4.535  -3.733  0.00  0.00    -0.191 NA
ENDBRANCH  20  21
ENDBRANCH  14  17
ENDBRANCH  13  14
ENDBRANCH  10  13
ENDBRANCH   9  10
ENDBRANCH   1   9
BRANCH   5  23
ATOM     23  C   UNL     1      12.451   3.795  -0.913  0.00  0.00    +0.119 C 
BRANCH  23  24
ATOM     24  C   UNL     1      12.458   5.235  -1.429  0.00  0.00    +0.166 C 
BRANCH  24  25
ATOM     25  O   UNL     1      11.537   5.357  -2.514  0.00  0.00    -0.387 OA
ATOM     26  H   UNL     1      11.737   4.783  -3.267  0.00  0.00    +0.210 HD
ENDBRANCH  24  25
BRANCH  24  27
ATOM     27  C   UNL     1      13.864   5.598  -1.910  0.00  0.00    +0.261 C 
BRANCH  27  28
ATOM     28  O   UNL     1      13.899   6.977  -2.283  0.00  0.00    -0.489 OA
BRANCH  28  29
ATOM     29  C   UNL     1      15.083   7.463  -2.736  0.00  0.00    +0.121 A 
ATOM     30  C   UNL     1      16.188   6.624  -2.825  0.00  0.00    +0.047 A 
ATOM     31  C   UNL     1      17.391   7.113  -3.284  0.00  0.00    +0.022 A 
ATOM     32  C   UNL     1      17.500   8.454  -3.662  0.00  0.00    +0.052 A 
ATOM     33  C   UNL     1      16.386   9.294  -3.571  0.00  0.00    +0.022 A 
ATOM     34  C   UNL     1      15.185   8.796  -3.115  0.00  0.00    +0.047 A 
BRANCH  32  35
ATOM     35  C   UNL     1      18.748   8.967  -4.139  0.00  0.00    +0.099 C 
ATOM     36  N   UNL     1      19.739   9.373  -4.518  0.00  0.00    -0.191 NA
ENDBRANCH  32  35
ENDBRANCH  28  29
ENDBRANCH  27  28
ENDBRANCH  24  27
ENDBRANCH  23  24
ENDBRANCH   5  23
TORSDOF 14
