REMARK  Name = ZINC15318868
REMARK  6 active torsions:
REMARK  status: ('A' for Active; 'I' for Inactive)
REMARK    1  A    between atoms: C_6  and  C_7
REMARK    2  A    between atoms: C_9  and  C_31
REMARK    3  A    between atoms: C_14  and  C_16
REMARK    4  A    between atoms: C_16  and  O_18
REMARK    5  A    between atoms: O_18  and  C_19
REMARK    6  A    between atoms: C_19  and  C_20
REMARK                            x       y       z     vdW  Elec       q    Type
REMARK                         _______ _______ _______ _____ _____    ______ ____
ROOT
ATOM      1  C   UNL     1       2.370   1.322  -0.013  0.00  0.00    +0.075 A 
ATOM      2  C   UNL     1       1.153   2.041   0.002  0.00  0.00    +0.060 A 
ATOM      3  C   UNL     1      -0.017   1.365   0.009  0.00  0.00    +0.149 A 
ATOM      4  N   UNL     1       0.002  -0.004   0.002  0.00  0.00    -0.209 N 
ATOM      5  C   UNL     1       1.201  -0.673  -0.013  0.00  0.00    +0.157 A 
ATOM      6  N   UNL     1       2.358   0.002  -0.021  0.00  0.00    -0.228 NA
ATOM      7  C   UNL     1       0.913  -2.029  -0.017  0.00  0.00    +0.085 A 
ATOM      8  C   UNL     1      -0.480  -2.166  -0.004  0.00  0.00    +0.172 A 
ATOM      9  N   UNL     1      -1.023  -0.958   0.007  0.00  0.00    -0.158 NA
ENDROOT
BRANCH   1  15
ATOM     10  C   UNL     1       3.675   3.445  -0.020  0.00  0.00    +0.014 A 
ATOM     11  C   UNL     1       4.877   4.122  -0.023  0.00  0.00    +0.050 A 
ATOM     12  C   UNL     1       6.073   3.420  -0.039  0.00  0.00    +0.166 A 
ATOM     13  C   UNL     1       6.064   2.025  -0.045  0.00  0.00    +0.167 A 
ATOM     14  C   UNL     1       4.862   1.342  -0.037  0.00  0.00    +0.059 A 
ATOM     15  C   UNL     1       3.660   2.050  -0.022  0.00  0.00    +0.004 A 
ATOM     16  O   UNL     1       7.355   1.581  -0.060  0.00  0.00    -0.453 OA
ATOM     17  C   UNL     1       8.153   2.707   0.350  0.00  0.00    +0.466 C 
ATOM     18  O   UNL     1       7.369   3.846  -0.049  0.00  0.00    -0.453 OA
ENDBRANCH   1  15
BRANCH   3  19
ATOM     19  C   UNL     1      -1.327   2.109   0.020  0.00  0.00    +0.434 C 
ATOM     20  F   UNL     1      -1.726   2.332   1.342  0.00  0.00    -0.164 F 
ATOM     21  F   UNL     1      -1.172   3.336  -0.634  0.00  0.00    -0.164 F 
ATOM     22  F   UNL     1      -2.300   1.349  -0.639  0.00  0.00    -0.164 F 
ENDBRANCH   3  19
BRANCH   8  23
ATOM     23  C   UNL     1      -1.221  -3.444  -0.004  0.00  0.00    +0.360 C 
ATOM     24  O   UNL     1      -0.616  -4.497  -0.016  0.00  0.00    -0.243 OA
BRANCH  23  25
ATOM     25  O   UNL     1      -2.568  -3.441   0.009  0.00  0.00    -0.460 OA
BRANCH  25  26
ATOM     26  C   UNL     1      -3.230  -4.734   0.009  0.00  0.00    +0.234 C 
BRANCH  26  27
ATOM     27  C   UNL     1      -4.746  -4.530   0.025  0.00  0.00    +0.013 C 
ATOM     28  C   UNL     1      -5.181  -3.843  -1.271  0.00  0.00    +0.003 C 
ATOM     29  C   UNL     1      -4.832  -4.755  -2.451  0.00  0.00    -0.018 C 
ATOM     30  C   UNL     1      -5.548  -6.093  -2.269  0.00  0.00    -0.078 C 
ATOM     31  C   UNL     1      -5.441  -5.890   0.150  0.00  0.00    -0.062 C 
ATOM     32  C   UNL     1      -4.945  -6.561   1.435  0.00  0.00    -0.015 C 
ATOM     33  C   UNL     1      -5.580  -7.945   1.577  0.00  0.00    -0.003 C 
ATOM     34  C   UNL     1      -5.224  -8.778   0.342  0.00  0.00    -0.019 C 
ATOM     35  C   UNL     1      -5.739  -8.059  -0.904  0.00  0.00    -0.078 C 
ATOM     36  N   UNL     1      -5.097  -6.736  -1.022  0.00  0.00    +0.382 N 
ATOM     37  H   UNL     1      -4.078  -6.857  -1.055  0.00  0.00    -0.081 HD
ENDBRANCH  26  27
ENDBRANCH  25  26
ENDBRANCH  23  25
ENDBRANCH   8  23
TORSDOF 6
