REMARK  Name = ZINC16569721
REMARK  11 active torsions:
REMARK  status: ('A' for Active; 'I' for Inactive)
REMARK    1  A    between atoms: C_1  and  C_2
REMARK    2  A    between atoms: C_2  and  C_3
REMARK    3  A    between atoms: C_2  and  N_4
REMARK    4  A    between atoms: N_4  and  C_5
REMARK    5  A    between atoms: C_5  and  C_6
REMARK    6  A    between atoms: C_20  and  C_22
REMARK    7  A    between atoms: C_25  and  O_28
REMARK    8  A    between atoms: O_28  and  C_29
REMARK    9  A    between atoms: N_32  and  C_33
REMARK   10  A    between atoms: C_38  and  O_39
REMARK   11  A    between atoms: O_39  and  C_40
REMARK                            x       y       z     vdW  Elec       q    Type
REMARK                         _______ _______ _______ _____ _____    ______ ____
ROOT
ATOM      1  C   UNL     1      -2.392  -4.761   1.054  0.00  0.00    +0.238 C 
ATOM      2  O   UNL     1      -2.362  -4.268  -0.054  0.00  0.00    -0.273 OA
ATOM      3  N   UNL     1      -2.495  -6.098   1.193  0.00  0.00    -0.255 N 
ATOM      4  C   UNL     1      -2.455  -6.925   0.062  0.00  0.00    +0.061 A 
ATOM      5  C   UNL     1      -2.903  -6.462  -1.165  0.00  0.00    +0.025 A 
ATOM      6  C   UNL     1      -2.847  -7.285  -2.275  0.00  0.00    +0.002 A 
ATOM      7  C   UNL     1      -2.346  -8.569  -2.169  0.00  0.00    +0.002 A 
ATOM      8  C   UNL     1      -1.900  -9.043  -0.948  0.00  0.00    +0.028 A 
ATOM      9  C   UNL     1      -1.957  -8.228   0.165  0.00  0.00    +0.068 A 
ATOM     10  N   UNL     1      -1.539  -8.670   1.429  0.00  0.00    -0.316 N 
ATOM     11  C   UNL     1      -0.820  -9.764   1.777  0.00  0.00    +0.092 A 
ATOM     12  C   UNL     1      -0.665  -9.756   3.120  0.00  0.00    +0.020 A 
ATOM     13  C   UNL     1      -1.319  -8.607   3.618  0.00  0.00    +0.025 A 
ATOM     14  C   UNL     1      -1.845  -7.963   2.571  0.00  0.00    +0.049 A 
ATOM     15  C   UNL     1      -2.645  -6.688   2.534  0.00  0.00    +0.159 C 
ENDROOT
BRANCH  15  16
ATOM     16  C   UNL     1      -4.097  -6.993   2.798  0.00  0.00    -0.021 A 
ATOM     17  C   UNL     1      -4.889  -7.508   1.788  0.00  0.00    +0.009 A 
ATOM     18  C   UNL     1      -6.219  -7.794   2.029  0.00  0.00    +0.046 A 
ATOM     19  C   UNL     1      -6.762  -7.554   3.283  0.00  0.00    +0.120 A 
ATOM     20  C   UNL     1      -5.967  -7.033   4.293  0.00  0.00    +0.046 A 
ATOM     21  C   UNL     1      -4.637  -6.753   4.048  0.00  0.00    +0.009 A 
BRANCH  19  22
ATOM     22  O   UNL     1      -8.072  -7.830   3.521  0.00  0.00    -0.495 OA
ATOM     23  C   UNL     1      -8.830  -8.365   2.435  0.00  0.00    +0.277 C 
ENDBRANCH  19  22
ENDBRANCH  15  16
BRANCH   1  24
ATOM     24  C   UNL     1      -2.313  -3.880   2.274  0.00  0.00    +0.205 C 
BRANCH  24  25
ATOM     25  N   UNL     1      -2.038  -2.501   1.863  0.00  0.00    -0.274 N 
ATOM     26  C   UNL     1      -3.057  -1.660   1.599  0.00  0.00    +0.307 C 
ATOM     27  O   UNL     1      -2.830  -0.543   1.176  0.00  0.00    -0.252 OA
ATOM     28  N   UNL     1      -4.329  -2.058   1.804  0.00  0.00    -0.266 N 
ATOM     29  H   UNL     1      -4.509  -2.936   2.173  0.00  0.00    +0.156 HD
BRANCH  28  30
ATOM     30  C   UNL     1      -5.391  -1.201   1.484  0.00  0.00    +0.077 A 
ATOM     31  C   UNL     1      -5.175   0.165   1.376  0.00  0.00    +0.027 A 
ATOM     32  C   UNL     1      -6.223   1.008   1.060  0.00  0.00    +0.002 A 
ATOM     33  C   UNL     1      -7.490   0.493   0.851  0.00  0.00    +0.004 A 
ATOM     34  C   UNL     1      -7.713  -0.867   0.956  0.00  0.00    +0.047 A 
ATOM     35  C   UNL     1      -6.667  -1.719   1.273  0.00  0.00    +0.141 A 
BRANCH  35  36
ATOM     36  O   UNL     1      -6.884  -3.058   1.372  0.00  0.00    -0.493 OA
ATOM     37  C   UNL     1      -8.217  -3.517   1.143  0.00  0.00    +0.277 C 
ENDBRANCH  35  36
ENDBRANCH  28  30
BRANCH  25  39
ATOM     38  C   UNL     1       0.012  -2.045   3.117  0.00  0.00    +0.028 C 
ATOM     39  C   UNL     1      -0.654  -2.036   1.740  0.00  0.00    +0.072 C 
ATOM     40  C   UNL     1       0.114  -2.964   0.796  0.00  0.00    +0.028 C 
ENDBRANCH  25  39
ENDBRANCH  24  25
ENDBRANCH   1  24
TORSDOF 7
