REMARK  Name = ZINC36484943
REMARK  15 active torsions:
REMARK  status: ('A' for Active; 'I' for Inactive)
REMARK    1  A    between atoms: C_1  and  C_2
REMARK    2  A    between atoms: C_2  and  C_3
REMARK    3  A    between atoms: C_2  and  C_4
REMARK    4  A    between atoms: C_2  and  N_5
REMARK    5  A    between atoms: C_6  and  C_8
REMARK    6  A    between atoms: C_8  and  C_10
REMARK    7  A    between atoms: C_8  and  N_20
REMARK    8  A    between atoms: C_13  and  O_18
REMARK    9  A    between atoms: C_14  and  O_16
REMARK   10  A    between atoms: O_16  and  C_17
REMARK   11  A    between atoms: O_18  and  C_19
REMARK   12  A    between atoms: N_20  and  C_21
REMARK   13  A    between atoms: C_28  and  C_30
REMARK   14  A    between atoms: C_31  and  O_37
REMARK   15  A    between atoms: C_35  and  O_36
REMARK                            x       y       z     vdW  Elec       q    Type
REMARK                         _______ _______ _______ _____ _____    ______ ____
ROOT
ATOM      1  N   UNL     1       4.068  -0.302  -3.498  0.00  0.00    -0.251 N 
ATOM      2  C   UNL     1       4.018   1.025  -3.728  0.00  0.00    +0.259 C 
ATOM      3  O   UNL     1       3.134   1.695  -3.229  0.00  0.00    -0.269 OA
ENDROOT
BRANCH   1   4
ATOM      4  C   UNL     1       5.028  -1.088  -4.143  0.00  0.00    +0.039 A 
ATOM      5  C   UNL     1       4.689  -1.803  -5.285  0.00  0.00    +0.023 A 
ATOM      6  C   UNL     1       5.639  -2.578  -5.921  0.00  0.00    +0.003 A 
ATOM      7  C   UNL     1       6.927  -2.643  -5.422  0.00  0.00    +0.020 A 
ATOM      8  C   UNL     1       7.269  -1.933  -4.285  0.00  0.00    +0.043 A 
ATOM      9  C   UNL     1       6.323  -1.151  -3.647  0.00  0.00    +0.043 A 
ATOM     10 CL   UNL     1       8.887  -2.019  -3.662  0.00  0.00    -0.083 Cl
ENDBRANCH   1   4
BRANCH   2  11
ATOM     11  C   UNL     1       5.033   1.662  -4.582  0.00  0.00    +0.120 A 
ATOM     12  C   UNL     1       4.805   1.814  -5.958  0.00  0.00    +0.133 A 
ATOM     13  C   UNL     1       5.766   2.416  -6.752  0.00  0.00    +0.046 A 
ATOM     14  C   UNL     1       6.948   2.867  -6.194  0.00  0.00    +0.007 A 
ATOM     15  C   UNL     1       7.184   2.723  -4.840  0.00  0.00    +0.046 A 
ATOM     16  C   UNL     1       6.233   2.128  -4.025  0.00  0.00    +0.133 A 
BRANCH  16  17
ATOM     17  O   UNL     1       6.465   1.993  -2.695  0.00  0.00    -0.506 OA
ATOM     18  H   UNL     1       6.902   1.165  -2.454  0.00  0.00    +0.292 HD
ENDBRANCH  16  17
BRANCH  12  19
ATOM     19  O   UNL     1       3.646   1.372  -6.508  0.00  0.00    -0.506 OA
ATOM     20  H   UNL     1       2.939   2.032  -6.519  0.00  0.00    +0.292 HD
ENDBRANCH  12  19
ENDBRANCH   2  11
BRANCH   1  21
ATOM     21  C   UNL     1       3.117  -0.922  -2.571  0.00  0.00    +0.198 C 
BRANCH  21  22
ATOM     22  C   UNL     1       3.299  -2.418  -2.590  0.00  0.00    -0.014 A 
ATOM     23  C   UNL     1       4.522  -2.968  -2.255  0.00  0.00    +0.010 A 
ATOM     24  C   UNL     1       4.694  -4.340  -2.271  0.00  0.00    +0.050 A 
ATOM     25  C   UNL     1       3.639  -5.166  -2.623  0.00  0.00    +0.162 A 
ATOM     26  C   UNL     1       2.407  -4.612  -2.960  0.00  0.00    +0.162 A 
ATOM     27  C   UNL     1       2.240  -3.237  -2.938  0.00  0.00    +0.055 A 
BRANCH  26  28
ATOM     28  O   UNL     1       1.369  -5.419  -3.307  0.00  0.00    -0.491 OA
ATOM     29  C   UNL     1       0.135  -4.781  -3.641  0.00  0.00    +0.277 C 
ENDBRANCH  26  28
BRANCH  25  30
ATOM     30  O   UNL     1       3.806  -6.516  -2.639  0.00  0.00    -0.491 OA
ATOM     31  C   UNL     1       5.097  -7.013  -2.282  0.00  0.00    +0.277 C 
ENDBRANCH  25  30
ENDBRANCH  21  22
BRANCH  21  33
ATOM     32  N   UNL     1       2.601  -0.837  -0.154  0.00  0.00    -0.309 N 
ATOM     33  C   UNL     1       3.362  -0.403  -1.178  0.00  0.00    +0.239 C 
ATOM     34  O   UNL     1       4.245   0.404  -0.978  0.00  0.00    -0.273 OA
ATOM     35  H   UNL     1       1.895  -1.482  -0.314  0.00  0.00    +0.149 HD
BRANCH  32  37
ATOM     36  C   UNL     1       2.655   1.186   1.220  0.00  0.00    +0.031 C 
ATOM     37  C   UNL     1       2.840  -0.333   1.201  0.00  0.00    +0.026 C 
ATOM     38  C   UNL     1       4.268  -0.679   1.629  0.00  0.00    +0.031 C 
ATOM     39  C   UNL     1       1.847  -0.980   2.168  0.00  0.00    +0.031 C 
ENDBRANCH  32  37
ENDBRANCH  21  33
ENDBRANCH   1  21
TORSDOF 10
