REMARK  Name = ZINC38789822
REMARK  7 active torsions:
REMARK  status: ('A' for Active; 'I' for Inactive)
REMARK    1  A    between atoms: C_1  and  C_2
REMARK    2  A    between atoms: C_2  and  C_3
REMARK    3  A    between atoms: C_10  and  C_15
REMARK    4  A    between atoms: C_15  and  N_16
REMARK    5  A    between atoms: N_16  and  C_17
REMARK    6  A    between atoms: C_19  and  C_24
REMARK    7  A    between atoms: C_22  and  O_23
REMARK                            x       y       z     vdW  Elec       q    Type
REMARK                         _______ _______ _______ _____ _____    ______ ____
ROOT
ATOM      1  C   UNL     1       5.375  -3.216  -3.436  0.00  0.00    +0.118 C 
ENDROOT
BRANCH   1   9
ATOM      2  C   UNL     1       0.707  -0.490  -1.238  0.00  0.00    -0.047 A 
ATOM      3  C   UNL     1      -0.031  -0.716  -2.400  0.00  0.00    +0.005 A 
ATOM      4  C   UNL     1       0.535  -1.153  -3.555  0.00  0.00    +0.024 A 
ATOM      5  C   UNL     1       1.918  -1.400  -3.623  0.00  0.00    +0.040 A 
ATOM      6  N   UNL     1       2.463  -1.829  -4.762  0.00  0.00    -0.284 N 
ATOM      7  C   UNL     1       3.754  -2.080  -4.895  0.00  0.00    +0.226 C 
ATOM      8  O   UNL     1       4.194  -2.469  -5.960  0.00  0.00    -0.275 OA
ATOM      9  C   UNL     1       4.682  -1.881  -3.718  0.00  0.00    +0.115 C 
ATOM     10  C   UNL     1       4.068  -1.393  -2.421  0.00  0.00    -0.003 C 
ATOM     11  C   UNL     1       2.723  -1.170  -2.411  0.00  0.00    -0.007 A 
ATOM     12  C   UNL     1       2.050  -0.694  -1.202  0.00  0.00    +0.013 A 
ATOM     13  H   UNL     1       1.884  -1.962  -5.529  0.00  0.00    +0.155 HD
BRANCH   2  15
ATOM     14  C   UNL     1      -0.019   1.526   0.010  0.00  0.00    +0.009 C 
ATOM     15  C   UNL     1       0.002  -0.004   0.002  0.00  0.00    +0.032 C 
ENDBRANCH   2  15
ENDBRANCH   1   9
BRANCH   1  16
ATOM     16  N   UNL     1       6.230  -3.572  -4.571  0.00  0.00    -0.340 N 
ATOM     17  H   UNL     1       6.283  -2.985  -5.341  0.00  0.00    +0.146 HD
BRANCH  16  18
ATOM     18  C   UNL     1       6.971  -4.759  -4.544  0.00  0.00    +0.070 A 
ATOM     19  C   UNL     1       6.892  -5.603  -3.446  0.00  0.00    +0.039 A 
ATOM     20  C   UNL     1       7.624  -6.776  -3.422  0.00  0.00    +0.057 A 
ATOM     21  C   UNL     1       8.435  -7.110  -4.491  0.00  0.00    +0.016 A 
ATOM     22  C   UNL     1       8.518  -6.274  -5.589  0.00  0.00    +0.048 A 
ATOM     23  C   UNL     1       7.784  -5.100  -5.623  0.00  0.00    +0.138 A 
BRANCH  20  24
ATOM     24  C   UNL     1       7.537  -7.691  -2.228  0.00  0.00    +0.417 C 
ATOM     25  F   UNL     1       6.504  -8.614  -2.422  0.00  0.00    -0.166 F 
ATOM     26  F   UNL     1       8.749  -8.373  -2.075  0.00  0.00    -0.166 F 
ATOM     27  F   UNL     1       7.279  -6.936  -1.079  0.00  0.00    -0.166 F 
ENDBRANCH  20  24
BRANCH  23  28
ATOM     28  O   UNL     1       7.861  -4.279  -6.704  0.00  0.00    -0.505 OA
ATOM     29  H   UNL     1       8.559  -3.612  -6.643  0.00  0.00    +0.292 HD
ENDBRANCH  23  28
ENDBRANCH  16  18
ENDBRANCH   1  16
TORSDOF 6
