REMARK  Name = ZINC41585551
REMARK  6 active torsions:
REMARK  status: ('A' for Active; 'I' for Inactive)
REMARK    1  A    between atoms: C_1  and  C_2
REMARK    2  A    between atoms: C_4  and  O_34
REMARK    3  A    between atoms: C_5  and  C_20
REMARK    4  A    between atoms: C_11  and  C_12
REMARK    5  A    between atoms: C_20  and  N_21
REMARK    6  A    between atoms: N_24  and  C_27
REMARK                            x       y       z     vdW  Elec       q    Type
REMARK                         _______ _______ _______ _____ _____    ______ ____
ROOT
ATOM      1  C   UNL     1      -0.464   1.818   0.202  0.00  0.00    +0.045 C 
ATOM      2  C   UNL     1      -0.338   0.321   0.074  0.00  0.00    -0.033 A 
ATOM      3  C   UNL     1      -0.350  -0.264  -1.161  0.00  0.00    +0.050 A 
ATOM      4  C   UNL     1      -0.233  -1.646  -1.281  0.00  0.00    +0.122 A 
ATOM      5  C   UNL     1      -0.105  -2.443  -0.154  0.00  0.00    +0.020 A 
ATOM      6  C   UNL     1      -0.092  -1.864   1.108  0.00  0.00    +0.145 A 
ATOM      7  C   UNL     1      -0.204  -0.469   1.216  0.00  0.00    +0.071 A 
ATOM      8  C   UNL     1      -0.151  -0.158   2.656  0.00  0.00    +0.232 C 
ATOM      9  O   UNL     1      -0.219   0.938   3.186  0.00  0.00    -0.283 OA
ATOM     10  C   UNL     1       0.003  -1.467   3.311  0.00  0.00    +0.176 C 
ATOM     11  C   UNL     1       0.097  -1.690   4.645  0.00  0.00    +0.058 C 
ATOM     12  O   UNL     1       0.019  -2.410   2.339  0.00  0.00    -0.451 OA
ENDROOT
BRANCH  11  13
ATOM     13  C   UNL     1       0.137  -3.067   5.159  0.00  0.00    -0.020 A 
ATOM     14  C   UNL     1       0.213  -4.147   4.273  0.00  0.00    +0.008 A 
ATOM     15  C   UNL     1       0.250  -5.435   4.762  0.00  0.00    +0.002 A 
ATOM     16  C   UNL     1       0.211  -5.662   6.127  0.00  0.00    +0.015 A 
ATOM     17  C   UNL     1       0.136  -4.599   7.012  0.00  0.00    +0.018 A 
ATOM     18  C   UNL     1       0.104  -3.304   6.538  0.00  0.00    +0.023 A 
ATOM     19 BR   UNL     1       0.084  -4.923   8.874  0.00  0.00    -0.050 Br
ENDBRANCH  11  13
BRANCH   4  20
ATOM     20  O   UNL     1      -0.246  -2.217  -2.512  0.00  0.00    -0.506 OA
ATOM     21  H   UNL     1       0.629  -2.305  -2.914  0.00  0.00    +0.292 HD
ENDBRANCH   4  20
BRANCH   5  22
ATOM     22  C   UNL     1       0.020  -3.938  -0.300  0.00  0.00    -0.035 C 
BRANCH  22  23
ATOM     23  N   UNL     1       1.438  -4.301  -0.418  0.00  0.00    +0.385 N 
ATOM     24  C   UNL     1       1.986  -3.734  -1.656  0.00  0.00    -0.059 C 
ATOM     25  C   UNL     1       3.491  -4.015  -1.724  0.00  0.00    +0.086 C 
ATOM     26  N   UNL     1       3.702  -5.463  -1.575  0.00  0.00    -0.333 N 
ATOM     27  C   UNL     1       3.050  -6.146  -0.446  0.00  0.00    +0.086 C 
ATOM     28  C   UNL     1       1.566  -5.764  -0.439  0.00  0.00    -0.059 C 
ATOM     29  H   UNL     1       1.946  -3.932   0.372  0.00  0.00    -0.081 HD
BRANCH  26  30
ATOM     30  C   UNL     1       4.499  -6.170  -2.479  0.00  0.00    +0.030 A 
ATOM     31  C   UNL     1       5.206  -5.490  -3.463  0.00  0.00    +0.026 A 
ATOM     32  C   UNL     1       5.994  -6.191  -4.355  0.00  0.00    +0.040 A 
ATOM     33  C   UNL     1       6.079  -7.570  -4.270  0.00  0.00    +0.124 A 
ATOM     34  C   UNL     1       5.375  -8.250  -3.290  0.00  0.00    +0.040 A 
ATOM     35  C   UNL     1       4.590  -7.553  -2.392  0.00  0.00    +0.026 A 
ATOM     36  F   UNL     1       6.850  -8.254  -5.144  0.00  0.00    -0.205 F 
ENDBRANCH  26  30
ENDBRANCH  22  23
ENDBRANCH   5  22
TORSDOF 5
