REMARK  Name = ZINC62527063
REMARK  12 active torsions:
REMARK  status: ('A' for Active; 'I' for Inactive)
REMARK    1  A    between atoms: C_1  and  C_2
REMARK    2  A    between atoms: C_2  and  C_3
REMARK    3  A    between atoms: C_3  and  C_4
REMARK    4  A    between atoms: C_3  and  N_5
REMARK    5  A    between atoms: C_6  and  C_8
REMARK    6  A    between atoms: C_8  and  C_9
REMARK    7  A    between atoms: C_8  and  N_10
REMARK    8  A    between atoms: N_13  and  C_14
REMARK    9  A    between atoms: C_14  and  C_15
REMARK   10  A    between atoms: C_15  and  C_16
REMARK   11  A    between atoms: C_15  and  N_21
REMARK   12  A    between atoms: C_24  and  C_27
REMARK                            x       y       z     vdW  Elec       q    Type
REMARK                         _______ _______ _______ _____ _____    ______ ____
ROOT
ATOM      1  N   UNL     1       4.929   0.399  -3.626  0.00  0.00    -0.288 N 
ATOM      2  C   UNL     1       6.028   1.136  -3.882  0.00  0.00    +0.300 C 
ATOM      3  O   UNL     1       6.665   1.615  -2.964  0.00  0.00    -0.253 OA
ATOM      4  N   UNL     1       6.420   1.341  -5.155  0.00  0.00    -0.301 N 
ATOM      5  H   UNL     1       4.420   0.016  -4.358  0.00  0.00    +0.151 HD
ATOM      6  H   UNL     1       5.912   0.958  -5.887  0.00  0.00    +0.150 HD
ENDROOT
BRANCH   1   7
ATOM      7  C   UNL     1       4.502   0.176  -2.242  0.00  0.00    +0.157 C 
ATOM      8  C   UNL     1       5.259  -1.020  -1.661  0.00  0.00    +0.038 C 
BRANCH   7  10
ATOM      9  N   UNL     1       2.404  -0.342  -1.038  0.00  0.00    -0.311 N 
ATOM     10  C   UNL     1       3.022  -0.105  -2.212  0.00  0.00    +0.233 C 
ATOM     11  O   UNL     1       2.386  -0.117  -3.245  0.00  0.00    -0.274 OA
ATOM     12  H   UNL     1       2.913  -0.332  -0.212  0.00  0.00    +0.149 HD
BRANCH   9  13
ATOM     13  C   UNL     1       0.965  -0.615  -1.009  0.00  0.00    +0.070 C 
ATOM     14  C   UNL     1       0.723  -2.103  -1.269  0.00  0.00    +0.028 C 
BRANCH  13  16
ATOM     15  C   UNL     1       0.532   1.272   0.571  0.00  0.00    +0.005 C 
ATOM     16  C   UNL     1       0.403  -0.238   0.363  0.00  0.00    +0.018 C 
ENDBRANCH  13  16
ENDBRANCH   9  13
ENDBRANCH   7  10
ENDBRANCH   1   7
BRANCH   4  17
ATOM     17  C   UNL     1       7.615   2.142  -5.433  0.00  0.00    +0.095 C 
BRANCH  17  18
ATOM     18  C   UNL     1       7.912   2.111  -6.933  0.00  0.00    -0.013 C 
BRANCH  18  19
ATOM     19  N   UNL     1       9.056   2.985  -7.224  0.00  0.00    +0.386 N 
ATOM     20  C   UNL     1       8.710   4.371  -6.885  0.00  0.00    -0.078 C 
ATOM     21  C   UNL     1       9.925   5.273  -7.109  0.00  0.00    -0.015 C 
ATOM     22  C   UNL     1      10.347   5.196  -8.580  0.00  0.00    -0.018 C 
ATOM     23  C   UNL     1      10.634   3.736  -8.942  0.00  0.00    -0.015 C 
ATOM     24  C   UNL     1       9.392   2.891  -8.650  0.00  0.00    -0.078 C 
ATOM     25  C   UNL     1      11.609   6.034  -8.795  0.00  0.00    +0.007 C 
ATOM     26  H   UNL     1       9.849   2.694  -6.673  0.00  0.00    -0.081 HD
ENDBRANCH  18  19
BRANCH  18  27
ATOM     27  C   UNL     1       8.237   0.701  -7.353  0.00  0.00    -0.022 A 
ATOM     28  C   UNL     1       7.444  -0.213  -7.962  0.00  0.00    +0.009 A 
ATOM     29  C   UNL     1       7.962  -1.461  -8.256  0.00  0.00    +0.008 A 
ATOM     30  C   UNL     1       9.248  -1.733  -7.927  0.00  0.00    +0.045 A 
ATOM     31  S   UNL     1       9.771  -0.197  -7.182  0.00  0.00    -0.103 S 
ENDBRANCH  18  27
ENDBRANCH  17  18
ENDBRANCH   4  17
TORSDOF 8
