REMARK  Name = ZINC39683808
REMARK  10 active torsions:
REMARK  status: ('A' for Active; 'I' for Inactive)
REMARK    1  A    between atoms: C_1  and  C_2
REMARK    2  A    between atoms: C_2  and  C_4
REMARK    3  A    between atoms: C_2  and  N_8
REMARK    4  A    between atoms: N_6  and  C_7
REMARK    5  A    between atoms: C_9  and  C_11
REMARK    6  A    between atoms: C_22  and  C_24
REMARK    7  A    between atoms: C_26  and  O_32
REMARK    8  A    between atoms: C_28  and  O_30
REMARK    9  A    between atoms: O_30  and  C_31
REMARK   10  A    between atoms: O_32  and  C_33
REMARK                            x       y       z     vdW  Elec       q    Type
REMARK                         _______ _______ _______ _____ _____    ______ ____
ROOT
ATOM      1  C   UNL     1      -4.048  -1.424  -0.873  0.00  0.00    +0.100 C 
ATOM      2  C   UNL     1      -4.681  -0.290  -0.037  0.00  0.00    +0.121 C 
ATOM      3  N   UNL     1      -5.232   0.652  -1.040  0.00  0.00    -0.296 N 
ATOM      4  C   UNL     1      -5.796  -0.224  -2.096  0.00  0.00    +0.115 C 
ATOM      5  C   UNL     1      -4.785  -1.380  -2.222  0.00  0.00    -0.004 C 
ATOM      6  C   UNL     1      -5.516  -2.696  -2.468  0.00  0.00    -0.010 C 
ATOM      7  C   UNL     1      -6.192  -2.650  -3.841  0.00  0.00    -0.082 C 
ATOM      8  N   UNL     1      -5.181  -2.427  -4.881  0.00  0.00    +0.379 N 
ATOM      9  C   UNL     1      -4.547  -1.117  -4.690  0.00  0.00    -0.082 C 
ATOM     10  C   UNL     1      -3.801  -1.098  -3.353  0.00  0.00    -0.010 C 
ATOM     11  C   UNL     1      -5.223   1.999  -1.002  0.00  0.00    +0.247 C 
ATOM     12  O   UNL     1      -4.609   2.578  -0.127  0.00  0.00    -0.270 OA
ATOM     13  H   UNL     1      -4.478  -3.150  -4.825  0.00  0.00    -0.086 HD
ATOM     14  H   UNL     1      -5.620  -2.458  -5.788  0.00  0.00    -0.086 HD
ENDROOT
BRANCH  11  15
ATOM     15  C   UNL     1      -5.960   2.773  -2.024  0.00  0.00    +0.044 A 
ATOM     16  C   UNL     1      -6.994   2.173  -2.744  0.00  0.00    +0.059 A 
ATOM     17  C   UNL     1      -7.682   2.902  -3.700  0.00  0.00    +0.124 A 
ATOM     18  C   UNL     1      -7.345   4.226  -3.942  0.00  0.00    +0.091 A 
ATOM     19  C   UNL     1      -6.318   4.826  -3.228  0.00  0.00    +0.124 A 
ATOM     20  C   UNL     1      -5.628   4.106  -2.266  0.00  0.00    +0.059 A 
BRANCH  19  21
ATOM     21  O   UNL     1      -5.991   6.123  -3.468  0.00  0.00    -0.495 OA
ATOM     22  C   UNL     1      -6.747   6.807  -4.470  0.00  0.00    +0.277 C 
ENDBRANCH  19  21
BRANCH  17  23
ATOM     23  O   UNL     1      -8.688   2.319  -4.403  0.00  0.00    -0.495 OA
ATOM     24  C   UNL     1      -9.356   3.129  -5.373  0.00  0.00    +0.277 C 
ENDBRANCH  17  23
ENDBRANCH  11  15
BRANCH   1  26
ATOM     25  N   UNL     1      -1.743  -2.199  -1.331  0.00  0.00    -0.304 N 
ATOM     26  C   UNL     1      -2.575  -1.171  -1.071  0.00  0.00    +0.219 C 
ATOM     27  O   UNL     1      -2.139  -0.041  -0.998  0.00  0.00    -0.275 OA
ATOM     28  H   UNL     1      -2.092  -3.102  -1.390  0.00  0.00    +0.149 HD
BRANCH  25  30
ATOM     29  C   UNL     1       0.388  -1.921  -0.163  0.00  0.00    +0.038 C 
ATOM     30  C   UNL     1      -0.312  -1.952  -1.523  0.00  0.00    +0.156 C 
BRANCH  30  31
ATOM     31  C   UNL     1       0.278  -3.053  -2.366  0.00  0.00    +0.233 C 
ATOM     32  O   UNL     1      -0.427  -3.955  -2.767  0.00  0.00    -0.274 OA
ATOM     33  N   UNL     1       1.590  -3.036  -2.676  0.00  0.00    -0.317 N 
ATOM     34  C   UNL     1       2.164  -4.106  -3.495  0.00  0.00    +0.128 C 
ATOM     35  H   UNL     1       2.154  -2.315  -2.355  0.00  0.00    +0.148 HD
ENDBRANCH  30  31
ENDBRANCH  25  30
ENDBRANCH   1  26
TORSDOF 6
