REMARK  Name = ZINC08788458
REMARK  17 active torsions:
REMARK  status: ('A' for Active; 'I' for Inactive)
REMARK    1  A    between atoms: C_1  and  C_2
REMARK    2  A    between atoms: C_2  and  C_3
REMARK    3  A    between atoms: C_2  and  C_4
REMARK    4  A    between atoms: C_4  and  N_70
REMARK    5  A    between atoms: C_5  and  C_6
REMARK    6  A    between atoms: C_5  and  N_70
REMARK    7  A    between atoms: C_7  and  O_31
REMARK    8  A    between atoms: C_13  and  C_27
REMARK    9  A    between atoms: C_14  and  O_17
REMARK   10  A    between atoms: O_17  and  C_18
REMARK   11  A    between atoms: C_23  and  C_24
REMARK   12  A    between atoms: C_24  and  C_25
REMARK   13  A    between atoms: C_24  and  C_26
REMARK   14  A    between atoms: C_32  and  C_33
REMARK   15  A    between atoms: C_32  and  N_70
REMARK   16  A    between atoms: C_33  and  C_34
REMARK   17  A    between atoms: C_33  and  C_35
REMARK                            x       y       z     vdW  Elec       q    Type
REMARK                         _______ _______ _______ _____ _____    ______ ____
ROOT
ATOM      1  C   UNL     1      -1.999   1.681  -0.127  0.00  0.00    +0.020 A 
ATOM      2  C   UNL     1      -0.980   2.616  -0.054  0.00  0.00    +0.122 A 
ATOM      3  C   UNL     1      -1.271   3.978  -0.001  0.00  0.00    +0.046 A 
ATOM      4  C   UNL     1      -2.567   4.410  -0.021  0.00  0.00    +0.019 A 
ATOM      5  C   UNL     1      -3.604   3.479  -0.094  0.00  0.00    +0.068 A 
ATOM      6  C   UNL     1      -3.320   2.103  -0.154  0.00  0.00    +0.144 A 
ATOM      7  O   UNL     1      -4.331   1.214  -0.219  0.00  0.00    -0.447 OA
ATOM      8  C   UNL     1      -5.617   1.588  -0.241  0.00  0.00    +0.254 A 
ATOM      9  C   UNL     1      -6.001   2.879  -0.194  0.00  0.00    +0.222 A 
ATOM     10  C   UNL     1      -5.015   3.903  -0.118  0.00  0.00    +0.235 A 
ATOM     11  O   UNL     1      -5.325   5.082  -0.073  0.00  0.00    -0.283 OA
ENDROOT
BRANCH   8  12
ATOM     12  C   UNL     1      -6.679   0.521  -0.321  0.00  0.00    +0.454 C 
ATOM     13  F   UNL     1      -7.095   0.377  -1.649  0.00  0.00    -0.163 F 
ATOM     14  F   UNL     1      -6.156  -0.692   0.138  0.00  0.00    -0.163 F 
ATOM     15  F   UNL     1      -7.770   0.889   0.473  0.00  0.00    -0.163 F 
ENDBRANCH   8  12
BRANCH   2  16
ATOM     16  O   UNL     1       0.313   2.203  -0.034  0.00  0.00    -0.506 OA
ATOM     17  H   UNL     1       0.714   2.123  -0.910  0.00  0.00    +0.292 HD
ENDBRANCH   2  16
BRANCH   1  18
ATOM     18  C   UNL     1      -1.673   0.211  -0.183  0.00  0.00    -0.036 C 
BRANCH  18  19
ATOM     19  N   UNL     1      -0.751  -0.116   0.924  0.00  0.00    +0.383 N 
ATOM     20  H   UNL     1       0.053   0.521   0.888  0.00  0.00    -0.081 HD
BRANCH  19  21
ATOM     21  C   UNL     1      -1.439   0.053   2.221  0.00  0.00    -0.075 C 
BRANCH  21  23
ATOM     22  C   UNL     1      -2.108  -2.279   2.819  0.00  0.00    +0.005 C 
ATOM     23  C   UNL     1      -2.615  -0.919   2.335  0.00  0.00    -0.034 C 
ATOM     24  C   UNL     1      -3.635  -0.370   3.335  0.00  0.00    +0.005 C 
ENDBRANCH  21  23
ENDBRANCH  19  21
BRANCH  19  25
ATOM     25  C   UNL     1      -0.268  -1.506   0.786  0.00  0.00    -0.075 C 
BRANCH  25  26
ATOM     26  C   UNL     1       0.923  -1.709   1.724  0.00  0.00    -0.034 C 
ATOM     27  C   UNL     1       1.373  -3.171   1.669  0.00  0.00    +0.005 C 
ATOM     28  C   UNL     1       2.077  -0.804   1.286  0.00  0.00    +0.005 C 
ENDBRANCH  25  26
ENDBRANCH  19  25
ENDBRANCH  18  19
ENDBRANCH   1  18
BRANCH   9  29
ATOM     29  O   UNL     1      -7.323   3.202  -0.219  0.00  0.00    -0.448 OA
BRANCH  29  30
ATOM     30  C   UNL     1      -7.907   3.408  -1.428  0.00  0.00    +0.132 A 
ATOM     31  C   UNL     1      -7.157   3.293  -2.591  0.00  0.00    +0.046 A 
ATOM     32  C   UNL     1      -7.754   3.499  -3.819  0.00  0.00    +0.004 A 
ATOM     33  C   UNL     1      -9.095   3.829  -3.891  0.00  0.00    +0.001 A 
ATOM     34  C   UNL     1      -9.843   3.948  -2.734  0.00  0.00    +0.007 A 
ATOM     35  C   UNL     1      -9.252   3.739  -1.503  0.00  0.00    -0.003 A 
BRANCH  35  36
ATOM     36  C   UNL     1     -10.069   3.870  -0.243  0.00  0.00    +0.016 C 
ATOM     37  C   UNL     1     -10.632   5.289  -0.145  0.00  0.00    +0.012 C 
ATOM     38  C   UNL     1     -11.221   2.864  -0.275  0.00  0.00    +0.012 C 
ENDBRANCH  35  36
ENDBRANCH  29  30
ENDBRANCH   9  29
TORSDOF 11
