REMARK  Name = ZINC44832889
REMARK  8 active torsions:
REMARK  status: ('A' for Active; 'I' for Inactive)
REMARK    1  A    between atoms: C_1  and  C_2
REMARK    2  A    between atoms: C_2  and  C_3
REMARK    3  A    between atoms: C_2  and  C_4
REMARK    4  A    between atoms: C_4  and  C_6
REMARK    5  A    between atoms: C_4  and  C_9
REMARK    6  A    between atoms: C_6  and  N_8
REMARK    7  A    between atoms: N_11  and  C_12
REMARK    8  A    between atoms: N_11  and  C_13
REMARK                            x       y       z     vdW  Elec       q    Type
REMARK                         _______ _______ _______ _____ _____    ______ ____
ROOT
ATOM      1  C   UNL     1       0.726  -0.496  -1.248  0.00  0.00    +0.129 C 
ENDROOT
BRANCH   1   2
ATOM      2  C   UNL     1       2.148  -0.009  -1.349  0.00  0.00    +0.225 C 
ATOM      3  O   UNL     1       2.823   0.106  -0.348  0.00  0.00    -0.275 OA
ATOM      4  N   UNL     1       2.671   0.299  -2.553  0.00  0.00    -0.307 N 
ATOM      5  C   UNL     1       4.084   0.669  -2.665  0.00  0.00    +0.131 C 
ATOM      6  C   UNL     1       1.826   0.263  -3.749  0.00  0.00    +0.131 C 
ENDBRANCH   1   2
BRANCH   1   8
ATOM      7  C   UNL     1       0.232   1.292   0.426  0.00  0.00    +0.008 C 
ATOM      8  C   UNL     1       0.189  -0.213   0.157  0.00  0.00    +0.001 C 
ATOM      9  C   UNL     1      -1.256  -0.708   0.260  0.00  0.00    +0.008 C 
ENDBRANCH   1   8
BRANCH   1  10
ATOM     10  C   UNL     1       0.683  -1.979  -1.513  0.00  0.00    +0.058 C 
ATOM     11  S   UNL     1      -0.216  -2.553  -2.704  0.00  0.00    -0.040 S 
BRANCH  10  12
ATOM     12  N   UNL     1       1.402  -2.822  -0.745  0.00  0.00    -0.355 N 
ATOM     13  H   UNL     1       1.947  -2.474  -0.022  0.00  0.00    +0.143 HD
ATOM     14  H   UNL     1       1.374  -3.776  -0.916  0.00  0.00    +0.143 HD
ENDBRANCH  10  12
ENDBRANCH   1  10
TORSDOF 4
