REMARK  Name = ZINC41423505
REMARK  9 active torsions:
REMARK  status: ('A' for Active; 'I' for Inactive)
REMARK    1  A    between atoms: C_1  and  S_2
REMARK    2  A    between atoms: S_2  and  C_3
REMARK    3  A    between atoms: C_3  and  C_4
REMARK    4  A    between atoms: C_4  and  C_5
REMARK    5  A    between atoms: C_5  and  C_7
REMARK    6  A    between atoms: C_5  and  N_22
REMARK    7  A    between atoms: N_9  and  C_10
REMARK    8  A    between atoms: C_10  and  C_11
REMARK    9  A    between atoms: C_11  and  N_16
REMARK                            x       y       z     vdW  Elec       q    Type
REMARK                         _______ _______ _______ _____ _____    ______ ____
ROOT
ATOM      1  C   UNL     1       1.653  -4.030  -2.992  0.00  0.00    +0.233 C 
ATOM      2  O   UNL     1       0.952  -4.781  -3.637  0.00  0.00    -0.274 OA
ATOM      3  N   UNL     1       2.724  -4.510  -2.329  0.00  0.00    -0.315 N 
ATOM      4  H   UNL     1       3.284  -3.909  -1.813  0.00  0.00    +0.149 HD
ENDROOT
BRANCH   1   5
ATOM      5  C   UNL     1       1.327  -2.560  -2.933  0.00  0.00    +0.161 C 
BRANCH   5   6
ATOM      6  N   UNL     1       0.463  -2.206  -4.062  0.00  0.00    -0.288 N 
ATOM      7  C   UNL     1      -0.739  -2.800  -4.203  0.00  0.00    +0.298 C 
ATOM      8  O   UNL     1      -1.105  -3.631  -3.394  0.00  0.00    -0.253 OA
ATOM      9  N   UNL     1      -1.534  -2.474  -5.241  0.00  0.00    -0.313 N 
ATOM     10  H   UNL     1       0.755  -1.543  -4.707  0.00  0.00    +0.151 HD
ATOM     11  H   UNL     1      -1.241  -1.812  -5.887  0.00  0.00    +0.146 HD
ATOM     12  H   UNL     1      -2.398  -2.902  -5.343  0.00  0.00    +0.146 HD
ENDBRANCH   5   6
BRANCH   5  13
ATOM     13  C   UNL     1       0.605  -2.250  -1.621  0.00  0.00    +0.042 C 
BRANCH  13  14
ATOM     14  C   UNL     1       0.385  -0.741  -1.504  0.00  0.00    +0.071 C 
BRANCH  14  16
ATOM     15  C   UNL     1      -0.654   1.431   0.038  0.00  0.00    +0.084 C 
ATOM     16  S   UNL     1      -0.472  -0.373   0.053  0.00  0.00    -0.164 S 
ENDBRANCH  14  16
ENDBRANCH  13  14
ENDBRANCH   5  13
ENDBRANCH   1   5
BRANCH   3  17
ATOM     17  C   UNL     1       3.041  -5.939  -2.386  0.00  0.00    +0.092 C 
BRANCH  17  18
ATOM     18  C   UNL     1       4.294  -6.218  -1.554  0.00  0.00    -0.050 C 
ATOM     19  C   UNL     1       4.601  -7.729  -1.551  0.00  0.00    -0.010 C 
ATOM     20  C   UNL     1       5.643  -7.908  -2.683  0.00  0.00    -0.001 C 
ATOM     21  C   UNL     1       6.517  -6.636  -2.546  0.00  0.00    -0.001 C 
ATOM     22  C   UNL     1       5.512  -5.523  -2.187  0.00  0.00    -0.010 C 
BRANCH  18  23
ATOM     23  N   UNL     1       4.100  -5.740  -0.178  0.00  0.00    +0.386 N 
ATOM     24  C   UNL     1       5.320  -5.988   0.592  0.00  0.00    -0.067 C 
ATOM     25  C   UNL     1       5.287  -5.179   1.894  0.00  0.00    +0.050 C 
ATOM     26  S   UNL     1       3.869  -5.748   2.883  0.00  0.00    -0.164 S 
ATOM     27  C   UNL     1       2.501  -5.699   1.683  0.00  0.00    +0.050 C 
ATOM     28  C   UNL     1       2.951  -6.430   0.412  0.00  0.00    -0.067 C 
ATOM     29  H   UNL     1       3.917  -4.748  -0.196  0.00  0.00    -0.081 HD
ENDBRANCH  18  23
ENDBRANCH  17  18
ENDBRANCH   3  17
TORSDOF 8
