REMARK  Name = ZINC12497980
REMARK  7 active torsions:
REMARK  status: ('A' for Active; 'I' for Inactive)
REMARK    1  A    between atoms: C_1  and  O_2
REMARK    2  A    between atoms: O_2  and  C_3
REMARK    3  A    between atoms: C_3  and  C_5
REMARK    4  A    between atoms: C_5  and  C_34
REMARK    5  A    between atoms: C_10  and  C_12
REMARK    6  A    between atoms: C_15  and  O_18
REMARK    7  A    between atoms: N_21  and  C_24
REMARK                            x       y       z     vdW  Elec       q    Type
REMARK                         _______ _______ _______ _____ _____    ______ ____
ROOT
ATOM      1  C   UNL     1      -1.406   1.878   0.024  0.00  0.00    +0.070 C 
ATOM      2  C   UNL     1      -2.492   1.127  -0.636  0.00  0.00    +0.090 C 
ATOM      3  C   UNL     1      -3.545   2.278  -0.903  0.00  0.00    +0.078 C 
ATOM      4  C   UNL     1      -2.591   3.274  -1.560  0.00  0.00    -0.026 C 
ATOM      5  C   UNL     1      -4.465   1.450  -1.756  0.00  0.00    +0.229 C 
ATOM      6  O   UNL     1      -5.102   1.818  -2.720  0.00  0.00    -0.275 OA
ATOM      7  N   UNL     1      -4.434   0.195  -1.216  0.00  0.00    -0.210 N 
ATOM      8  C   UNL     1      -3.367   0.007  -0.373  0.00  0.00    +0.229 C 
ATOM      9  O   UNL     1      -3.196  -0.896   0.417  0.00  0.00    -0.275 OA
ATOM     10  N   UNL     1      -1.296   3.085  -0.853  0.00  0.00    +0.398 N 
ATOM     11  H   UNL     1      -0.544   2.948  -1.539  0.00  0.00    -0.083 HD
ATOM     12  H   UNL     1      -1.091   3.912  -0.281  0.00  0.00    -0.083 HD
ENDROOT
BRANCH   7  13
ATOM     13  C   UNL     1      -5.390  -0.795  -1.492  0.00  0.00    +0.048 A 
ATOM     14  C   UNL     1      -5.281  -2.048  -0.905  0.00  0.00    +0.028 A 
ATOM     15  C   UNL     1      -6.223  -3.022  -1.175  0.00  0.00    +0.051 A 
ATOM     16  C   UNL     1      -7.274  -2.755  -2.040  0.00  0.00    +0.162 A 
ATOM     17  C   UNL     1      -7.384  -1.502  -2.631  0.00  0.00    +0.164 A 
ATOM     18  C   UNL     1      -6.440  -0.524  -2.358  0.00  0.00    +0.073 A 
ATOM     19  O   UNL     1      -8.412  -1.218  -3.476  0.00  0.00    -0.485 OA
ATOM     20  C   UNL     1      -9.128  -2.334  -4.017  0.00  0.00    +0.270 C 
ATOM     21  C   UNL     1      -9.431  -3.311  -2.874  0.00  0.00    +0.270 C 
ATOM     22  O   UNL     1      -8.187  -3.731  -2.302  0.00  0.00    -0.485 OA
ENDBRANCH   7  13
BRANCH   4  23
ATOM     23  C   UNL     1      -2.440   2.962  -3.027  0.00  0.00    -0.060 A 
ATOM     24  C   UNL     1      -1.475   2.065  -3.446  0.00  0.00    +0.005 A 
ATOM     25  C   UNL     1      -1.338   1.774  -4.790  0.00  0.00    +0.045 A 
ATOM     26  C   UNL     1      -2.163   2.390  -5.720  0.00  0.00    +0.117 A 
ATOM     27  C   UNL     1      -3.127   3.294  -5.297  0.00  0.00    +0.045 A 
ATOM     28  C   UNL     1      -3.263   3.578  -3.952  0.00  0.00    +0.005 A 
BRANCH  26  29
ATOM     29  O   UNL     1      -2.027   2.109  -7.042  0.00  0.00    -0.507 OA
ATOM     30  H   UNL     1      -1.405   2.687  -7.505  0.00  0.00    +0.292 HD
ENDBRANCH  26  29
ENDBRANCH   4  23
BRANCH   1  31
ATOM     31  C   UNL     1      -1.795   2.265   1.428  0.00  0.00    -0.047 A 
ATOM     32  C   UNL     1      -2.618   1.438   2.170  0.00  0.00    +0.003 A 
ATOM     33  C   UNL     1      -2.970   1.791   3.459  0.00  0.00    +0.000 A 
ATOM     34  C   UNL     1      -2.508   2.975   4.003  0.00  0.00    +0.000 A 
ATOM     35  C   UNL     1      -1.690   3.804   3.259  0.00  0.00    +0.000 A 
ATOM     36  C   UNL     1      -1.333   3.449   1.971  0.00  0.00    +0.003 A 
ENDBRANCH   1  31
BRANCH   1  37
ATOM     37  C   UNL     1      -0.125   1.084   0.023  0.00  0.00    +0.301 C 
ATOM     38  O   UNL     1      -0.163  -0.124   0.011  0.00  0.00    -0.252 OA
BRANCH  37  40
ATOM     39  C   UNL     1       2.251   0.890   0.022  0.00  0.00    +0.280 C 
ATOM     40  O   UNL     1       1.058   1.718   0.030  0.00  0.00    -0.469 OA
ENDBRANCH  37  40
ENDBRANCH   1  37
TORSDOF 6
