REMARK  Name = ZINC38547882
REMARK  8 active torsions:
REMARK  status: ('A' for Active; 'I' for Inactive)
REMARK    1  A    between atoms: C_1  and  C_2
REMARK    2  A    between atoms: C_2  and  C_3
REMARK    3  A    between atoms: C_5  and  C_16
REMARK    4  A    between atoms: C_6  and  N_8
REMARK    5  A    between atoms: C_9  and  C_11
REMARK    6  A    between atoms: C_16  and  C_18
REMARK    7  A    between atoms: C_16  and  N_25
REMARK    8  A    between atoms: C_28  and  C_32
REMARK                            x       y       z     vdW  Elec       q    Type
REMARK                         _______ _______ _______ _____ _____    ______ ____
ROOT
ATOM      1  C   UNL     1       3.909  -1.511  -2.897  0.00  0.00    +0.135 C 
ENDROOT
BRANCH   1   2
ATOM      2  N   UNL     1       4.732  -0.749  -1.955  0.00  0.00    -0.320 N 
ATOM      3  C   UNL     1       6.015  -0.353  -2.316  0.00  0.00    +0.097 A 
ATOM      4  C   UNL     1       6.509  -0.680  -3.575  0.00  0.00    +0.045 A 
ATOM      5  C   UNL     1       7.787  -0.280  -3.921  0.00  0.00    -0.046 A 
ATOM      6  C   UNL     1       8.531   0.436  -2.992  0.00  0.00    +0.021 A 
ATOM      7  C   UNL     1       7.979   0.725  -1.761  0.00  0.00    +0.084 A 
ATOM      8  N   UNL     1       6.754   0.335  -1.460  0.00  0.00    -0.350 N 
ATOM      9  C   UNL     1       8.359  -0.614  -5.274  0.00  0.00    +0.044 C 
ATOM     10  H   UNL     1       4.382  -0.520  -1.080  0.00  0.00    +0.148 HD
ATOM     11  H   UNL     1       6.388   0.555  -0.589  0.00  0.00    +0.166 HD
ENDBRANCH   1   2
BRANCH   1  12
ATOM     12  C   UNL     1       4.243  -2.976  -2.785  0.00  0.00    -0.023 A 
ATOM     13  C   UNL     1       4.467  -3.541  -1.543  0.00  0.00    +0.007 A 
ATOM     14  C   UNL     1       4.773  -4.885  -1.439  0.00  0.00    +0.015 A 
ATOM     15  C   UNL     1       4.854  -5.665  -2.579  0.00  0.00    +0.018 A 
ATOM     16  C   UNL     1       4.630  -5.100  -3.821  0.00  0.00    +0.015 A 
ATOM     17  C   UNL     1       4.319  -3.757  -3.923  0.00  0.00    +0.007 A 
ATOM     18 BR   UNL     1       5.274  -7.503  -2.438  0.00  0.00    -0.050 Br
ENDBRANCH   1  12
BRANCH   1  21
ATOM     19  C   UNL     1       0.736  -0.810  -1.030  0.00  0.00    -0.008 A 
ATOM     20  C   UNL     1       2.054  -0.992  -1.286  0.00  0.00    +0.019 A 
ATOM     21  C   UNL     1       2.452  -1.302  -2.574  0.00  0.00    +0.006 A 
ATOM     22  C   UNL     1       1.503  -1.413  -3.545  0.00  0.00    +0.078 A 
ATOM     23  S   UNL     1       0.003  -1.084  -2.635  0.00  0.00    -0.078 S 
BRANCH  22  24
ATOM     24  N   UNL     1       1.661  -1.713  -4.900  0.00  0.00    -0.273 N 
ATOM     25  C   UNL     1       0.584  -1.778  -5.706  0.00  0.00    +0.284 C 
ATOM     26  O   UNL     1      -0.528  -1.575  -5.254  0.00  0.00    -0.266 OA
ATOM     27  H   UNL     1       2.547  -1.875  -5.260  0.00  0.00    +0.156 HD
BRANCH  25  28
ATOM     28  C   UNL     1       0.750  -2.093  -7.129  0.00  0.00    +0.189 A 
ATOM     29  C   UNL     1      -0.251  -2.184  -8.053  0.00  0.00    +0.054 A 
ATOM     30  C   UNL     1       0.358  -2.502  -9.277  0.00  0.00    +0.042 A 
ATOM     31  C   UNL     1       1.687  -2.590  -9.049  0.00  0.00    +0.196 A 
ATOM     32  O   UNL     1       1.920  -2.338  -7.755  0.00  0.00    -0.458 OA
ENDBRANCH  25  28
ENDBRANCH  22  24
BRANCH  19  34
ATOM     33  C   UNL     1      -0.036   1.050   0.417  0.00  0.00    +0.009 C 
ATOM     34  C   UNL     1       0.062  -0.470   0.274  0.00  0.00    +0.039 C 
ENDBRANCH  19  34
ENDBRANCH   1  21
TORSDOF 6
