REMARK  Name = ZINC26770873
REMARK  12 active torsions:
REMARK  status: ('A' for Active; 'I' for Inactive)
REMARK    1  A    between atoms: C_1  and  C_2
REMARK    2  A    between atoms: C_3  and  C_35
REMARK    3  A    between atoms: C_5  and  N_26
REMARK    4  A    between atoms: C_6  and  C_7
REMARK    5  A    between atoms: C_7  and  C_9
REMARK    6  A    between atoms: C_7  and  N_19
REMARK    7  A    between atoms: C_12  and  O_17
REMARK    8  A    between atoms: C_14  and  O_15
REMARK    9  A    between atoms: O_15  and  C_16
REMARK   10  A    between atoms: O_17  and  C_18
REMARK   11  A    between atoms: N_22  and  C_25
REMARK   12  A    between atoms: C_27  and  C_29
REMARK                            x       y       z     vdW  Elec       q    Type
REMARK                         _______ _______ _______ _____ _____    ______ ____
ROOT
ATOM      1  C   UNL     1       7.527   1.344  -0.028  0.00  0.00    +0.123 C 
ENDROOT
BRANCH   1   2
ATOM      2  N   UNL     1       6.460   1.910  -0.864  0.00  0.00    -0.295 NA
ATOM      3  C   UNL     1       6.514   1.364  -2.228  0.00  0.00    +0.067 C 
ATOM      4  C   UNL     1       5.343   1.917  -3.042  0.00  0.00    -0.064 C 
ATOM      5  N   UNL     1       5.413   3.385  -3.063  0.00  0.00    +0.379 N 
ATOM      6  C   UNL     1       5.359   3.931  -1.700  0.00  0.00    -0.064 C 
ATOM      7  C   UNL     1       6.531   3.378  -0.885  0.00  0.00    +0.067 C 
ATOM      8  C   UNL     1       4.346   3.951  -3.900  0.00  0.00    -0.096 C 
ATOM      9  H   UNL     1       6.378   3.673  -3.506  0.00  0.00    -0.082 HD
ENDBRANCH   1   2
BRANCH   1  15
ATOM     10  C   UNL     1       9.887  -0.304  -0.478  0.00  0.00    +0.045 C 
ATOM     11  C   UNL     1       8.542  -0.942  -0.245  0.00  0.00    -0.034 A 
ATOM     12  C   UNL     1       8.412  -2.291  -0.248  0.00  0.00    -0.008 A 
ATOM     13  S   UNL     1       6.667  -2.498   0.067  0.00  0.00    -0.078 S 
ATOM     14  C   UNL     1       6.224  -0.772   0.181  0.00  0.00    +0.077 A 
ATOM     15  C   UNL     1       7.423  -0.160  -0.031  0.00  0.00    +0.006 A 
ATOM     16  C   UNL     1       9.468  -3.344  -0.462  0.00  0.00    +0.052 C 
BRANCH  14  17
ATOM     17  N   UNL     1       4.973  -0.199   0.420  0.00  0.00    -0.276 N 
ATOM     18  C   UNL     1       3.895  -0.987   0.601  0.00  0.00    +0.249 C 
ATOM     19  O   UNL     1       4.011  -2.197   0.557  0.00  0.00    -0.270 OA
ATOM     20  H   UNL     1       4.868   0.895   0.460  0.00  0.00    +0.156 HD
BRANCH  18  21
ATOM     21  C   UNL     1       2.571  -0.381   0.854  0.00  0.00    +0.037 A 
ATOM     22  C   UNL     1       1.452  -1.194   1.042  0.00  0.00    +0.013 A 
ATOM     23  C   UNL     1       0.219  -0.621   1.278  0.00  0.00    +0.001 A 
ATOM     24  C   UNL     1       0.090   0.756   1.328  0.00  0.00    +0.000 A 
ATOM     25  C   UNL     1       1.195   1.567   1.143  0.00  0.00    +0.001 A 
ATOM     26  C   UNL     1       2.434   1.008   0.906  0.00  0.00    +0.013 A 
ENDBRANCH  18  21
ENDBRANCH  14  17
ENDBRANCH   1  15
BRANCH   1  27
ATOM     27  C   UNL     1       7.383   1.854   1.383  0.00  0.00    +0.016 A 
ATOM     28  C   UNL     1       6.146   2.260   1.848  0.00  0.00    +0.013 A 
ATOM     29  C   UNL     1       6.011   2.723   3.143  0.00  0.00    +0.046 A 
ATOM     30  C   UNL     1       7.119   2.793   3.976  0.00  0.00    +0.124 A 
ATOM     31  C   UNL     1       8.361   2.392   3.510  0.00  0.00    +0.091 A 
ATOM     32  C   UNL     1       8.494   1.922   2.212  0.00  0.00    +0.129 A 
BRANCH  32  33
ATOM     33  O   UNL     1       9.711   1.529   1.752  0.00  0.00    -0.495 OA
ATOM     34  C   UNL     1      10.810   1.627   2.660  0.00  0.00    +0.277 C 
ENDBRANCH  32  33
BRANCH  30  35
ATOM     35  O   UNL     1       6.985   3.254   5.247  0.00  0.00    -0.495 OA
ATOM     36  C   UNL     1       5.676   3.649   5.660  0.00  0.00    +0.277 C 
ENDBRANCH  30  35
ENDBRANCH   1  27
TORSDOF 7
