REMARK  Name = ZINC35380994
REMARK  6 active torsions:
REMARK  status: ('A' for Active; 'I' for Inactive)
REMARK    1  A    between atoms: C_1  and  C_2
REMARK    2  A    between atoms: C_2  and  C_3
REMARK    3  A    between atoms: C_2  and  C_4
REMARK    4  A    between atoms: C_4  and  N_5
REMARK    5  A    between atoms: C_6  and  C_8
REMARK    6  A    between atoms: C_19  and  C_21
REMARK                            x       y       z     vdW  Elec       q    Type
REMARK                         _______ _______ _______ _____ _____    ______ ____
ROOT
ATOM      1  C   UNL     1      -1.867  -6.085  -1.275  0.00  0.00    +0.028 C 
ATOM      2  C   UNL     1      -1.329  -7.111  -2.318  0.00  0.00    +0.061 C 
ATOM      3  S   UNL     1      -2.372  -8.567  -1.870  0.00  0.00    -0.174 S 
ATOM      4  C   UNL     1      -3.711  -7.671  -0.991  0.00  0.00    -0.016 C 
ATOM      5  N   UNL     1      -3.330  -6.254  -1.159  0.00  0.00    +0.397 N 
ATOM      6  C   UNL     1      -5.047  -7.957  -1.658  0.00  0.00    +0.017 C 
ATOM      7  C   UNL     1      -6.157  -7.183  -0.937  0.00  0.00    +0.107 C 
ATOM      8  N   UNL     1      -6.092  -7.494   0.498  0.00  0.00    -0.301 N 
ATOM      9  C   UNL     1      -4.822  -7.293   1.210  0.00  0.00    +0.107 C 
ATOM     10  C   UNL     1      -3.720  -8.067   0.477  0.00  0.00    +0.017 C 
ATOM     11  C   UNL     1      -7.178  -7.956   1.149  0.00  0.00    +0.219 C 
ATOM     12  O   UNL     1      -7.090  -8.292   2.311  0.00  0.00    -0.275 OA
ATOM     13  H   UNL     1      -3.658  -5.731  -0.361  0.00  0.00    -0.083 HD
ATOM     14  H   UNL     1      -3.769  -5.890  -1.991  0.00  0.00    -0.083 HD
ENDROOT
BRANCH  11  15
ATOM     15  C   UNL     1      -8.500  -8.055   0.434  0.00  0.00    +0.075 C 
ATOM     16  C   UNL     1      -9.227  -6.695   0.475  0.00  0.00    +0.013 C 
ATOM     17  C   UNL     1     -10.721  -7.067   0.645  0.00  0.00    +0.001 C 
ATOM     18  C   UNL     1     -10.664  -8.281   1.605  0.00  0.00    +0.001 C 
ATOM     19  C   UNL     1      -9.414  -9.064   1.151  0.00  0.00    +0.013 C 
ENDBRANCH  11  15
BRANCH   1  21
ATOM     20  N   UNL     1      -0.273  -4.301  -1.904  0.00  0.00    -0.316 N 
ATOM     21  C   UNL     1      -1.554  -4.684  -1.734  0.00  0.00    +0.200 C 
ATOM     22  O   UNL     1      -2.455  -3.901  -1.950  0.00  0.00    -0.278 OA
ATOM     23  H   UNL     1       0.447  -4.928  -1.731  0.00  0.00    +0.149 HD
BRANCH  20  24
ATOM     24  C   UNL     1       0.032  -2.940  -2.350  0.00  0.00    +0.107 C 
BRANCH  24  26
ATOM     25  C   UNL     1       1.862  -1.388  -3.046  0.00  0.00    +0.009 C 
ATOM     26  C   UNL     1       1.548  -2.767  -2.462  0.00  0.00    -0.000 C 
ATOM     27  C   UNL     1       2.179  -2.889  -1.073  0.00  0.00    +0.009 C 
ENDBRANCH  24  26
ENDBRANCH  20  24
ENDBRANCH   1  21
TORSDOF 4
