REMARK  Name = ZINC12218464
REMARK  6 active torsions:
REMARK  status: ('A' for Active; 'I' for Inactive)
REMARK    1  A    between atoms: C_1  and  C_2
REMARK    2  A    between atoms: C_4  and  C_7
REMARK    3  A    between atoms: C_7  and  C_9
REMARK    4  A    between atoms: C_7  and  N_10
REMARK    5  A    between atoms: C_21  and  N_59
REMARK    6  A    between atoms: C_25  and  N_59
REMARK                            x       y       z     vdW  Elec       q    Type
REMARK                         _______ _______ _______ _____ _____    ______ ____
ROOT
ATOM      1  N   UNL     1       2.619   0.438  -5.964  0.00  0.00    -0.290 N 
ATOM      2  C   UNL     1       3.938   0.633  -5.724  0.00  0.00    +0.203 A 
ATOM      3  N   UNL     1       4.413   0.944  -4.538  0.00  0.00    -0.230 NA
ATOM      4  C   UNL     1       3.538   1.069  -3.544  0.00  0.00    +0.116 A 
ATOM      5  C   UNL     1       2.146   0.886  -3.693  0.00  0.00    +0.076 A 
ATOM      6  C   UNL     1       1.670   0.547  -5.004  0.00  0.00    +0.263 A 
ATOM      7  O   UNL     1       0.487   0.367  -5.239  0.00  0.00    -0.267 OA
ATOM      8  C   UNL     1       1.344   1.064  -2.496  0.00  0.00    -0.023 A 
ATOM      9  C   UNL     1       2.010   1.385  -1.361  0.00  0.00    -0.006 A 
ATOM     10  S   UNL     1       3.720   1.465  -1.833  0.00  0.00    -0.073 S 
ATOM     11  C   UNL     1       1.426   1.621  -0.003  0.00  0.00    +0.027 C 
ATOM     12  C   UNL     1      -0.013   1.086   0.008  0.00  0.00    -0.066 C 
ATOM     13  C   UNL     1      -0.735   1.597  -1.242  0.00  0.00    -0.011 C 
ATOM     14  C   UNL     1      -0.174   0.904  -2.485  0.00  0.00    +0.035 C 
ENDROOT
BRANCH  12  15
ATOM     15  N   UNL     1      -0.713   1.571   1.212  0.00  0.00    +0.383 N 
ATOM     16  H   UNL     1      -1.723   1.595   1.030  0.00  0.00    -0.085 HD
ATOM     17  H   UNL     1      -0.383   2.518   1.437  0.00  0.00    -0.085 HD
BRANCH  15  18
ATOM     18  C   UNL     1      -0.446   0.678   2.355  0.00  0.00    -0.071 C 
ATOM     19  C   UNL     1      -1.397  -0.533   2.277  0.00  0.00    -0.016 C 
ATOM     20  C   UNL     1      -0.817  -1.651   3.101  0.00  0.00    -0.002 C 
ATOM     21  C   UNL     1      -1.370  -1.672   4.539  0.00  0.00    -0.000 C 
ATOM     22  C   UNL     1      -1.483  -0.265   5.156  0.00  0.00    -0.000 C 
ATOM     23  C   UNL     1      -0.293   0.600   4.841  0.00  0.00    -0.002 C 
ATOM     24  C   UNL     1      -0.613   1.437   3.586  0.00  0.00    -0.016 C 
ENDBRANCH  15  18
ENDBRANCH  12  15
BRANCH   1  25
ATOM     25  C   UNL     1       2.200   0.095  -7.325  0.00  0.00    +0.137 C 
ATOM     26  C   UNL     1       2.872  -1.212  -7.750  0.00  0.00    +0.038 C 
BRANCH  25  30
ATOM     27  C   UNL     1       5.093   3.959  -8.638  0.00  0.00    +0.073 C 
ATOM     28  C   UNL     1       3.977   2.959  -8.795  0.00  0.00    +0.076 A 
ATOM     29  N   UNL     1       3.610   1.998  -7.979  0.00  0.00    -0.247 NA
ATOM     30  C   UNL     1       2.605   1.198  -8.268  0.00  0.00    +0.071 A 
ATOM     31  C   UNL     1       1.939   1.395  -9.435  0.00  0.00    +0.072 A 
ATOM     32  S   UNL     1       2.841   2.787 -10.098  0.00  0.00    -0.080 S 
ENDBRANCH  25  30
ENDBRANCH   1  25
TORSDOF 4
