REMARK  Name = ZINC01317832
REMARK  11 active torsions:
REMARK  status: ('A' for Active; 'I' for Inactive)
REMARK    1  A    between atoms: C_1  and  C_2
REMARK    2  A    between atoms: N_4  and  C_5
REMARK    3  A    between atoms: C_8  and  O_11
REMARK    4  A    between atoms: O_11  and  C_12
REMARK    5  A    between atoms: C_12  and  C_13
REMARK    6  A    between atoms: C_15  and  C_21
REMARK    7  A    between atoms: C_18  and  O_19
REMARK    8  A    between atoms: O_19  and  C_20
REMARK    9  A    between atoms: C_27  and  O_33
REMARK   10  A    between atoms: O_33  and  C_34
REMARK   11  A    between atoms: C_34  and  C_35
REMARK                            x       y       z     vdW  Elec       q    Type
REMARK                         _______ _______ _______ _____ _____    ______ ____
ROOT
ATOM      1  C   UNL     1       1.156 -10.708   0.683  0.00  0.00    +0.007 C 
ATOM      2  C   UNL     1       1.487 -11.038   2.119  0.00  0.00    +0.010 A 
ATOM      3  C   UNL     1       2.176 -12.145   2.479  0.00  0.00    -0.022 A 
ATOM      4  C   UNL     1       2.296 -12.126   3.920  0.00  0.00    +0.006 A 
ATOM      5  C   UNL     1       2.893 -12.997   4.836  0.00  0.00    +0.056 A 
ATOM      6  C   UNL     1       2.809 -12.650   6.176  0.00  0.00    +0.122 A 
ATOM      7  C   UNL     1       2.164 -11.493   6.594  0.00  0.00    +0.048 A 
ATOM      8  C   UNL     1       1.567 -10.619   5.702  0.00  0.00    +0.030 A 
ATOM      9  C   UNL     1       1.637 -10.944   4.350  0.00  0.00    +0.047 A 
ATOM     10  N   UNL     1       1.162 -10.313   3.233  0.00  0.00    -0.359 N 
ATOM     11  H   UNL     1       0.669  -9.477   3.231  0.00  0.00    +0.166 HD
ATOM     12  C   UNL     1       2.689 -13.158   1.487  0.00  0.00    +0.018 C 
ATOM     13  C   UNL     1       2.635 -12.518   0.092  0.00  0.00    -0.076 C 
ATOM     14  N   UNL     1       1.309 -11.925  -0.129  0.00  0.00    +0.387 N 
ATOM     15  H   UNL     1       0.599 -12.592   0.132  0.00  0.00    -0.084 HD
ATOM     16  H   UNL     1       1.203 -11.691  -1.105  0.00  0.00    -0.084 HD
ENDROOT
BRANCH   1  19
ATOM     17  C   UNL     1      -1.820  -8.402   0.419  0.00  0.00    +0.031 A 
ATOM     18  C   UNL     1      -0.519  -8.857   0.504  0.00  0.00    +0.013 A 
ATOM     19  C   UNL     1      -0.264 -10.213   0.591  0.00  0.00    -0.055 A 
ATOM     20  C   UNL     1      -1.311 -11.117   0.594  0.00  0.00    +0.006 A 
ATOM     21  C   UNL     1      -2.614 -10.666   0.509  0.00  0.00    +0.046 A 
ATOM     22  C   UNL     1      -2.872  -9.306   0.427  0.00  0.00    +0.126 A 
BRANCH  22  23
ATOM     23  O   UNL     1      -4.154  -8.860   0.350  0.00  0.00    -0.495 OA
ATOM     24  C   UNL     1      -5.186  -9.847   0.364  0.00  0.00    +0.277 C 
ENDBRANCH  22  23
BRANCH  17  25
ATOM     25  C   UNL     1      -2.097  -6.923   0.324  0.00  0.00    +0.268 C 
BRANCH  25  26
ATOM     26  O   UNL     1      -0.861  -6.206   0.334  0.00  0.00    -0.487 OA
BRANCH  26  30
ATOM     27  C   UNL     1      -1.081  -2.091   0.092  0.00  0.00    +0.034 A 
ATOM     28  C   UNL     1       0.155  -2.716   0.178  0.00  0.00    +0.027 A 
ATOM     29  C   UNL     1       0.228  -4.093   0.259  0.00  0.00    +0.047 A 
ATOM     30  C   UNL     1      -0.934  -4.850   0.255  0.00  0.00    +0.121 A 
ATOM     31  C   UNL     1      -2.169  -4.226   0.168  0.00  0.00    +0.047 A 
ATOM     32  C   UNL     1      -2.244  -2.849   0.093  0.00  0.00    +0.027 A 
BRANCH  27  36
ATOM     33  C   UNL     1      -2.194   1.470   0.609  0.00  0.00    +0.109 C 
ATOM     34  C   UNL     1      -2.169  -0.037   0.608  0.00  0.00    +0.214 C 
ATOM     35  O   UNL     1      -3.061  -0.658   1.146  0.00  0.00    -0.276 OA
ATOM     36  N   UNL     1      -1.156  -0.694   0.009  0.00  0.00    -0.286 N 
ATOM     37  H   UNL     1      -0.478  -0.200  -0.478  0.00  0.00    +0.155 HD
ENDBRANCH  27  36
ENDBRANCH  26  30
ENDBRANCH  25  26
ENDBRANCH  17  25
ENDBRANCH   1  19
BRANCH   6  38
ATOM     38  O   UNL     1       3.374 -13.465   7.107  0.00  0.00    -0.487 OA
BRANCH  38  39
ATOM     39  C   UNL     1       3.261 -13.064   8.474  0.00  0.00    +0.264 C 
BRANCH  39  40
ATOM     40  C   UNL     1       3.941 -14.081   9.353  0.00  0.00    -0.010 A 
ATOM     41  C   UNL     1       3.227 -15.158   9.845  0.00  0.00    +0.007 A 
ATOM     42  C   UNL     1       3.850 -16.091  10.652  0.00  0.00    +0.000 A 
ATOM     43  C   UNL     1       5.189 -15.948  10.966  0.00  0.00    +0.000 A 
ATOM     44  C   UNL     1       5.904 -14.872  10.474  0.00  0.00    +0.000 A 
ATOM     45  C   UNL     1       5.281 -13.941   9.664  0.00  0.00    +0.007 A 
ENDBRANCH  39  40
ENDBRANCH  38  39
ENDBRANCH   6  38
TORSDOF 9
