REMARK  Name = ZINC03831110
REMARK  8 active torsions:
REMARK  status: ('A' for Active; 'I' for Inactive)
REMARK    1  A    between atoms: C_1  and  C_2
REMARK    2  A    between atoms: C_2  and  CA_3
REMARK    3  A    between atoms: CA_3  and  C_5
REMARK    4  A    between atoms: CA_3  and  N_7
REMARK    5  A    between atoms: C_5  and  O_6
REMARK    6  A    between atoms: C_8  and  C_10
REMARK    7  A    between atoms: N_13  and  C_29
REMARK    8  A    between atoms: N_19  and  C_28
REMARK                            x       y       z     vdW  Elec       q    Type
REMARK                         _______ _______ _______ _____ _____    ______ ____
ROOT
ATOM      1  C   UNL     1      -4.140   0.357  -2.544  0.00  0.00    +0.081 C 
ATOM      2  C   UNL     1      -5.654   0.424  -2.314  0.00  0.00    -0.061 C 
ATOM      3  N   UNL     1      -6.291   0.886  -3.550  0.00  0.00    +0.383 N 
ATOM      4  C   UNL     1      -5.928   2.261  -3.864  0.00  0.00    -0.033 C 
ATOM      5  C   UNL     1      -6.338   2.581  -5.309  0.00  0.00    +0.026 C 
ATOM      6  C   UNL     1      -5.856   3.961  -5.673  0.00  0.00    -0.023 A 
ATOM      7  C   UNL     1      -6.232   4.889  -6.546  0.00  0.00    +0.090 A 
ATOM      8  N   UNL     1      -5.402   5.996  -6.458  0.00  0.00    -0.349 N 
ATOM      9  C   UNL     1      -4.450   5.802  -5.504  0.00  0.00    +0.050 A 
ATOM     10  C   UNL     1      -4.707   4.531  -4.981  0.00  0.00    +0.010 A 
ATOM     11  C   UNL     1      -3.978   3.908  -3.947  0.00  0.00    -0.014 A 
ATOM     12  C   UNL     1      -2.921   4.630  -3.444  0.00  0.00    +0.009 A 
ATOM     13  C   UNL     1      -2.642   5.895  -3.958  0.00  0.00    +0.003 A 
ATOM     14  C   UNL     1      -3.373   6.508  -4.970  0.00  0.00    +0.026 A 
ATOM     15  C   UNL     1      -4.483   2.571  -3.579  0.00  0.00    -0.056 C 
ATOM     16  C   UNL     1      -3.669   1.721  -2.974  0.00  0.00    -0.014 C 
ATOM     17  C   UNL     1      -5.530   7.204  -7.277  0.00  0.00    +0.149 C 
ATOM     18  C   UNL     1      -7.750   0.799  -3.397  0.00  0.00    -0.095 C 
ATOM     19  H   UNL     1      -6.006   0.288  -4.311  0.00  0.00    -0.081 HD
ENDROOT
BRANCH   1  21
ATOM     20  N   UNL     1      -2.105  -0.148  -1.230  0.00  0.00    -0.310 N 
ATOM     21  C   UNL     1      -3.448  -0.040  -1.265  0.00  0.00    +0.218 C 
ATOM     22  O   UNL     1      -4.100  -0.261  -0.267  0.00  0.00    -0.275 OA
ATOM     23  H   UNL     1      -1.584   0.029  -2.029  0.00  0.00    +0.149 HD
BRANCH  20  24
ATOM     24  CA  UNL     1      -1.433  -0.534   0.013  0.00  0.00    +0.098 C 
BRANCH  24  26
ATOM     25  C   UNL     1      -0.019   1.526   0.010  0.00  0.00    +0.006 C 
ATOM     26  C   UNL     1       0.002  -0.004   0.002  0.00  0.00    +0.021 C 
ENDBRANCH  24  26
BRANCH  24  27
ATOM     27  C   UNL     1      -1.413  -2.059   0.130  0.00  0.00    +0.178 C 
BRANCH  27  28
ATOM     28  O   UNL     1      -0.612  -2.607  -0.918  0.00  0.00    -0.393 OA
ATOM     29  H   UNL     1      -0.554  -3.572  -0.906  0.00  0.00    +0.209 HD
ENDBRANCH  27  28
ENDBRANCH  24  27
ENDBRANCH  20  24
ENDBRANCH   1  21
TORSDOF 5
