REMARK  Name = ZINC38726346
REMARK  14 active torsions:
REMARK  status: ('A' for Active; 'I' for Inactive)
REMARK    1  A    between atoms: C_1  and  C_2
REMARK    2  A    between atoms: C_2  and  O_3
REMARK    3  A    between atoms: O_3  and  C_4
REMARK    4  A    between atoms: C_15  and  C_25
REMARK    5  A    between atoms: N_17  and  C_20
REMARK    6  A    between atoms: C_20  and  C_21
REMARK    7  A    between atoms: C_21  and  N_22
REMARK    8  A    between atoms: N_22  and  C_23
REMARK    9  A    between atoms: N_22  and  C_24
REMARK   10  A    between atoms: C_28  and  O_33
REMARK   11  A    between atoms: C_29  and  O_31
REMARK   12  A    between atoms: O_31  and  C_32
REMARK   13  A    between atoms: O_33  and  C_34
REMARK   14  A    between atoms: C_34  and  C_35
REMARK                            x       y       z     vdW  Elec       q    Type
REMARK                         _______ _______ _______ _____ _____    ______ ____
ROOT
ATOM      1  C   UNL     1       0.777  -1.808  -1.336  0.00  0.00    +0.124 A 
ATOM      2  C   UNL     1       0.237  -2.664  -0.376  0.00  0.00    +0.046 A 
ATOM      3  C   UNL     1       0.335  -4.016  -0.530  0.00  0.00    +0.019 A 
ATOM      4  C   UNL     1       0.978  -4.542  -1.653  0.00  0.00    +0.065 A 
ATOM      5  C   UNL     1       1.531  -3.691  -2.626  0.00  0.00    +0.143 A 
ATOM      6  C   UNL     1       1.414  -2.314  -2.454  0.00  0.00    +0.092 A 
ATOM      7  O   UNL     1       2.173  -4.164  -3.719  0.00  0.00    -0.449 OA
ATOM      8  C   UNL     1       2.091  -5.474  -4.024  0.00  0.00    +0.199 A 
ATOM      9  C   UNL     1       1.583  -6.401  -3.160  0.00  0.00    +0.072 A 
ATOM     10  C   UNL     1       1.084  -6.010  -1.837  0.00  0.00    +0.199 A 
ATOM     11  O   UNL     1       0.785  -6.814  -0.972  0.00  0.00    -0.287 OA
ATOM     12  C   UNL     1       1.658  -7.735  -3.828  0.00  0.00    +0.145 C 
ATOM     13  N   UNL     1       2.248  -7.488  -5.154  0.00  0.00    -0.285 N 
ATOM     14  C   UNL     1       2.497  -6.166  -5.260  0.00  0.00    +0.283 C 
ATOM     15  O   UNL     1       2.985  -5.626  -6.232  0.00  0.00    -0.267 OA
ENDROOT
BRANCH  12  16
ATOM     16  C   UNL     1       2.536  -8.666  -3.032  0.00  0.00    -0.019 A 
ATOM     17  C   UNL     1       3.912  -8.557  -3.116  0.00  0.00    +0.009 A 
ATOM     18  C   UNL     1       4.721  -9.408  -2.388  0.00  0.00    +0.050 A 
ATOM     19  C   UNL     1       4.155 -10.374  -1.571  0.00  0.00    +0.162 A 
ATOM     20  C   UNL     1       2.770 -10.483  -1.486  0.00  0.00    +0.162 A 
ATOM     21  C   UNL     1       1.964  -9.623  -2.215  0.00  0.00    +0.055 A 
BRANCH  20  22
ATOM     22  O   UNL     1       2.209 -11.429  -0.686  0.00  0.00    -0.491 OA
ATOM     23  C   UNL     1       0.781 -11.483  -0.648  0.00  0.00    +0.277 C 
ENDBRANCH  20  22
BRANCH  19  24
ATOM     24  O   UNL     1       4.950 -11.212  -0.854  0.00  0.00    -0.484 OA
BRANCH  24  25
ATOM     25  C   UNL     1       6.362 -11.042  -0.991  0.00  0.00    +0.264 C 
BRANCH  25  26
ATOM     26  C   UNL     1       7.075 -12.052  -0.130  0.00  0.00    -0.010 A 
ATOM     27  C   UNL     1       7.393 -11.742   1.180  0.00  0.00    +0.007 A 
ATOM     28  C   UNL     1       8.047 -12.669   1.970  0.00  0.00    +0.000 A 
ATOM     29  C   UNL     1       8.384 -13.905   1.451  0.00  0.00    +0.000 A 
ATOM     30  C   UNL     1       8.066 -14.215   0.142  0.00  0.00    +0.000 A 
ATOM     31  C   UNL     1       7.407 -13.290  -0.647  0.00  0.00    +0.007 A 
ENDBRANCH  25  26
ENDBRANCH  24  25
ENDBRANCH  19  24
ENDBRANCH  12  16
BRANCH   1  32
ATOM     32  O   UNL     1       0.671  -0.465  -1.174  0.00  0.00    -0.492 OA
BRANCH  32  34
ATOM     33  C   UNL     1      -0.019   1.526   0.010  0.00  0.00    +0.048 C 
ATOM     34  C   UNL     1       0.002  -0.004   0.002  0.00  0.00    +0.225 C 
ENDBRANCH  32  34
ENDBRANCH   1  32
BRANCH  13  35
ATOM     35  C   UNL     1       2.518  -8.499  -6.178  0.00  0.00    +0.090 C 
BRANCH  35  36
ATOM     36  C   UNL     1       1.294  -8.648  -7.083  0.00  0.00    -0.060 C 
BRANCH  36  37
ATOM     37  N   UNL     1       1.564  -9.663  -8.111  0.00  0.00    +0.377 N 
ATOM     38  C   UNL     1       0.350  -9.892  -8.905  0.00  0.00    -0.097 C 
ATOM     39  C   UNL     1       2.643  -9.193  -8.990  0.00  0.00    -0.097 C 
ATOM     40  H   UNL     1       1.843 -10.525  -7.667  0.00  0.00    -0.083 HD
ENDBRANCH  36  37
ENDBRANCH  35  36
ENDBRANCH  13  35
TORSDOF 10
