REMARK  Name = ZINC20168052
REMARK  11 active torsions:
REMARK  status: ('A' for Active; 'I' for Inactive)
REMARK    1  A    between atoms: C_1  and  C_2
REMARK    2  A    between atoms: C_2  and  O_3
REMARK    3  A    between atoms: O_3  and  C_4
REMARK    4  A    between atoms: C_4  and  C_6
REMARK    5  A    between atoms: C_7  and  C_34
REMARK    6  A    between atoms: C_8  and  C_31
REMARK    7  A    between atoms: C_10  and  N_11
REMARK    8  A    between atoms: C_12  and  C_14
REMARK    9  A    between atoms: C_14  and  N_15
REMARK   10  A    between atoms: N_18  and  C_21
REMARK   11  A    between atoms: C_25  and  C_27
REMARK                            x       y       z     vdW  Elec       q    Type
REMARK                         _______ _______ _______ _____ _____    ______ ____
ROOT
ATOM      1  N   UNL     1      -0.288   1.272  -2.443  0.00  0.00    -0.281 N 
ATOM      2  C   UNL     1      -0.742   1.585  -1.213  0.00  0.00    +0.201 C 
ATOM      3  O   UNL     1      -1.736   2.268  -1.089  0.00  0.00    -0.278 OA
ATOM      4  H   UNL     1       0.614   0.653  -2.556  0.00  0.00    +0.155 HD
ENDROOT
BRANCH   1   9
ATOM      5  C   UNL     1      -0.648   1.516  -4.910  0.00  0.00    +0.091 A 
ATOM      6  C   UNL     1      -1.481   2.087  -5.861  0.00  0.00    -0.015 A 
ATOM      7  C   UNL     1      -2.547   2.819  -5.414  0.00  0.00    +0.079 A 
ATOM      8  S   UNL     1      -2.388   2.704  -3.642  0.00  0.00    -0.068 S 
ATOM      9  C   UNL     1      -0.957   1.730  -3.562  0.00  0.00    +0.087 A 
ATOM     10  C   UNL     1      -1.221   1.907  -7.334  0.00  0.00    +0.046 C 
BRANCH   7  11
ATOM     11  C   UNL     1      -3.568   3.518  -6.197  0.00  0.00    +0.248 C 
ATOM     12  O   UNL     1      -3.528   3.489  -7.413  0.00  0.00    -0.270 OA
ATOM     13  N   UNL     1      -4.552   4.194  -5.571  0.00  0.00    -0.325 N 
ATOM     14  H   UNL     1      -5.319   4.719  -6.159  0.00  0.00    +0.145 HD
ATOM     15  H   UNL     1      -4.588   4.220  -4.472  0.00  0.00    +0.145 HD
ENDBRANCH   7  11
BRANCH   5  16
ATOM     16  C   UNL     1       0.518   0.717  -5.304  0.00  0.00    +0.342 C 
ATOM     17  O   UNL     1       0.405  -0.483  -5.466  0.00  0.00    -0.245 OA
BRANCH  16  18
ATOM     18  O   UNL     1       1.714   1.312  -5.486  0.00  0.00    -0.461 OA
BRANCH  18  20
ATOM     19  C   UNL     1       4.086   1.307  -6.033  0.00  0.00    +0.048 C 
ATOM     20  C   UNL     1       2.822   0.460  -5.875  0.00  0.00    +0.229 C 
ENDBRANCH  18  20
ENDBRANCH  16  18
ENDBRANCH   5  16
ENDBRANCH   1   9
BRANCH   2  21
ATOM     21  C   UNL     1      -0.013   1.086   0.008  0.00  0.00    +0.019 C 
BRANCH  21  22
ATOM     22  N   UNL     1      -0.700   1.560   1.217  0.00  0.00    +0.387 N 
ATOM     23  C   UNL     1      -0.612   3.022   1.334  0.00  0.00    -0.059 C 
ATOM     24  C   UNL     1      -1.405   3.482   2.559  0.00  0.00    +0.086 C 
ATOM     25  N   UNL     1      -0.870   2.826   3.761  0.00  0.00    -0.333 N 
ATOM     26  C   UNL     1      -0.959   1.364   3.643  0.00  0.00    +0.086 C 
ATOM     27  C   UNL     1      -0.165   0.904   2.418  0.00  0.00    -0.059 C 
ATOM     28  H   UNL     1      -1.763   1.290   1.127  0.00  0.00    -0.081 HD
BRANCH  25  29
ATOM     29  C   UNL     1      -1.524   3.277   4.910  0.00  0.00    +0.030 A 
ATOM     30  C   UNL     1      -2.148   2.369   5.756  0.00  0.00    +0.023 A 
ATOM     31  C   UNL     1      -2.790   2.817   6.894  0.00  0.00    +0.002 A 
ATOM     32  C   UNL     1      -2.820   4.169   7.186  0.00  0.00    +0.012 A 
ATOM     33  C   UNL     1      -2.204   5.075   6.343  0.00  0.00    +0.057 A 
ATOM     34  C   UNL     1      -1.556   4.633   5.206  0.00  0.00    +0.035 A 
BRANCH  33  35
ATOM     35  C   UNL     1      -2.239   6.547   6.665  0.00  0.00    +0.417 C 
ATOM     36  F   UNL     1      -3.370   7.126   6.078  0.00  0.00    -0.166 F 
ATOM     37  F   UNL     1      -2.293   6.720   8.052  0.00  0.00    -0.166 F 
ATOM     38  F   UNL     1      -1.087   7.162   6.162  0.00  0.00    -0.166 F 
ENDBRANCH  33  35
ENDBRANCH  25  29
ENDBRANCH  21  22
ENDBRANCH   2  21
TORSDOF 9
