REMARK  Name = ZINC44608002
REMARK  16 active torsions:
REMARK  status: ('A' for Active; 'I' for Inactive)
REMARK    1  A    between atoms: C_1  and  C_2
REMARK    2  A    between atoms: C_13  and  C_22
REMARK    3  A    between atoms: C_15  and  O_21
REMARK    4  A    between atoms: C_17  and  O_20
REMARK    5  A    between atoms: C_23  and  O_40
REMARK    6  A    between atoms: C_26  and  C_28
REMARK    7  A    between atoms: C_28  and  C_29
REMARK    8  A    between atoms: C_28  and  C_30
REMARK    9  A    between atoms: C_28  and  O_39
REMARK   10  A    between atoms: C_30  and  C_32
REMARK   11  A    between atoms: C_30  and  O_38
REMARK   12  A    between atoms: C_32  and  C_33
REMARK   13  A    between atoms: C_33  and  C_34
REMARK   14  A    between atoms: C_34  and  C_35
REMARK   15  A    between atoms: C_34  and  C_36
REMARK   16  A    between atoms: C_34  and  O_37
REMARK                            x       y       z     vdW  Elec       q    Type
REMARK                         _______ _______ _______ _____ _____    ______ ____
ROOT
ATOM      1  C   UNL     1       0.347   1.838   0.599  0.00  0.00    +0.015 C 
ATOM      2  C   UNL     1       0.382   0.308   0.617  0.00  0.00    +0.006 C 
ATOM      3  C   UNL     1       0.645  -0.207  -0.780  0.00  0.00    +0.011 C 
ATOM      4  C   UNL     1       1.858   0.561  -1.328  0.00  0.00    +0.009 C 
ATOM      5  C   UNL     1       3.095   0.391  -0.447  0.00  0.00    +0.025 C 
ATOM      6  C   UNL     1       2.775   0.569   1.013  0.00  0.00    -0.031 C 
ATOM      7  C   UNL     1       3.509   1.294   1.849  0.00  0.00    +0.049 C 
ATOM      8  C   UNL     1       4.717   1.974   1.365  0.00  0.00    +0.160 C 
ATOM      9  O   UNL     1       5.204   2.910   1.964  0.00  0.00    -0.292 OA
ATOM     10  C   UNL     1       5.325   1.447   0.082  0.00  0.00    +0.069 C 
ATOM     11  C   UNL     1       4.198   1.312  -0.936  0.00  0.00    -0.013 C 
ATOM     12  C   UNL     1       4.779   0.777  -2.248  0.00  0.00    +0.041 C 
ATOM     13  C   UNL     1       5.418  -0.591  -1.998  0.00  0.00    +0.144 C 
ATOM     14  C   UNL     1       6.535  -0.454  -0.963  0.00  0.00    +0.144 C 
ATOM     15  C   UNL     1       5.978   0.091   0.352  0.00  0.00    +0.046 C 
ATOM     16  C   UNL     1       3.601   2.694  -1.209  0.00  0.00    +0.012 C 
ATOM     17  C   UNL     1       1.558  -0.172   1.513  0.00  0.00    +0.093 C 
ATOM     18  C   UNL     1       1.041   0.197   2.906  0.00  0.00    +0.040 C 
ATOM     19  C   UNL     1      -0.453  -0.232   2.842  0.00  0.00    +0.010 C 
ATOM     20  C   UNL     1      -0.846  -0.219   1.342  0.00  0.00    +0.032 C 
ENDROOT
BRANCH  14  21
ATOM     21  O   UNL     1       7.127  -1.733  -0.729  0.00  0.00    -0.389 OA
ATOM     22  H   UNL     1       7.516  -2.136  -1.517  0.00  0.00    +0.210 HD
ENDBRANCH  14  21
BRANCH  13  23
ATOM     23  O   UNL     1       4.426  -1.497  -1.510  0.00  0.00    -0.389 OA
ATOM     24  H   UNL     1       4.761  -2.386  -1.330  0.00  0.00    +0.210 HD
ENDBRANCH  13  23
BRANCH  20  25
ATOM     25  C   UNL     1      -2.039   0.712   1.113  0.00  0.00    +0.092 C 
ATOM     26  C   UNL     1      -2.325   0.814  -0.386  0.00  0.00    +0.044 C 
BRANCH  25  27
ATOM     27  O   UNL     1      -1.737   2.009   1.630  0.00  0.00    -0.386 OA
ATOM     28  H   UNL     1      -1.544   2.020   2.577  0.00  0.00    +0.210 HD
ENDBRANCH  25  27
BRANCH  25  29
ATOM     29  C   UNL     1      -3.268   0.151   1.830  0.00  0.00    +0.146 C 
BRANCH  29  30
ATOM     30  O   UNL     1      -3.501  -1.191   1.398  0.00  0.00    -0.389 OA
ATOM     31  H   UNL     1      -3.662  -1.276   0.448  0.00  0.00    +0.210 HD
ENDBRANCH  29  30
BRANCH  29  32
ATOM     32  C   UNL     1      -4.489   1.012   1.500  0.00  0.00    +0.037 C 
BRANCH  32  33
ATOM     33  C   UNL     1      -5.691   0.527   2.313  0.00  0.00    +0.037 C 
BRANCH  33  34
ATOM     34  C   UNL     1      -6.911   1.389   1.983  0.00  0.00    +0.061 C 
ATOM     35  C   UNL     1      -8.079   0.986   2.885  0.00  0.00    +0.041 C 
ATOM     36  C   UNL     1      -6.572   2.863   2.214  0.00  0.00    +0.041 C 
BRANCH  34  37
ATOM     37  O   UNL     1      -7.276   1.193   0.615  0.00  0.00    -0.389 OA
ATOM     38  H   UNL     1      -7.504   0.279   0.396  0.00  0.00    +0.210 HD
ENDBRANCH  34  37
ENDBRANCH  33  34
ENDBRANCH  32  33
ENDBRANCH  29  32
ENDBRANCH  25  29
ENDBRANCH  20  25
BRANCH  17  39
ATOM     39  O   UNL     1       1.751  -1.583   1.391  0.00  0.00    -0.384 OA
ATOM     40  H   UNL     1       2.473  -1.930   1.931  0.00  0.00    +0.211 HD
ENDBRANCH  17  39
TORSDOF 11
