REMARK  Name = ZINC62940937
REMARK  3 active torsions:
REMARK  status: ('A' for Active; 'I' for Inactive)
REMARK    1  A    between atoms: N_6  and  C_12
REMARK    2  A    between atoms: C_12  and  C_13
REMARK    3  A    between atoms: N_14  and  O_15
REMARK                            x       y       z     vdW  Elec       q    Type
REMARK                         _______ _______ _______ _____ _____    ______ ____
ROOT
ATOM      1  C   UNL     1      -0.019   1.541   0.011  0.00  0.00    -0.020 C 
ATOM      2  C   UNL     1       1.489   1.911  -0.002  0.00  0.00    -0.016 C 
ATOM      3  C   UNL     1       2.079   0.767  -0.868  0.00  0.00    -0.054 C 
ATOM      4  C   UNL     1       3.582   0.686  -0.637  0.00  0.00    +0.069 C 
ATOM      5  N   UNL     1       4.118  -0.615  -1.136  0.00  0.00    -0.297 NA
ATOM      6  C   UNL     1       3.514  -1.013  -2.382  0.00  0.00    +0.083 C 
ATOM      7  C   UNL     1       2.335  -1.944  -2.099  0.00  0.00    -0.003 C 
ATOM      8  C   UNL     1       1.087  -1.221  -1.777  0.00  0.00    -0.077 C 
ATOM      9  N   UNL     1       1.311  -0.402  -0.557  0.00  0.00    +0.382 N 
ATOM     10  C   UNL     1       0.002  -0.004   0.002  0.00  0.00    -0.078 C 
ATOM     11  H   UNL     1       1.802  -0.945   0.137  0.00  0.00    -0.081 HD
ENDROOT
BRANCH   5  12
ATOM     12  C   UNL     1       5.582  -0.571  -1.251  0.00  0.00    +0.159 C 
BRANCH  12  13
ATOM     13  C   UNL     1       6.107  -1.958  -1.517  0.00  0.00    +0.146 C 
ATOM     14  N   UNL     1       5.287  -2.953  -1.607  0.00  0.00    -0.075 NA
ATOM     15  N   UNL     1       7.460  -2.166  -1.663  0.00  0.00    -0.343 N 
ATOM     16  H   UNL     1       8.076  -1.420  -1.595  0.00  0.00    +0.144 HD
ATOM     17  H   UNL     1       7.798  -3.059  -1.834  0.00  0.00    +0.144 HD
BRANCH  14  18
ATOM     18  O   UNL     1       5.780  -4.256  -1.857  0.00  0.00    -0.408 OA
ATOM     19  H   UNL     1       5.092  -4.934  -1.907  0.00  0.00    +0.328 HD
ENDBRANCH  14  18
ENDBRANCH  12  13
ENDBRANCH   5  12
TORSDOF 3
