REMARK  Name = ZINC44168885
REMARK  18 active torsions:
REMARK  status: ('A' for Active; 'I' for Inactive)
REMARK    1  A    between atoms: C_1  and  C_2
REMARK    2  A    between atoms: C_2  and  C_3
REMARK    3  A    between atoms: C_3  and  C_4
REMARK    4  A    between atoms: C_4  and  C_5
REMARK    5  A    between atoms: C_5  and  C_6
REMARK    6  A    between atoms: C_6  and  O_7
REMARK    7  A    between atoms: O_7  and  C_8
REMARK    8  A    between atoms: C_10  and  O_39
REMARK    9  A    between atoms: C_12  and  O_38
REMARK   10  A    between atoms: C_14  and  O_21
REMARK   11  A    between atoms: C_16  and  C_19
REMARK   12  A    between atoms: C_19  and  O_20
REMARK   13  A    between atoms: O_21  and  C_22
REMARK   14  A    between atoms: C_24  and  O_37
REMARK   15  A    between atoms: C_26  and  O_36
REMARK   16  A    between atoms: C_28  and  O_35
REMARK   17  A    between atoms: C_30  and  C_33
REMARK   18  A    between atoms: C_33  and  O_34
REMARK                            x       y       z     vdW  Elec       q    Type
REMARK                         _______ _______ _______ _____ _____    ______ ____
ROOT
ATOM      1  C   UNL     1      -4.261  -6.043   0.010  0.00  0.00    +0.282 C 
ATOM      2  C   UNL     1      -5.728  -6.460   0.147  0.00  0.00    +0.201 C 
ATOM      3  C   UNL     1      -5.826  -7.987   0.079  0.00  0.00    +0.179 C 
ATOM      4  C   UNL     1      -5.206  -8.469  -1.236  0.00  0.00    +0.183 C 
ATOM      5  C   UNL     1      -3.759  -7.975  -1.320  0.00  0.00    +0.178 C 
ATOM      6  O   UNL     1      -3.736  -6.550  -1.219  0.00  0.00    -0.341 OA
ENDROOT
BRANCH   2   7
ATOM      7  O   UNL     1      -6.239  -6.003   1.401  0.00  0.00    -0.384 OA
ATOM      8  H   UNL     1      -6.203  -5.043   1.514  0.00  0.00    +0.210 HD
ENDBRANCH   2   7
BRANCH   3   9
ATOM      9  O   UNL     1      -7.199  -8.381   0.134  0.00  0.00    -0.386 OA
ATOM     10  H   UNL     1      -7.656  -8.102   0.940  0.00  0.00    +0.210 HD
ENDBRANCH   3   9
BRANCH   4  11
ATOM     11  O   UNL     1      -5.954  -7.947  -2.337  0.00  0.00    -0.340 OA
BRANCH  11  12
ATOM     12  C   UNL     1      -7.027  -8.790  -2.761  0.00  0.00    +0.282 C 
ATOM     13  C   UNL     1      -7.831  -8.082  -3.854  0.00  0.00    +0.201 C 
ATOM     14  C   UNL     1      -6.925  -7.837  -5.065  0.00  0.00    +0.179 C 
ATOM     15  C   UNL     1      -6.353  -9.177  -5.540  0.00  0.00    +0.177 C 
ATOM     16  C   UNL     1      -5.606  -9.843  -4.381  0.00  0.00    +0.178 C 
ATOM     17  O   UNL     1      -6.498 -10.013  -3.277  0.00  0.00    -0.341 OA
BRANCH  13  18
ATOM     18  O   UNL     1      -8.936  -8.900  -4.241  0.00  0.00    -0.384 OA
ATOM     19  H   UNL     1      -9.550  -9.099  -3.520  0.00  0.00    +0.210 HD
ENDBRANCH  13  18
BRANCH  14  20
ATOM     20  O   UNL     1      -5.857  -6.963  -4.695  0.00  0.00    -0.386 OA
ATOM     21  H   UNL     1      -6.149  -6.098  -4.378  0.00  0.00    +0.210 HD
ENDBRANCH  14  20
BRANCH  15  22
ATOM     22  O   UNL     1      -5.451  -8.953  -6.625  0.00  0.00    -0.386 OA
ATOM     23  H   UNL     1      -5.857  -8.529  -7.393  0.00  0.00    +0.210 HD
ENDBRANCH  15  22
BRANCH  16  24
ATOM     24  C   UNL     1      -5.083 -11.209  -4.829  0.00  0.00    +0.190 C 
BRANCH  24  25
ATOM     25  O   UNL     1      -4.288 -11.780  -3.788  0.00  0.00    -0.392 OA
ATOM     26  H   UNL     1      -3.922 -12.649  -4.003  0.00  0.00    +0.210 HD
ENDBRANCH  24  25
ENDBRANCH  16  24
ENDBRANCH  11  12
ENDBRANCH   4  11
BRANCH   5  27
ATOM     27  C   UNL     1      -3.151  -8.402  -2.657  0.00  0.00    +0.190 C 
BRANCH  27  28
ATOM     28  O   UNL     1      -1.768  -8.043  -2.688  0.00  0.00    -0.392 OA
ATOM     29  H   UNL     1      -1.317  -8.284  -3.508  0.00  0.00    +0.210 HD
ENDBRANCH  27  28
ENDBRANCH   5  27
BRANCH   1  30
ATOM     30  O   UNL     1      -4.168  -4.617   0.017  0.00  0.00    -0.349 OA
BRANCH  30  31
ATOM     31  C   UNL     1      -2.827  -4.123   0.007  0.00  0.00    +0.163 C 
BRANCH  31  32
ATOM     32  C   UNL     1      -2.848  -2.593   0.015  0.00  0.00    +0.028 C 
BRANCH  32  33
ATOM     33  C   UNL     1      -1.413  -2.063   0.004  0.00  0.00    +0.002 C 
BRANCH  33  34
ATOM     34  C   UNL     1      -1.433  -0.534   0.013  0.00  0.00    -0.000 C 
BRANCH  34  36
ATOM     35  C   UNL     1      -0.019   1.526   0.010  0.00  0.00    +0.004 C 
ATOM     36  C   UNL     1       0.002  -0.004   0.002  0.00  0.00    -0.003 C 
ENDBRANCH  34  36
ENDBRANCH  33  34
ENDBRANCH  32  33
ENDBRANCH  31  32
ENDBRANCH  30  31
ENDBRANCH   1  30
TORSDOF 17
