REMARK  Name = ZINC39711246
REMARK  13 active torsions:
REMARK  status: ('A' for Active; 'I' for Inactive)
REMARK    1  A    between atoms: C_1  and  C_2
REMARK    2  A    between atoms: C_6  and  C_15
REMARK    3  A    between atoms: C_13  and  C_14
REMARK    4  A    between atoms: C_15  and  C_17
REMARK    5  A    between atoms: C_15  and  N_27
REMARK    6  A    between atoms: N_22  and  C_23
REMARK    7  A    between atoms: C_23  and  C_24
REMARK    8  A    between atoms: C_23  and  C_25
REMARK    9  A    between atoms: C_23  and  C_26
REMARK   10  A    between atoms: N_27  and  C_28
REMARK   11  A    between atoms: N_27  and  C_36
REMARK   12  A    between atoms: C_28  and  C_29
REMARK   13  A    between atoms: C_36  and  C_37
REMARK                            x       y       z     vdW  Elec       q    Type
REMARK                         _______ _______ _______ _____ _____    ______ ____
ROOT
ATOM      1  C   UNL     1      -1.226  -4.873  -2.907  0.00  0.00    -0.008 C 
ENDROOT
BRANCH   1   7
ATOM      2  C   UNL     1       0.684  -4.388   3.958  0.00  0.00    +0.044 C 
ATOM      3  C   UNL     1       0.976  -4.453   2.481  0.00  0.00    -0.047 A 
ATOM      4  C   UNL     1       0.008  -4.100   1.596  0.00  0.00    +0.013 A 
ATOM      5  C   UNL     1       0.302  -4.166   0.165  0.00  0.00    -0.007 A 
ATOM      6  C   UNL     1      -0.638  -3.821  -0.760  0.00  0.00    -0.006 C 
ATOM      7  C   UNL     1      -0.246  -3.920  -2.221  0.00  0.00    +0.088 C 
ATOM      8  C   UNL     1       1.156  -4.393  -2.534  0.00  0.00    +0.223 C 
ATOM      9  O   UNL     1       1.524  -4.491  -3.689  0.00  0.00    -0.275 OA
ATOM     10  N   UNL     1       1.980  -4.700  -1.546  0.00  0.00    -0.285 N 
ATOM     11  C   UNL     1       1.640  -4.614  -0.261  0.00  0.00    +0.041 A 
ATOM     12  C   UNL     1       2.570  -4.957   0.738  0.00  0.00    +0.027 A 
ATOM     13  C   UNL     1       2.236  -4.869   2.051  0.00  0.00    -0.046 A 
ATOM     14  C   UNL     1       3.266  -5.240   3.086  0.00  0.00    +0.044 C 
ATOM     15  H   UNL     1       2.875  -5.001  -1.768  0.00  0.00    +0.155 HD
ENDBRANCH   1   7
BRANCH   1  16
ATOM     16  C   UNL     1      -2.643  -4.604  -2.395  0.00  0.00    +0.205 C 
ATOM     17  N   UNL     1      -3.625  -5.361  -3.183  0.00  0.00    -0.152 NA
ATOM     18  N   UNL     1      -4.392  -4.567  -3.733  0.00  0.00    -0.070 NA
ATOM     19  N   UNL     1      -4.094  -3.236  -3.443  0.00  0.00    -0.179 N 
ATOM     20  N   UNL     1      -3.006  -3.187  -2.607  0.00  0.00    -0.183 NA
ATOM     21  H   UNL     1      -4.579  -2.466  -3.780  0.00  0.00    +0.191 HD
BRANCH  20  22
ATOM     22  C   UNL     1      -1.899  -2.445  -3.224  0.00  0.00    +0.035 C 
ATOM     23  C   UNL     1      -1.115  -3.377  -4.150  0.00  0.00    +0.029 C 
ATOM     24  C   UNL     1      -2.458  -1.274  -4.034  0.00  0.00    +0.029 C 
ATOM     25  C   UNL     1      -0.970  -1.913  -2.131  0.00  0.00    +0.029 C 
ENDBRANCH  20  22
ENDBRANCH   1  16
BRANCH   1  26
ATOM     26  N   UNL     1      -0.852  -6.261  -2.604  0.00  0.00    +0.392 N 
ATOM     27  H   UNL     1       0.135  -6.387  -2.769  0.00  0.00    -0.080 HD
BRANCH  26  28
ATOM     28  C   UNL     1      -1.156  -6.555  -1.197  0.00  0.00    -0.040 C 
BRANCH  28  29
ATOM     29  C   UNL     1      -0.727  -7.963  -0.874  0.00  0.00    -0.046 A 
ATOM     30  C   UNL     1      -1.645  -8.995  -0.931  0.00  0.00    +0.003 A 
ATOM     31  C   UNL     1      -1.252 -10.287  -0.635  0.00  0.00    +0.000 A 
ATOM     32  C   UNL     1       0.059 -10.547  -0.281  0.00  0.00    +0.001 A 
ATOM     33  C   UNL     1       0.978  -9.516  -0.223  0.00  0.00    +0.020 A 
ATOM     34  C   UNL     1       0.586  -8.223  -0.525  0.00  0.00    +0.042 A 
ATOM     35 CL   UNL     1       1.740  -6.928  -0.459  0.00  0.00    -0.083 Cl
ENDBRANCH  28  29
ENDBRANCH  26  28
BRANCH  26  36
ATOM     36  C   UNL     1      -1.612  -7.173  -3.470  0.00  0.00    -0.002 C 
BRANCH  36  37
ATOM     37  C   UNL     1      -1.126  -7.040  -4.890  0.00  0.00    +0.089 A 
ATOM     38  C   UNL     1      -0.205  -7.821  -5.482  0.00  0.00    +0.042 A 
ATOM     39  C   UNL     1      -0.054  -7.345  -6.805  0.00  0.00    +0.041 A 
ATOM     40  C   UNL     1      -0.893  -6.302  -6.942  0.00  0.00    +0.195 A 
ATOM     41  O   UNL     1      -1.544  -6.125  -5.780  0.00  0.00    -0.470 OA
ENDBRANCH  36  37
ENDBRANCH  26  36
ENDBRANCH   1  26
TORSDOF 8
