REMARK  Name = ZINC09639800
REMARK  10 active torsions:
REMARK  status: ('A' for Active; 'I' for Inactive)
REMARK    1  A    between atoms: C_1  and  C_2
REMARK    2  A    between atoms: C_2  and  O_3
REMARK    3  A    between atoms: O_3  and  C_4
REMARK    4  A    between atoms: C_4  and  C_6
REMARK    5  A    between atoms: C_10  and  N_11
REMARK    6  A    between atoms: C_12  and  C_14
REMARK    7  A    between atoms: C_21  and  C_26
REMARK    8  A    between atoms: C_21  and  C_27
REMARK    9  A    between atoms: C_22  and  C_24
REMARK   10  A    between atoms: C_22  and  C_25
REMARK                            x       y       z     vdW  Elec       q    Type
REMARK                         _______ _______ _______ _____ _____    ______ ____
ROOT
ATOM      1  C   UNL     1      -4.113   1.042  -0.439  0.00  0.00    +0.091 A 
ATOM      2  C   UNL     1      -2.973   1.642   0.226  0.00  0.00    -0.024 A 
ATOM      3  C   UNL     1      -2.665   2.897  -0.170  0.00  0.00    -0.016 A 
ATOM      4  S   UNL     1      -3.872   3.288  -1.404  0.00  0.00    -0.079 S 
ATOM      5  C   UNL     1      -4.768   1.805  -1.400  0.00  0.00    +0.086 A 
ATOM      6  C   UNL     1      -1.544   3.745   0.339  0.00  0.00    -0.041 C 
ATOM      7  C   UNL     1      -0.729   1.579   1.268  0.00  0.00    -0.069 C 
ATOM      8  C   UNL     1      -2.139   0.981   1.314  0.00  0.00    +0.024 C 
ATOM      9  C   UNL     1      -0.013   1.086   0.008  0.00  0.00    -0.010 C 
ATOM     10  C   UNL     1       0.047   1.048   2.488  0.00  0.00    -0.010 C 
ATOM     11  C   UNL     1      -2.153   4.999   0.998  0.00  0.00    -0.005 C 
ATOM     12  C   UNL     1      -0.671   4.207  -0.834  0.00  0.00    -0.005 C 
ATOM     13  N   UNL     1      -0.720   3.061   1.374  0.00  0.00    +0.389 N 
ATOM     14  H   UNL     1      -1.081   3.321   2.299  0.00  0.00    -0.084 HD
ATOM     15  H   UNL     1       0.250   3.385   1.282  0.00  0.00    -0.084 HD
ENDROOT
BRANCH   5  16
ATOM     16  N   UNL     1      -5.869   1.462  -2.166  0.00  0.00    -0.275 N 
ATOM     17  C   UNL     1      -6.370   2.340  -3.056  0.00  0.00    +0.250 C 
ATOM     18  O   UNL     1      -5.857   3.434  -3.187  0.00  0.00    -0.270 OA
ATOM     19  H   UNL     1      -6.279   0.589  -2.062  0.00  0.00    +0.156 HD
BRANCH  17  20
ATOM     20  C   UNL     1      -7.545   1.974  -3.874  0.00  0.00    +0.051 A 
ATOM     21  C   UNL     1      -8.134   0.716  -3.731  0.00  0.00    +0.014 A 
ATOM     22  C   UNL     1      -9.233   0.382  -4.494  0.00  0.00    +0.001 A 
ATOM     23  C   UNL     1      -9.747   1.286  -5.407  0.00  0.00    +0.001 A 
ATOM     24  C   UNL     1      -9.166   2.532  -5.559  0.00  0.00    +0.016 A 
ATOM     25  C   UNL     1      -8.068   2.882  -4.798  0.00  0.00    +0.030 A 
ATOM     26 BR   UNL     1      -7.274   4.585  -5.006  0.00  0.00    -0.050 Br
ENDBRANCH  17  20
ENDBRANCH   5  16
BRANCH   1  27
ATOM     27  C   UNL     1      -4.568  -0.313  -0.117  0.00  0.00    +0.342 C 
ATOM     28  O   UNL     1      -5.395  -0.484   0.759  0.00  0.00    -0.245 OA
BRANCH  27  29
ATOM     29  O   UNL     1      -4.069  -1.369  -0.790  0.00  0.00    -0.461 OA
BRANCH  29  31
ATOM     30  C   UNL     1      -3.890  -3.747  -1.284  0.00  0.00    +0.048 C 
ATOM     31  C   UNL     1      -4.565  -2.682  -0.418  0.00  0.00    +0.229 C 
ENDBRANCH  29  31
ENDBRANCH  27  29
ENDBRANCH   1  27
TORSDOF 5
