REMARK  Name = ZINC14995377
REMARK  9 active torsions:
REMARK  status: ('A' for Active; 'I' for Inactive)
REMARK    1  A    between atoms: C_1  and  C_2
REMARK    2  A    between atoms: C_6  and  S_33
REMARK    3  A    between atoms: C_16  and  N_71
REMARK    4  A    between atoms: C_20  and  C_21
REMARK    5  A    between atoms: C_20  and  N_71
REMARK    6  A    between atoms: C_21  and  C_22
REMARK    7  A    between atoms: C_30  and  C_31
REMARK    8  A    between atoms: C_30  and  C_32
REMARK    9  A    between atoms: S_33  and  C_36
REMARK                            x       y       z     vdW  Elec       q    Type
REMARK                         _______ _______ _______ _____ _____    ______ ____
ROOT
ATOM      1  C   UNL     1      -4.619   3.026   8.083  0.00  0.00    +0.066 C 
ATOM      2  C   UNL     1      -4.709   4.297   7.278  0.00  0.00    +0.051 A 
ATOM      3  C   UNL     1      -5.190   5.485   7.859  0.00  0.00    +0.022 A 
ATOM      4  C   UNL     1      -5.603   5.544   9.198  0.00  0.00    +0.013 A 
ATOM      5  C   UNL     1      -6.060   6.722   9.708  0.00  0.00    +0.028 A 
ATOM      6  C   UNL     1      -6.123   7.869   8.919  0.00  0.00    +0.090 A 
ATOM      7  C   UNL     1      -5.729   7.846   7.614  0.00  0.00    +0.055 A 
ATOM      8  C   UNL     1      -5.253   6.652   7.055  0.00  0.00    +0.078 A 
ATOM      9  N   UNL     1      -4.855   6.576   5.779  0.00  0.00    -0.214 NA
ATOM     10  C   UNL     1      -4.413   5.435   5.288  0.00  0.00    +0.219 A 
ATOM     11  N   UNL     1      -4.345   4.320   6.013  0.00  0.00    -0.219 NA
ATOM     12  N   UNL     1      -4.010   5.392   3.965  0.00  0.00    -0.300 N 
ATOM     13  C   UNL     1      -2.961   6.401   3.698  0.00  0.00    +0.108 C 
ATOM     14  C   UNL     1      -1.580   5.911   4.038  0.00  0.00    +0.017 C 
ATOM     15  C   UNL     1      -0.943   5.318   2.763  0.00  0.00    -0.014 C 
ATOM     16  C   UNL     1      -1.436   3.976   2.474  0.00  0.00    -0.070 C 
ATOM     17  C   UNL     1      -2.959   3.954   2.231  0.00  0.00    +0.003 C 
ATOM     18  C   UNL     1      -3.656   4.013   3.563  0.00  0.00    +0.106 C 
ENDROOT
BRANCH   6  19
ATOM     19  S   UNL     1      -6.720   9.371   9.618  0.00  0.00    -0.006 S 
ATOM     20  O   UNL     1      -7.231  10.107   8.515  0.00  0.00    -0.170 OA
ATOM     21  O   UNL     1      -7.576   8.963  10.677  0.00  0.00    -0.170 OA
ATOM     22  C   UNL     1      -5.247  10.191  10.288  0.00  0.00    +0.200 C 
ENDBRANCH   6  19
BRANCH  16  23
ATOM     23  N   UNL     1      -0.750   3.471   1.270  0.00  0.00    +0.381 N 
ATOM     24  H   UNL     1       0.215   3.820   1.258  0.00  0.00    -0.086 HD
ATOM     25  H   UNL     1      -1.244   3.805   0.434  0.00  0.00    -0.086 HD
BRANCH  23  26
ATOM     26  C   UNL     1      -0.735   1.996   1.269  0.00  0.00    -0.078 C 
BRANCH  26  27
ATOM     27  C   UNL     1      -0.018   1.503   0.010  0.00  0.00    +0.012 C 
BRANCH  27  28
ATOM     28  C   UNL     1       0.002  -0.004   0.002  0.00  0.00    -0.072 C 
ATOM     29  C   UNL     1      -0.917  -0.695  -0.632  0.00  0.00    -0.027 C 
ATOM     30  C   UNL     1      -0.863  -2.204  -0.612  0.00  0.00    +0.031 C 
ATOM     31  C   UNL     1       0.386  -2.667   0.150  0.00  0.00    -0.000 C 
ATOM     32  C   UNL     1       1.645  -1.864  -0.223  0.00  0.00    +0.012 C 
ATOM     33  C   UNL     1       1.083  -0.782   0.732  0.00  0.00    +0.021 C 
ATOM     34  C   UNL     1       0.485  -1.963   1.519  0.00  0.00    -0.025 C 
ATOM     35  C   UNL     1       1.469  -2.625   2.486  0.00  0.00    +0.012 C 
ATOM     36  C   UNL     1      -0.870  -1.657   2.161  0.00  0.00    +0.012 C 
ENDBRANCH  27  28
ENDBRANCH  26  27
ENDBRANCH  23  26
ENDBRANCH  16  23
TORSDOF 5
