REMARK  Name = ZINC03012093
REMARK  11 active torsions:
REMARK  status: ('A' for Active; 'I' for Inactive)
REMARK    1  A    between atoms: C_1  and  C_2
REMARK    2  A    between atoms: C_2  and  O_3
REMARK    3  A    between atoms: O_3  and  C_4
REMARK    4  A    between atoms: C_4  and  C_6
REMARK    5  A    between atoms: C_12  and  C_14
REMARK    6  A    between atoms: C_19  and  C_35
REMARK    7  A    between atoms: C_22  and  C_25
REMARK    8  A    between atoms: C_28  and  O_33
REMARK    9  A    between atoms: C_29  and  O_31
REMARK   10  A    between atoms: O_31  and  C_32
REMARK   11  A    between atoms: O_33  and  C_34
REMARK                            x       y       z     vdW  Elec       q    Type
REMARK                         _______ _______ _______ _____ _____    ______ ____
ROOT
ATOM      1  C   UNL     1      -5.421  -6.270  -1.842  0.00  0.00    +0.149 A 
ATOM      2  C   UNL     1      -5.933  -7.225  -2.749  0.00  0.00    +0.078 A 
ATOM      3  C   UNL     1      -5.544  -8.442  -2.322  0.00  0.00    +0.119 A 
ATOM      4  N   UNL     1      -4.806  -8.278  -1.184  0.00  0.00    -0.238 N 
ATOM      5  N   UNL     1      -4.741  -6.912  -0.909  0.00  0.00    -0.164 NA
ATOM      6  C   UNL     1      -4.207  -9.387  -0.436  0.00  0.00    +0.215 C 
ATOM      7  C   UNL     1      -4.122 -10.614  -1.351  0.00  0.00    +0.063 C 
ATOM      8  C   UNL     1      -5.478 -10.861  -2.021  0.00  0.00    +0.104 C 
ATOM      9  N   UNL     1      -5.799  -9.700  -2.875  0.00  0.00    -0.322 N 
ATOM     10  H   UNL     1      -6.165  -9.805  -3.767  0.00  0.00    +0.148 HD
ENDROOT
BRANCH   1  17
ATOM     11  C   UNL     1      -5.377  -2.468   1.443  0.00  0.00    +0.101 C 
ATOM     12  C   UNL     1      -5.471  -3.994   1.507  0.00  0.00    +0.033 C 
ATOM     13  C   UNL     1      -4.692  -4.599   0.335  0.00  0.00    +0.109 C 
ATOM     14  N   UNL     1      -5.192  -4.015  -0.917  0.00  0.00    -0.296 N 
ATOM     15  C   UNL     1      -5.230  -2.553  -1.049  0.00  0.00    +0.109 C 
ATOM     16  C   UNL     1      -6.003  -1.970   0.139  0.00  0.00    +0.033 C 
ATOM     17  C   UNL     1      -5.608  -4.807  -1.926  0.00  0.00    +0.267 C 
ATOM     18  O   UNL     1      -6.137  -4.317  -2.905  0.00  0.00    -0.268 OA
BRANCH  11  19
ATOM     19  C   UNL     1      -6.113  -1.870   2.614  0.00  0.00    +0.310 C 
ATOM     20  O   UNL     1      -7.044  -1.123   2.425  0.00  0.00    -0.251 OA
BRANCH  19  21
ATOM     21  O   UNL     1      -5.736  -2.167   3.867  0.00  0.00    -0.465 OA
BRANCH  21  23
ATOM     22  C   UNL     1      -5.907  -2.019   6.273  0.00  0.00    +0.048 C 
ATOM     23  C   UNL     1      -6.479  -1.565   4.929  0.00  0.00    +0.229 C 
ENDBRANCH  21  23
ENDBRANCH  19  21
ENDBRANCH  11  19
ENDBRANCH   1  17
BRANCH   8  24
ATOM     24  C   UNL     1      -6.541 -11.026  -0.965  0.00  0.00    -0.024 A 
ATOM     25  C   UNL     1      -7.090  -9.911  -0.359  0.00  0.00    +0.009 A 
ATOM     26  C   UNL     1      -8.066 -10.057   0.610  0.00  0.00    +0.050 A 
ATOM     27  C   UNL     1      -8.495 -11.323   0.975  0.00  0.00    +0.162 A 
ATOM     28  C   UNL     1      -7.943 -12.445   0.364  0.00  0.00    +0.162 A 
ATOM     29  C   UNL     1      -6.970 -12.291  -0.610  0.00  0.00    +0.054 A 
BRANCH  28  30
ATOM     30  O   UNL     1      -8.362 -13.689   0.719  0.00  0.00    -0.491 OA
ATOM     31  C   UNL     1      -7.751 -14.794   0.050  0.00  0.00    +0.277 C 
ENDBRANCH  28  30
BRANCH  27  32
ATOM     32  O   UNL     1      -9.454 -11.469   1.928  0.00  0.00    -0.491 OA
ATOM     33  C   UNL     1      -9.976 -10.273   2.512  0.00  0.00    +0.277 C 
ENDBRANCH  27  32
ENDBRANCH   8  24
BRANCH   6  34
ATOM     34  C   UNL     1      -2.804  -8.993   0.030  0.00  0.00    +0.412 C 
ATOM     35  F   UNL     1      -2.886  -7.866   0.854  0.00  0.00    -0.168 F 
ATOM     36  F   UNL     1      -2.235 -10.053   0.744  0.00  0.00    -0.168 F 
ATOM     37  F   UNL     1      -2.009  -8.700  -1.083  0.00  0.00    -0.168 F 
ENDBRANCH   6  34
TORSDOF 8
