REMARK  Name = ZINC38050728
REMARK  5 active torsions:
REMARK  status: ('A' for Active; 'I' for Inactive)
REMARK    1  A    between atoms: C_3  and  N_13
REMARK    2  A    between atoms: C_4  and  C_11
REMARK    3  A    between atoms: C_6  and  C_7
REMARK    4  A    between atoms: N_13  and  C_14
REMARK    5  A    between atoms: C_20  and  N_22
REMARK                            x       y       z     vdW  Elec       q    Type
REMARK                         _______ _______ _______ _____ _____    ______ ____
ROOT
ATOM      1  C   UNL     1      -0.017   1.381   0.010  0.00  0.00    +0.014 A 
ATOM      2  C   UNL     1       1.164   2.096   0.002  0.00  0.00    +0.025 A 
ATOM      3  C   UNL     1       2.382   1.429  -0.013  0.00  0.00    +0.045 A 
ATOM      4  C   UNL     1       2.404   0.025  -0.021  0.00  0.00    +0.073 A 
ATOM      5  C   UNL     1       1.201  -0.684  -0.013  0.00  0.00    +0.033 A 
ATOM      6  C   UNL     1       0.002  -0.004   0.002  0.00  0.00    +0.056 A 
ENDROOT
BRANCH   6   7
ATOM      7  C   UNL     1      -1.295  -0.771   0.010  0.00  0.00    +0.417 C 
ATOM      8  F   UNL     1      -2.368   0.126   0.025  0.00  0.00    -0.166 F 
ATOM      9  F   UNL     1      -1.371  -1.570  -1.136  0.00  0.00    -0.166 F 
ATOM     10  F   UNL     1      -1.350  -1.583   1.149  0.00  0.00    -0.166 F 
ENDBRANCH   6   7
BRANCH   4  11
ATOM     11  C   UNL     1       3.653  -0.675  -0.037  0.00  0.00    +0.101 C 
ATOM     12  N   UNL     1       4.644  -1.231  -0.050  0.00  0.00    -0.191 NA
ENDBRANCH   4  11
BRANCH   3  13
ATOM     13  N   UNL     1       3.572   2.147  -0.021  0.00  0.00    -0.342 N 
ATOM     14  H   UNL     1       4.421   1.678  -0.032  0.00  0.00    +0.146 HD
BRANCH  13  15
ATOM     15  C   UNL     1       3.544   3.612  -0.013  0.00  0.00    +0.056 C 
ATOM     16  C   UNL     1       3.395   4.127  -1.446  0.00  0.00    +0.020 C 
ATOM     17  C   UNL     1       3.365   5.656  -1.438  0.00  0.00    +0.002 C 
ATOM     18  C   UNL     1       4.668   6.188  -0.839  0.00  0.00    -0.001 C 
ATOM     19  C   UNL     1       4.818   5.673   0.594  0.00  0.00    -0.014 C 
ATOM     20  C   UNL     1       4.847   4.144   0.586  0.00  0.00    -0.055 C 
BRANCH  20  21
ATOM     21  N   UNL     1       4.991   3.650   1.962  0.00  0.00    +0.381 N 
ATOM     22  H   UNL     1       5.010   2.641   1.957  0.00  0.00    -0.090 HD
ATOM     23  H   UNL     1       5.850   4.000   2.358  0.00  0.00    -0.090 HD
ATOM     24  H   UNL     1       4.210   3.968   2.517  0.00  0.00    -0.090 HD
ENDBRANCH  20  21
ENDBRANCH  13  15
ENDBRANCH   3  13
TORSDOF 5
