REMARK  Name = ZINC50580507
REMARK  8 active torsions:
REMARK  status: ('A' for Active; 'I' for Inactive)
REMARK    1  A    between atoms: C_3  and  N_21
REMARK    2  A    between atoms: C_6  and  N_7
REMARK    3  A    between atoms: C_8  and  C_10
REMARK    4  A    between atoms: C_10  and  N_11
REMARK    5  A    between atoms: N_14  and  C_15
REMARK    6  A    between atoms: C_15  and  C_16
REMARK    7  A    between atoms: C_22  and  N_28
REMARK    8  A    between atoms: C_23  and  C_26
REMARK                            x       y       z     vdW  Elec       q    Type
REMARK                         _______ _______ _______ _____ _____    ______ ____
ROOT
ATOM      1  N   UNL     1      -1.201  -0.721   0.010  0.00  0.00    -0.284 N 
ATOM      2  C   UNL     1      -1.186  -2.064  -0.099  0.00  0.00    +0.234 C 
ATOM      3  O   UNL     1      -0.129  -2.659  -0.113  0.00  0.00    -0.274 OA
ATOM      4  H   UNL     1      -2.045  -0.251   0.098  0.00  0.00    +0.155 HD
ENDROOT
BRANCH   1  10
ATOM      5  C   UNL     1       1.071  -0.455  -0.767  0.00  0.00    +0.025 A 
ATOM      6  C   UNL     1       2.256   0.252  -0.781  0.00  0.00    +0.029 A 
ATOM      7  C   UNL     1       2.380   1.415  -0.032  0.00  0.00    +0.068 A 
ATOM      8  C   UNL     1       1.311   1.866   0.732  0.00  0.00    +0.029 A 
ATOM      9  C   UNL     1       0.126   1.159   0.746  0.00  0.00    +0.025 A 
ATOM     10  C   UNL     1       0.002  -0.004  -0.004  0.00  0.00    +0.034 A 
BRANCH   7  11
ATOM     11  N   UNL     1       3.584   2.133  -0.045  0.00  0.00    -0.218 N 
ATOM     12  C   UNL     1       3.704   3.477   0.029  0.00  0.00    +0.137 A 
ATOM     13  C   UNL     1       5.065   3.770  -0.017  0.00  0.00    +0.111 A 
ATOM     14  C   UNL     1       5.750   2.537  -0.121  0.00  0.00    +0.155 A 
ATOM     15  N   UNL     1       4.866   1.578  -0.131  0.00  0.00    -0.172 NA
BRANCH  12  16
ATOM     16  N   UNL     1       2.671   4.389   0.130  0.00  0.00    -0.342 N 
ATOM     17  H   UNL     1       1.752   4.080   0.153  0.00  0.00    +0.144 HD
ATOM     18  H   UNL     1       2.865   5.339   0.177  0.00  0.00    +0.144 HD
ENDBRANCH  12  16
BRANCH  13  19
ATOM     19  C   UNL     1       5.658   5.072   0.033  0.00  0.00    +0.104 C 
ATOM     20  N   UNL     1       6.128   6.106   0.072  0.00  0.00    -0.191 NA
ENDBRANCH  13  19
ENDBRANCH   7  11
ENDBRANCH   1  10
BRANCH   2  21
ATOM     21  C   UNL     1      -2.482  -2.826  -0.204  0.00  0.00    +0.202 C 
BRANCH  21  22
ATOM     22  N   UNL     1      -2.198  -4.259  -0.311  0.00  0.00    -0.291 N 
ATOM     23  C   UNL     1      -3.212  -5.141  -0.417  0.00  0.00    +0.300 C 
ATOM     24  O   UNL     1      -4.362  -4.747  -0.422  0.00  0.00    -0.253 OA
ATOM     25  N   UNL     1      -2.951  -6.459  -0.516  0.00  0.00    -0.299 N 
ATOM     26  H   UNL     1      -1.280  -4.574  -0.307  0.00  0.00    +0.151 HD
ATOM     27  H   UNL     1      -2.034  -6.774  -0.511  0.00  0.00    +0.150 HD
BRANCH  25  28
ATOM     28  C   UNL     1      -4.053  -7.418  -0.630  0.00  0.00    +0.109 C 
BRANCH  28  29
ATOM     29  C   UNL     1      -3.488  -8.836  -0.727  0.00  0.00    +0.006 C 
ATOM     30  C   UNL     1      -2.741  -9.017  -2.065  0.00  0.00    +0.005 C 
ATOM     31  C   UNL     1      -3.065 -10.471  -2.487  0.00  0.00    +0.000 C 
ATOM     32  C   UNL     1      -4.545 -10.630  -2.057  0.00  0.00    +0.000 C 
ATOM     33  C   UNL     1      -4.635  -9.862  -0.722  0.00  0.00    +0.005 C 
ENDBRANCH  28  29
ENDBRANCH  25  28
ENDBRANCH  21  22
ENDBRANCH   2  21
TORSDOF 8
