REMARK  Name = ZINC66115481
REMARK  9 active torsions:
REMARK  status: ('A' for Active; 'I' for Inactive)
REMARK    1  A    between atoms: C_1  and  C_2
REMARK    2  A    between atoms: C_2  and  C_3
REMARK    3  A    between atoms: C_2  and  O_4
REMARK    4  A    between atoms: O_4  and  C_5
REMARK    5  A    between atoms: C_14  and  C_15
REMARK    6  A    between atoms: C_15  and  N_16
REMARK    7  A    between atoms: C_22  and  C_24
REMARK    8  A    between atoms: C_24  and  C_25
REMARK    9  A    between atoms: N_27  and  N_28
REMARK                            x       y       z     vdW  Elec       q    Type
REMARK                         _______ _______ _______ _____ _____    ______ ____
ROOT
ATOM      1  N   UNL     1      -4.532  -0.420  -1.038  0.00  0.00    +0.391 N 
ATOM      2  C   UNL     1      -5.232  -1.125  -2.123  0.00  0.00    -0.058 C 
ATOM      3  C   UNL     1      -5.500  -0.138  -3.260  0.00  0.00    +0.085 C 
ATOM      4  N   UNL     1      -6.140   1.065  -2.734  0.00  0.00    -0.318 N 
ATOM      5  C   UNL     1      -6.122   1.382  -1.434  0.00  0.00    +0.200 C 
ATOM      6  O   UNL     1      -6.657   2.410  -1.079  0.00  0.00    -0.278 OA
ATOM      7  C   UNL     1      -5.465   0.515  -0.398  0.00  0.00    +0.028 C 
ATOM      8  H   UNL     1      -6.597   1.658  -3.352  0.00  0.00    +0.149 HD
ATOM      9  H   UNL     1      -3.748   0.091  -1.416  0.00  0.00    -0.080 HD
ENDROOT
BRANCH   1  10
ATOM     10  C   UNL     1      -4.053  -1.393  -0.048  0.00  0.00    -0.038 C 
BRANCH  10  20
ATOM     11  C   UNL     1      -1.701  -1.954  -0.650  0.00  0.00    +0.123 A 
ATOM     12  C   UNL     1      -0.734  -2.780  -1.231  0.00  0.00    +0.046 A 
ATOM     13  C   UNL     1      -1.085  -3.940  -1.848  0.00  0.00    +0.012 A 
ATOM     14  C   UNL     1      -2.438  -4.318  -1.905  0.00  0.00    -0.017 A 
ATOM     15  C   UNL     1      -2.836  -5.510  -2.534  0.00  0.00    +0.008 A 
ATOM     16  C   UNL     1      -4.155  -5.845  -2.571  0.00  0.00    +0.001 A 
ATOM     17  C   UNL     1      -5.121  -5.022  -1.993  0.00  0.00    +0.001 A 
ATOM     18  C   UNL     1      -4.773  -3.861  -1.375  0.00  0.00    +0.009 A 
ATOM     19  C   UNL     1      -3.420  -3.481  -1.317  0.00  0.00    -0.013 A 
ATOM     20  C   UNL     1      -3.024  -2.292  -0.683  0.00  0.00    -0.015 A 
BRANCH  11  21
ATOM     21  O   UNL     1      -1.319  -0.801  -0.041  0.00  0.00    -0.489 OA
BRANCH  21  23
ATOM     22  C   UNL     1       0.174   1.095  -0.162  0.00  0.00    +0.051 C 
ATOM     23  C   UNL     1       0.056  -0.430  -0.157  0.00  0.00    +0.167 C 
ATOM     24  C   UNL     1       0.839  -0.999   1.028  0.00  0.00    +0.051 C 
ENDBRANCH  21  23
ENDBRANCH  11  21
ENDBRANCH  10  20
ENDBRANCH   1  10
BRANCH   7  25
ATOM     25  C   UNL     1      -4.701   1.397   0.592  0.00  0.00    +0.091 C 
BRANCH  25  26
ATOM     26  C   UNL     1      -3.684   2.223  -0.153  0.00  0.00    +0.225 C 
ATOM     27  O   UNL     1      -3.647   2.190  -1.365  0.00  0.00    -0.275 OA
ATOM     28  N   UNL     1      -2.817   2.998   0.527  0.00  0.00    -0.254 N 
ATOM     29  H   UNL     1      -2.847   3.024   1.496  0.00  0.00    +0.169 HD
BRANCH  28  30
ATOM     30  N   UNL     1      -1.895   3.747  -0.148  0.00  0.00    -0.254 NA
ATOM     31  H   UNL     1      -2.344   4.356  -0.816  0.00  0.00    +0.140 HD
ATOM     32  H   UNL     1      -1.318   4.272   0.491  0.00  0.00    +0.140 HD
ENDBRANCH  28  30
ENDBRANCH  25  26
ENDBRANCH   7  25
TORSDOF 7
