REMARK  Name = ZINC43604395
REMARK  11 active torsions:
REMARK  status: ('A' for Active; 'I' for Inactive)
REMARK    1  A    between atoms: C_1  and  C_2
REMARK    2  A    between atoms: C_19  and  C_21
REMARK    3  A    between atoms: C_21  and  N_22
REMARK    4  A    between atoms: N_22  and  C_23
REMARK    5  A    between atoms: C_23  and  C_24
REMARK    6  A    between atoms: C_24  and  C_25
REMARK    7  A    between atoms: C_25  and  C_33
REMARK    8  A    between atoms: C_29  and  C_31
REMARK    9  A    between atoms: C_29  and  C_32
REMARK   10  A    between atoms: C_36  and  O_39
REMARK   11  A    between atoms: O_39  and  C_40
REMARK                            x       y       z     vdW  Elec       q    Type
REMARK                         _______ _______ _______ _____ _____    ______ ____
ROOT
ATOM      1  N   UNL     1      -1.345  -6.231   1.171  0.00  0.00    +0.380 N 
ATOM      2  H   UNL     1      -1.446  -6.261   0.168  0.00  0.00    -0.086 HD
ATOM      3  H   UNL     1      -0.428  -6.566   1.427  0.00  0.00    -0.086 HD
ENDROOT
BRANCH   1   4
ATOM      4  C   UNL     1      -1.509  -4.848   1.639  0.00  0.00    -0.068 C 
BRANCH   4  20
ATOM      5  C   UNL     1       0.221   1.662   0.516  0.00  0.00    +0.012 C 
ATOM      6  C   UNL     1       0.190   0.135   0.441  0.00  0.00    -0.022 C 
ATOM      7  C   UNL     1       0.877  -0.321  -0.845  0.00  0.00    +0.007 C 
ATOM      8  C   UNL     1       2.288   0.268  -0.907  0.00  0.00    +0.005 C 
ATOM      9  C   UNL     1       3.120  -0.265   0.263  0.00  0.00    +0.030 C 
ATOM     10  C   UNL     1       2.380   0.005   1.554  0.00  0.00    -0.073 C 
ATOM     11  C   UNL     1       2.967   0.610   2.557  0.00  0.00    +0.008 C 
ATOM     12  C   UNL     1       0.934  -0.448   1.649  0.00  0.00    +0.021 C 
ATOM     13  C   UNL     1       0.917  -1.972   1.544  0.00  0.00    +0.016 C 
ATOM     14  C   UNL     1      -0.513  -2.513   1.567  0.00  0.00    +0.042 C 
ATOM     15  C   UNL     1      -1.368  -1.829   0.480  0.00  0.00    +0.181 C 
ATOM     16  C   UNL     1      -1.257  -0.341   0.463  0.00  0.00    +0.052 C 
ATOM     17  O   UNL     1      -0.907  -2.423  -0.738  0.00  0.00    -0.461 OA
ATOM     18  C   UNL     1      -0.742  -3.745  -0.504  0.00  0.00    +0.309 C 
ATOM     19  O   UNL     1      -0.816  -4.619  -1.335  0.00  0.00    -0.251 OA
ATOM     20  C   UNL     1      -0.443  -3.961   0.992  0.00  0.00    +0.087 C 
ENDBRANCH   4  20
ENDBRANCH   1   4
BRANCH   1  21
ATOM     21  C   UNL     1      -2.368  -7.082   1.793  0.00  0.00    -0.082 C 
BRANCH  21  22
ATOM     22  C   UNL     1      -2.197  -8.523   1.305  0.00  0.00    -0.007 C 
BRANCH  22  23
ATOM     23  C   UNL     1      -3.160  -9.436   2.067  0.00  0.00    -0.001 C 
ATOM     24  C   UNL     1      -2.917 -10.892   1.656  0.00  0.00    +0.039 C 
ATOM     25  C   UNL     1      -1.496 -11.297   2.057  0.00  0.00    +0.161 C 
ATOM     26  O   UNL     1      -1.329 -11.112   3.464  0.00  0.00    -0.374 OA
ATOM     27  C   UNL     1      -1.497  -9.761   3.899  0.00  0.00    +0.065 C 
ATOM     28  C   UNL     1      -2.918  -9.295   3.572  0.00  0.00    +0.046 C 
ATOM     29  C   UNL     1      -1.267  -9.680   5.409  0.00  0.00    +0.041 C 
ATOM     30  C   UNL     1      -0.487  -8.864   3.180  0.00  0.00    +0.041 C 
BRANCH  23  31
ATOM     31  C   UNL     1      -4.581  -9.050   1.746  0.00  0.00    -0.041 A 
ATOM     32  C   UNL     1      -5.398  -8.540   2.738  0.00  0.00    +0.008 A 
ATOM     33  C   UNL     1      -6.701  -8.185   2.447  0.00  0.00    +0.046 A 
ATOM     34  C   UNL     1      -7.189  -8.342   1.158  0.00  0.00    +0.120 A 
ATOM     35  C   UNL     1      -6.368  -8.854   0.164  0.00  0.00    +0.046 A 
ATOM     36  C   UNL     1      -5.064  -9.202   0.459  0.00  0.00    +0.008 A 
BRANCH  34  37
ATOM     37  O   UNL     1      -8.471  -7.995   0.869  0.00  0.00    -0.495 OA
ATOM     38  C   UNL     1      -8.906  -8.183  -0.479  0.00  0.00    +0.277 C 
ENDBRANCH  34  37
ENDBRANCH  23  31
ENDBRANCH  22  23
ENDBRANCH  21  22
ENDBRANCH   1  21
TORSDOF 7
