REMARK  Name = ZINC40004552
REMARK  9 active torsions:
REMARK  status: ('A' for Active; 'I' for Inactive)
REMARK    1  A    between atoms: C_1  and  C_2
REMARK    2  A    between atoms: C_7  and  O_31
REMARK    3  A    between atoms: C_8  and  C_13
REMARK    4  A    between atoms: C_14  and  C_15
REMARK    5  A    between atoms: C_14  and  C_17
REMARK    6  A    between atoms: N_19  and  C_20
REMARK    7  A    between atoms: C_21  and  C_29
REMARK    8  A    between atoms: O_31  and  C_32
REMARK    9  A    between atoms: C_37  and  C_38
REMARK                            x       y       z     vdW  Elec       q    Type
REMARK                         _______ _______ _______ _____ _____    ______ ____
ROOT
ATOM      1  C   UNL     1       0.138   1.390  -0.161  0.00  0.00    +0.045 C 
ATOM      2  C   UNL     1       0.108  -0.116  -0.137  0.00  0.00    -0.034 A 
ATOM      3  C   UNL     1       0.070  -0.835  -1.339  0.00  0.00    +0.008 A 
ATOM      4  C   UNL     1       0.043  -2.198  -1.306  0.00  0.00    +0.047 A 
ATOM      5  C   UNL     1       0.053  -2.863  -0.068  0.00  0.00    +0.144 A 
ATOM      6  N   UNL     1       0.027  -4.197  -0.048  0.00  0.00    -0.194 NA
ATOM      7  C   UNL     1       0.035  -4.876   1.086  0.00  0.00    +0.235 A 
ATOM      8  C   UNL     1       0.073  -4.178   2.318  0.00  0.00    +0.103 A 
ATOM      9  C   UNL     1       0.101  -2.759   2.285  0.00  0.00    +0.269 A 
ATOM     10  O   UNL     1       0.135  -2.115   3.319  0.00  0.00    -0.266 OA
ATOM     11  N   UNL     1       0.091  -2.135   1.088  0.00  0.00    -0.267 N 
ATOM     12  C   UNL     1       0.123  -0.773   1.046  0.00  0.00    +0.099 A 
ENDROOT
BRANCH   8  13
ATOM     13  C   UNL     1       0.082  -4.872   3.541  0.00  0.00    +0.042 C 
ATOM     14  C   UNL     1       1.073  -5.810   3.800  0.00  0.00    +0.114 C 
BRANCH  14  15
ATOM     15  C   UNL     1       1.010  -6.626   5.016  0.00  0.00    +0.259 C 
ATOM     16  O   UNL     1       0.089  -6.481   5.799  0.00  0.00    -0.269 OA
ATOM     17  N   UNL     1       1.972  -7.536   5.267  0.00  0.00    -0.274 N 
ATOM     18  H   UNL     1       2.705  -7.652   4.643  0.00  0.00    +0.156 HD
BRANCH  17  19
ATOM     19  C   UNL     1       1.912  -8.308   6.417  0.00  0.00    +0.090 A 
ATOM     20  C   UNL     1       2.806  -9.280   6.838  0.00  0.00    +0.084 A 
ATOM     21  C   UNL     1       2.516  -9.951   8.093  0.00  0.00    -0.018 A 
ATOM     22  C   UNL     1       1.383  -9.528   8.697  0.00  0.00    -0.004 A 
ATOM     23  S   UNL     1       0.745  -8.275   7.624  0.00  0.00    -0.077 S 
ATOM     24  C   UNL     1       0.816 -10.021   9.991  0.00  0.00    +0.043 C 
ATOM     25  C   UNL     1       1.509 -11.345  10.348  0.00  0.00    +0.005 C 
ATOM     26  C   UNL     1       3.022 -11.170  10.192  0.00  0.00    +0.005 C 
ATOM     27  C   UNL     1       3.382 -11.039   8.710  0.00  0.00    +0.037 C 
BRANCH  20  28
ATOM     28  C   UNL     1       3.968  -9.608   6.068  0.00  0.00    +0.102 C 
ATOM     29  N   UNL     1       4.889  -9.869   5.457  0.00  0.00    -0.191 NA
ENDBRANCH  20  28
ENDBRANCH  17  19
ENDBRANCH  14  15
BRANCH  14  30
ATOM     30  C   UNL     1       2.156  -5.980   2.878  0.00  0.00    +0.104 C 
ATOM     31  N   UNL     1       3.015  -6.115   2.147  0.00  0.00    -0.191 NA
ENDBRANCH  14  30
ENDBRANCH   8  13
BRANCH   7  32
ATOM     32  O   UNL     1       0.007  -6.228   1.071  0.00  0.00    -0.437 OA
BRANCH  32  33
ATOM     33  C   UNL     1      -0.137  -6.849  -0.129  0.00  0.00    +0.133 A 
ATOM     34  C   UNL     1       0.982  -7.280  -0.827  0.00  0.00    +0.046 A 
ATOM     35  C   UNL     1       0.833  -7.911  -2.047  0.00  0.00    +0.004 A 
ATOM     36  C   UNL     1      -0.430  -8.114  -2.572  0.00  0.00    +0.000 A 
ATOM     37  C   UNL     1      -1.546  -7.686  -1.879  0.00  0.00    +0.007 A 
ATOM     38  C   UNL     1      -1.403  -7.059  -0.655  0.00  0.00    -0.008 A 
ATOM     39  C   UNL     1      -2.621  -6.598   0.103  0.00  0.00    +0.047 C 
ENDBRANCH  32  33
ENDBRANCH   7  32
TORSDOF 7
