REMARK  Name = ZINC10245887
REMARK  8 active torsions:
REMARK  status: ('A' for Active; 'I' for Inactive)
REMARK    1  A    between atoms: C_1  and  C_2
REMARK    2  A    between atoms: C_2  and  O_3
REMARK    3  A    between atoms: O_3  and  C_4
REMARK    4  A    between atoms: C_9  and  N_10
REMARK    5  A    between atoms: C_11  and  C_13
REMARK    6  A    between atoms: C_14  and  N_22
REMARK    7  A    between atoms: C_23  and  C_25
REMARK    8  A    between atoms: N_30  and  C_32
REMARK                            x       y       z     vdW  Elec       q    Type
REMARK                         _______ _______ _______ _____ _____    ______ ____
ROOT
ATOM      1  C   UNL     1      -2.728   5.336   0.098  0.00  0.00    +0.212 A 
ATOM      2  C   UNL     1      -3.378   4.152  -0.117  0.00  0.00    +0.092 A 
ATOM      3  C   UNL     1      -2.332   3.170  -0.427  0.00  0.00    +0.042 A 
ATOM      4  C   UNL     1      -2.340   1.810  -0.741  0.00  0.00    +0.013 A 
ATOM      5  C   UNL     1      -1.160   1.163  -0.979  0.00  0.00    +0.001 A 
ATOM      6  C   UNL     1       0.044   1.852  -0.921  0.00  0.00    +0.004 A 
ATOM      7  C   UNL     1       0.071   3.196  -0.618  0.00  0.00    +0.047 A 
ATOM      8  C   UNL     1      -1.117   3.874  -0.367  0.00  0.00    +0.138 A 
ATOM      9  O   UNL     1      -1.397   5.154  -0.053  0.00  0.00    -0.448 OA
ENDROOT
BRANCH   1  11
ATOM     10  N   UNL     1      -2.623   7.685   0.727  0.00  0.00    -0.276 N 
ATOM     11  C   UNL     1      -3.373   6.603   0.438  0.00  0.00    +0.286 C 
ATOM     12  O   UNL     1      -4.588   6.681   0.460  0.00  0.00    -0.266 OA
ATOM     13  H   UNL     1      -1.657   7.639   0.653  0.00  0.00    +0.155 HD
BRANCH  10  19
ATOM     14  C   UNL     1      -2.542   9.788   1.922  0.00  0.00    +0.142 A 
ATOM     15  C   UNL     1      -3.156  10.964   2.321  0.00  0.00    +0.047 A 
ATOM     16  C   UNL     1      -4.458  11.229   1.937  0.00  0.00    +0.004 A 
ATOM     17  C   UNL     1      -5.150  10.324   1.155  0.00  0.00    +0.002 A 
ATOM     18  C   UNL     1      -4.543   9.151   0.747  0.00  0.00    +0.027 A 
ATOM     19  C   UNL     1      -3.239   8.875   1.133  0.00  0.00    +0.076 A 
BRANCH  14  20
ATOM     20  O   UNL     1      -1.262   9.526   2.298  0.00  0.00    -0.490 OA
BRANCH  20  22
ATOM     21  C   UNL     1       0.812  10.041   3.427  0.00  0.00    +0.048 C 
ATOM     22  C   UNL     1      -0.610  10.507   3.106  0.00  0.00    +0.226 C 
ENDBRANCH  20  22
ENDBRANCH  14  20
ENDBRANCH  10  19
ENDBRANCH   1  11
BRANCH   2  23
ATOM     23  N   UNL     1      -4.748   3.925  -0.056  0.00  0.00    -0.282 N 
ATOM     24  C   UNL     1      -5.215   2.694   0.231  0.00  0.00    +0.222 C 
ATOM     25  O   UNL     1      -4.442   1.800   0.501  0.00  0.00    -0.275 OA
ATOM     26  H   UNL     1      -5.368   4.653  -0.219  0.00  0.00    +0.155 HD
BRANCH  24  27
ATOM     27  C   UNL     1      -6.699   2.428   0.217  0.00  0.00    +0.102 C 
ATOM     28  C   UNL     1      -7.265   2.527  -1.218  0.00  0.00    +0.110 C 
ATOM     29  C   UNL     1      -7.221   1.105  -1.733  0.00  0.00    +0.221 C 
ATOM     30  O   UNL     1      -7.311   0.785  -2.900  0.00  0.00    -0.275 OA
ATOM     31  N   UNL     1      -7.067   0.247  -0.710  0.00  0.00    -0.271 N 
ATOM     32  C   UNL     1      -7.000   0.956   0.574  0.00  0.00    +0.127 C 
BRANCH  31  33
ATOM     33  C   UNL     1      -6.980  -1.143  -0.850  0.00  0.00    +0.036 A 
ATOM     34  C   UNL     1      -6.937  -1.712  -2.116  0.00  0.00    +0.025 A 
ATOM     35  C   UNL     1      -6.846  -3.084  -2.251  0.00  0.00    +0.022 A 
ATOM     36  C   UNL     1      -6.810  -3.891  -1.128  0.00  0.00    +0.041 A 
ATOM     37  C   UNL     1      -6.858  -3.326   0.135  0.00  0.00    +0.022 A 
ATOM     38  C   UNL     1      -6.943  -1.954   0.276  0.00  0.00    +0.025 A 
ATOM     39 CL   UNL     1      -6.703  -5.615  -1.302  0.00  0.00    -0.084 Cl
ENDBRANCH  31  33
ENDBRANCH  24  27
ENDBRANCH   2  23
TORSDOF 7
