REMARK  Name = ZINC20433947
REMARK  6 active torsions:
REMARK  status: ('A' for Active; 'I' for Inactive)
REMARK    1  A    between atoms: C_1  and  C_2
REMARK    2  A    between atoms: C_4  and  N_11
REMARK    3  A    between atoms: C_5  and  O_9
REMARK    4  A    between atoms: O_9  and  C_10
REMARK    5  A    between atoms: C_12  and  C_14
REMARK    6  A    between atoms: C_17  and  O_21
REMARK                            x       y       z     vdW  Elec       q    Type
REMARK                         _______ _______ _______ _____ _____    ______ ____
ROOT
ATOM      1  N   UNL     1       1.169   3.492   0.009  0.00  0.00    -0.284 N 
ATOM      2  C   UNL     1       2.326   4.177   0.104  0.00  0.00    +0.203 C 
ATOM      3  O   UNL     1       3.384   3.584   0.091  0.00  0.00    -0.277 OA
ATOM      4  H   UNL     1       0.213   4.033  -0.053  0.00  0.00    +0.155 HD
ENDROOT
BRANCH   1   8
ATOM      5  C   UNL     1       3.370  -0.701  -1.315  0.00  0.00    +0.045 C 
ATOM      6  C   UNL     1       2.237   0.032  -0.645  0.00  0.00    -0.030 A 
ATOM      7  C   UNL     1       2.225   1.415  -0.627  0.00  0.00    +0.031 A 
ATOM      8  C   UNL     1       1.183   2.091  -0.009  0.00  0.00    +0.076 A 
ATOM      9  C   UNL     1       0.150   1.374   0.591  0.00  0.00    +0.143 A 
ATOM     10  C   UNL     1       0.169  -0.011   0.570  0.00  0.00    +0.067 A 
ATOM     11  C   UNL     1       1.212  -0.679  -0.048  0.00  0.00    +0.047 A 
ATOM     12 CL   UNL     1       1.233  -2.415  -0.073  0.00  0.00    -0.083 Cl
BRANCH   9  13
ATOM     13  O   UNL     1      -0.876   2.032   1.193  0.00  0.00    -0.493 OA
ATOM     14  C   UNL     1      -1.903   1.232   1.783  0.00  0.00    +0.277 C 
ENDBRANCH   9  13
ENDBRANCH   1   8
BRANCH   2  15
ATOM     15  C   UNL     1       2.305   5.679   0.225  0.00  0.00    +0.019 C 
ATOM     16  C   UNL     1       2.037   6.098   1.692  0.00  0.00    +0.023 C 
ATOM     17  C   UNL     1       2.664   7.517   1.731  0.00  0.00    +0.097 C 
ATOM     18  C   UNL     1       3.889   7.383   0.802  0.00  0.00    -0.050 C 
ATOM     19  N   UNL     1       3.636   6.239  -0.093  0.00  0.00    +0.388 N 
ATOM     20  H   UNL     1       4.404   5.467   0.059  0.00  0.00    -0.085 HD
ATOM     21  H   UNL     1       3.652   6.572  -1.141  0.00  0.00    -0.085 HD
BRANCH  17  22
ATOM     22  O   UNL     1       3.071   7.858   3.058  0.00  0.00    -0.394 OA
ATOM     23  H   UNL     1       3.536   8.835   3.256  0.00  0.00    +0.210 HD
ENDBRANCH  17  22
ENDBRANCH   2  15
TORSDOF 4
