REMARK  Name = ZINC63896911
REMARK  5 active torsions:
REMARK  status: ('A' for Active; 'I' for Inactive)
REMARK    1  A    between atoms: C_8  and  C_16
REMARK    2  A    between atoms: C_18  and  O_35
REMARK    3  A    between atoms: C_21  and  S_34
REMARK    4  A    between atoms: N_23  and  C_26
REMARK    5  A    between atoms: C_26  and  C_27
REMARK                            x       y       z     vdW  Elec       q    Type
REMARK                         _______ _______ _______ _____ _____    ______ ____
ROOT
ATOM      1  C   UNL     1       3.377  -2.199  -2.429  0.00  0.00    +0.138 C 
ATOM      2  C   UNL     1       3.987  -3.008  -3.577  0.00  0.00    +0.198 C 
ATOM      3  N   UNL     1       3.959  -2.182  -4.795  0.00  0.00    -0.264 NA
ATOM      4  C   UNL     1       4.899  -1.061  -4.678  0.00  0.00    +0.203 C 
ATOM      5  N   UNL     1       4.664  -0.322  -3.442  0.00  0.00    -0.272 N 
ATOM      6  C   UNL     1       3.991  -0.826  -2.402  0.00  0.00    +0.226 C 
ATOM      7  O   UNL     1       3.870  -0.151  -1.402  0.00  0.00    -0.275 OA
ATOM      8  H   UNL     1       4.159  -2.737  -5.614  0.00  0.00    +0.127 HD
ENDROOT
BRANCH   1  15
ATOM      9  C   UNL     1      -1.660  -0.794  -0.790  0.00  0.00    +0.001 A 
ATOM     10  C   UNL     1      -0.961   0.379  -0.472  0.00  0.00    +0.002 A 
ATOM     11  C   UNL     1       0.360   0.385  -0.197  0.00  0.00    +0.026 A 
ATOM     12  C   UNL     1       1.108  -0.823  -0.219  0.00  0.00    +0.043 A 
ATOM     13  N   UNL     1       2.384  -1.064  -0.015  0.00  0.00    -0.376 N 
ATOM     14  C   UNL     1       2.596  -2.507  -0.071  0.00  0.00    +0.124 C 
ATOM     15  C   UNL     1       3.655  -2.907  -1.102  0.00  0.00    +0.096 C 
ATOM     16  N   UNL     1       3.587  -4.365  -1.293  0.00  0.00    -0.310 NA
ATOM     17  C   UNL     1       2.342  -4.807  -1.926  0.00  0.00    +0.085 C 
ATOM     18  C   UNL     1       1.148  -4.526  -0.995  0.00  0.00    +0.048 C 
ATOM     19  C   UNL     1       1.271  -3.089  -0.541  0.00  0.00    -0.036 C 
ATOM     20  C   UNL     1       0.394  -2.078  -0.560  0.00  0.00    -0.001 A 
ATOM     21  C   UNL     1      -1.045  -1.996  -0.843  0.00  0.00    +0.010 A 
ATOM     22  H   UNL     1       4.391  -4.700  -1.803  0.00  0.00    +0.122 HD
ATOM     23  H   UNL     1       3.069  -0.397   0.146  0.00  0.00    +0.160 HD
ENDBRANCH   1  15
BRANCH   4  24
ATOM     24  S   UNL     1       6.596  -1.702  -4.676  0.00  0.00    -0.140 S 
ATOM     25  H   UNL     1       6.705  -2.336  -5.858  0.00  0.00    +0.105 HD
ENDBRANCH   4  24
BRANCH   2  26
ATOM     26  O   UNL     1       5.337  -3.353  -3.258  0.00  0.00    -0.377 OA
ATOM     27  H   UNL     1       5.784  -3.867  -3.944  0.00  0.00    +0.211 HD
ENDBRANCH   2  26
BRANCH   5  28
ATOM     28  C   UNL     1       5.192   1.040  -3.336  0.00  0.00    +0.145 C 
BRANCH  28  29
ATOM     29  C   UNL     1       4.162   2.019  -3.836  0.00  0.00    -0.030 A 
ATOM     30  C   UNL     1       4.138   2.375  -5.172  0.00  0.00    +0.008 A 
ATOM     31  C   UNL     1       3.193   3.272  -5.632  0.00  0.00    +0.038 A 
ATOM     32  C   UNL     1       2.270   3.815  -4.754  0.00  0.00    +0.123 A 
ATOM     33  C   UNL     1       2.295   3.458  -3.417  0.00  0.00    +0.038 A 
ATOM     34  C   UNL     1       3.237   2.557  -2.960  0.00  0.00    +0.008 A 
ATOM     35  F   UNL     1       1.346   4.693  -5.203  0.00  0.00    -0.205 F 
ENDBRANCH  28  29
ENDBRANCH   5  28
TORSDOF 5
