REMARK  Name = ZINC12621975
REMARK  12 active torsions:
REMARK  status: ('A' for Active; 'I' for Inactive)
REMARK    1  A    between atoms: C_4  and  O_7
REMARK    2  A    between atoms: O_7  and  C_8
REMARK    3  A    between atoms: C_8  and  C_9
REMARK    4  A    between atoms: N_11  and  N_12
REMARK    5  A    between atoms: C_13  and  C_14
REMARK    6  A    between atoms: C_17  and  O_20
REMARK    7  A    between atoms: O_20  and  C_21
REMARK    8  A    between atoms: C_23  and  O_36
REMARK    9  A    between atoms: C_25  and  O_35
REMARK   10  A    between atoms: C_27  and  O_34
REMARK   11  A    between atoms: C_29  and  C_32
REMARK   12  A    between atoms: C_32  and  O_33
REMARK                            x       y       z     vdW  Elec       q    Type
REMARK                         _______ _______ _______ _____ _____    ______ ____
ROOT
ATOM      1  C   UNL     1      -0.017   1.393   0.010  0.00  0.00    -0.005 A 
ATOM      2  C   UNL     1       1.186   2.104   0.002  0.00  0.00    +0.013 A 
ATOM      3  C   UNL     1       2.385   1.425  -0.013  0.00  0.00    +0.046 A 
ATOM      4  C   UNL     1       2.399   0.036  -0.021  0.00  0.00    +0.124 A 
ATOM      5  C   UNL     1       1.206  -0.675  -0.013  0.00  0.00    +0.046 A 
ATOM      6  C   UNL     1       0.002  -0.004   0.002  0.00  0.00    +0.013 A 
ENDROOT
BRANCH   1   8
ATOM      7  N   UNL     1      -1.318   3.413   0.027  0.00  0.00    -0.188 NA
ATOM      8  C   UNL     1      -1.302   2.115   0.020  0.00  0.00    +0.138 C 
BRANCH   7  11
ATOM      9  C   UNL     1      -2.555   5.447   0.044  0.00  0.00    +0.270 C 
ATOM     10  O   UNL     1      -1.512   6.066   0.042  0.00  0.00    -0.270 OA
ATOM     11  N   UNL     1      -2.539   4.099   0.036  0.00  0.00    -0.204 N 
ATOM     12  H   UNL     1      -3.373   3.604   0.038  0.00  0.00    +0.177 HD
BRANCH   9  13
ATOM     13  C   UNL     1      -3.869   6.184   0.054  0.00  0.00    +0.326 C 
BRANCH  13  14
ATOM     14  O   UNL     1      -3.624   7.592   0.060  0.00  0.00    -0.483 OA
BRANCH  14  18
ATOM     15  C   UNL     1      -6.926  10.066   0.090  0.00  0.00    +0.000 A 
ATOM     16  C   UNL     1      -5.655  10.611   0.087  0.00  0.00    +0.004 A 
ATOM     17  C   UNL     1      -4.548   9.785   0.077  0.00  0.00    +0.045 A 
ATOM     18  C   UNL     1      -4.712   8.407   0.070  0.00  0.00    +0.121 A 
ATOM     19  C   UNL     1      -5.988   7.863   0.068  0.00  0.00    +0.045 A 
ATOM     20  C   UNL     1      -7.092   8.694   0.084  0.00  0.00    +0.004 A 
ENDBRANCH  14  18
ENDBRANCH  13  14
ENDBRANCH   9  13
ENDBRANCH   7  11
ENDBRANCH   1   8
BRANCH   4  21
ATOM     21  O   UNL     1       3.583  -0.629  -0.035  0.00  0.00    -0.461 OA
BRANCH  21  22
ATOM     22  C   UNL     1       4.773   0.163  -0.043  0.00  0.00    +0.339 C 
ATOM     23  C   UNL     1       5.996  -0.751   0.066  0.00  0.00    +0.214 C 
ATOM     24  C   UNL     1       7.267   0.101  -0.003  0.00  0.00    +0.180 C 
ATOM     25  C   UNL     1       7.258   0.908  -1.305  0.00  0.00    +0.177 C 
ATOM     26  C   UNL     1       5.986   1.758  -1.360  0.00  0.00    +0.179 C 
ATOM     27  O   UNL     1       4.842   0.908  -1.261  0.00  0.00    -0.331 OA
BRANCH  25  28
ATOM     28  O   UNL     1       8.405   1.760  -1.346  0.00  0.00    -0.386 OA
ATOM     29  H   UNL     1       9.248   1.288  -1.315  0.00  0.00    +0.210 HD
ENDBRANCH  25  28
BRANCH  24  30
ATOM     30  O   UNL     1       8.415  -0.751   0.023  0.00  0.00    -0.386 OA
ATOM     31  H   UNL     1       8.484  -1.292   0.822  0.00  0.00    +0.210 HD
ENDBRANCH  24  30
BRANCH  23  32
ATOM     32  O   UNL     1       5.989  -1.687  -1.013  0.00  0.00    -0.383 OA
ATOM     33  H   UNL     1       5.209  -2.258  -1.034  0.00  0.00    +0.210 HD
ENDBRANCH  23  32
BRANCH  26  34
ATOM     34  C   UNL     1       5.940   2.522  -2.685  0.00  0.00    +0.190 C 
BRANCH  34  35
ATOM     35  O   UNL     1       4.814   3.402  -2.689  0.00  0.00    -0.392 OA
ATOM     36  H   UNL     1       4.722   3.919  -3.501  0.00  0.00    +0.210 HD
ENDBRANCH  34  35
ENDBRANCH  26  34
ENDBRANCH  21  22
ENDBRANCH   4  21
TORSDOF 12
