REMARK  Name = ZINC09407053
REMARK  10 active torsions:
REMARK  status: ('A' for Active; 'I' for Inactive)
REMARK    1  A    between atoms: C_1  and  N_2
REMARK    2  A    between atoms: C_3  and  C_34
REMARK    3  A    between atoms: C_5  and  C_15
REMARK    4  A    between atoms: N_17  and  C_18
REMARK    5  A    between atoms: C_18  and  C_19
REMARK    6  A    between atoms: C_19  and  C_20
REMARK    7  A    between atoms: C_20  and  N_71
REMARK    8  A    between atoms: N_23  and  C_26
REMARK    9  A    between atoms: C_31  and  O_32
REMARK   10  A    between atoms: O_32  and  C_33
REMARK                            x       y       z     vdW  Elec       q    Type
REMARK                         _______ _______ _______ _____ _____    ______ ____
ROOT
ATOM      1  C   UNL     1       1.402   1.605  -0.003  0.00  0.00    +0.223 C 
ATOM      2  O   UNL     1       1.772   2.375   0.858  0.00  0.00    -0.275 OA
ATOM      3  N   UNL     1       2.256   1.213  -0.969  0.00  0.00    -0.315 N 
ATOM      4  H   UNL     1       1.941   0.656  -1.698  0.00  0.00    +0.149 HD
ENDROOT
BRANCH   1   8
ATOM      5  C   UNL     1      -1.852  -1.909   1.241  0.00  0.00    +0.133 C 
ATOM      6  N   UNL     1      -1.503  -0.488   1.177  0.00  0.00    -0.292 N 
ATOM      7  C   UNL     1      -0.110  -0.097   0.969  0.00  0.00    +0.129 C 
ATOM      8  C   UNL     1      -0.013   1.085   0.008  0.00  0.00    +0.131 C 
ATOM      9  C   UNL     1      -0.944   2.185   0.447  0.00  0.00    -0.021 A 
ATOM     10  C   UNL     1      -0.621   3.507   0.233  0.00  0.00    +0.005 A 
ATOM     11  C   UNL     1      -1.494   4.505   0.629  0.00  0.00    +0.000 A 
ATOM     12  C   UNL     1      -2.694   4.185   1.240  0.00  0.00    +0.001 A 
ATOM     13  C   UNL     1      -3.023   2.872   1.462  0.00  0.00    +0.013 A 
ATOM     14  C   UNL     1      -2.147   1.862   1.071  0.00  0.00    +0.041 A 
ATOM     15  C   UNL     1      -2.470   0.440   1.312  0.00  0.00    +0.247 C 
ATOM     16  O   UNL     1      -3.597   0.111   1.627  0.00  0.00    -0.270 OA
BRANCH   7  17
ATOM     17  C   UNL     1       0.499   0.288   2.292  0.00  0.00    +0.011 A 
ATOM     18  C   UNL     1       1.728  -0.006   2.784  0.00  0.00    +0.013 A 
ATOM     19  C   UNL     1       2.078   0.462   4.036  0.00  0.00    +0.008 A 
ATOM     20  C   UNL     1       1.178   1.192   4.740  0.00  0.00    +0.045 A 
ATOM     21  S   UNL     1      -0.212   1.243   3.622  0.00  0.00    -0.100 S 
ENDBRANCH   7  17
ENDBRANCH   1   8
BRANCH   3  22
ATOM     22  C   UNL     1       3.660   1.629  -0.919  0.00  0.00    +0.102 C 
BRANCH  22  23
ATOM     23  C   UNL     1       4.406   1.054  -2.124  0.00  0.00    +0.000 C 
BRANCH  23  24
ATOM     24  C   UNL     1       5.872   1.489  -2.072  0.00  0.00    -0.077 C 
BRANCH  24  30
ATOM     25  C   UNL     1       6.659  -0.530  -3.154  0.00  0.00    -0.060 C 
ATOM     26  C   UNL     1       7.340  -1.070  -4.413  0.00  0.00    +0.086 C 
ATOM     27  N   UNL     1       8.684  -0.486  -4.529  0.00  0.00    -0.331 N 
ATOM     28  C   UNL     1       8.614   0.979  -4.604  0.00  0.00    +0.086 C 
ATOM     29  C   UNL     1       7.932   1.520  -3.345  0.00  0.00    -0.060 C 
ATOM     30  N   UNL     1       6.574   0.942  -3.253  0.00  0.00    +0.382 N 
ATOM     31  H   UNL     1       6.048   1.191  -4.098  0.00  0.00    -0.082 HD
BRANCH  27  32
ATOM     32  C   UNL     1       9.367  -1.013  -5.632  0.00  0.00    +0.072 A 
ATOM     33  C   UNL     1       8.887  -0.794  -6.915  0.00  0.00    +0.027 A 
ATOM     34  C   UNL     1       9.566  -1.311  -8.003  0.00  0.00    +0.002 A 
ATOM     35  C   UNL     1      10.716  -2.055  -7.815  0.00  0.00    +0.004 A 
ATOM     36  C   UNL     1      11.197  -2.281  -6.538  0.00  0.00    +0.047 A 
ATOM     37  C   UNL     1      10.525  -1.763  -5.443  0.00  0.00    +0.141 A 
BRANCH  37  38
ATOM     38  O   UNL     1      10.996  -1.985  -4.187  0.00  0.00    -0.493 OA
ATOM     39  C   UNL     1      12.190  -2.762  -4.069  0.00  0.00    +0.277 C 
ENDBRANCH  37  38
ENDBRANCH  27  32
ENDBRANCH  24  30
ENDBRANCH  23  24
ENDBRANCH  22  23
ENDBRANCH   3  22
TORSDOF 8
