REMARK  Name = ZINC22011690
REMARK  10 active torsions:
REMARK  status: ('A' for Active; 'I' for Inactive)
REMARK    1  A    between atoms: C_1  and  C_2
REMARK    2  A    between atoms: C_4  and  N_11
REMARK    3  A    between atoms: C_6  and  C_8
REMARK    4  A    between atoms: C_8  and  C_9
REMARK    5  A    between atoms: C_8  and  C_10
REMARK    6  A    between atoms: N_14  and  C_17
REMARK    7  A    between atoms: C_17  and  C_18
REMARK    8  A    between atoms: C_27  and  C_29
REMARK    9  A    between atoms: C_32  and  O_35
REMARK   10  A    between atoms: O_35  and  C_36
REMARK                            x       y       z     vdW  Elec       q    Type
REMARK                         _______ _______ _______ _____ _____    ______ ____
ROOT
ATOM      1  C   UNL     1       1.751  -4.481  -6.791  0.00  0.00    +0.125 A 
ATOM      2  N   UNL     1       2.543  -4.982  -7.775  0.00  0.00    -0.309 N 
ATOM      3  H   UNL     1       3.243  -5.620  -7.564  0.00  0.00    +0.170 HD
ATOM      4  C   UNL     1       2.346  -4.583  -9.055  0.00  0.00    +0.266 A 
ATOM      5  O   UNL     1       3.040  -5.016  -9.960  0.00  0.00    -0.267 OA
ATOM      6  C   UNL     1       1.327  -3.666  -9.308  0.00  0.00    +0.102 A 
ATOM      7  C   UNL     1       0.520  -3.162  -8.271  0.00  0.00    +0.086 A 
ATOM      8  N   UNL     1       0.798  -3.633  -7.010  0.00  0.00    -0.232 NA
ATOM      9  C   UNL     1      -0.464  -2.249  -8.659  0.00  0.00    +0.044 A 
ATOM     10  C   UNL     1      -0.592  -1.903  -9.973  0.00  0.00    +0.022 A 
ATOM     11  S   UNL     1       0.693  -2.863 -10.757  0.00  0.00    -0.081 S 
ENDROOT
BRANCH  10  12
ATOM     12  C   UNL     1      -1.554  -0.967 -10.592  0.00  0.00    -0.011 A 
ATOM     13  C   UNL     1      -2.490  -0.300  -9.800  0.00  0.00    +0.012 A 
ATOM     14  C   UNL     1      -3.385   0.572 -10.381  0.00  0.00    +0.046 A 
ATOM     15  C   UNL     1      -3.357   0.787 -11.753  0.00  0.00    +0.120 A 
ATOM     16  C   UNL     1      -2.428   0.125 -12.544  0.00  0.00    +0.046 A 
ATOM     17  C   UNL     1      -1.525  -0.744 -11.970  0.00  0.00    +0.012 A 
BRANCH  15  18
ATOM     18  O   UNL     1      -4.242   1.647 -12.322  0.00  0.00    -0.495 OA
ATOM     19  C   UNL     1      -4.157   1.821 -13.738  0.00  0.00    +0.277 C 
ENDBRANCH  15  18
ENDBRANCH  10  12
BRANCH   1  20
ATOM     20  C   UNL     1       1.990  -4.941  -5.375  0.00  0.00    +0.158 C 
BRANCH  20  24
ATOM     21  N   UNL     1       0.030  -2.832  -2.322  0.00  0.00    -0.313 N 
ATOM     22  C   UNL     1      -0.066  -4.299  -2.288  0.00  0.00    +0.122 C 
ATOM     23  C   UNL     1       1.070  -4.880  -3.137  0.00  0.00    +0.104 C 
ATOM     24  N   UNL     1       1.028  -4.286  -4.479  0.00  0.00    -0.292 NA
ATOM     25  C   UNL     1       1.258  -2.836  -4.428  0.00  0.00    +0.104 C 
ATOM     26  C   UNL     1       0.124  -2.171  -3.632  0.00  0.00    +0.122 C 
BRANCH  21  30
ATOM     27  C   UNL     1      -0.018   1.503   0.010  0.00  0.00    +0.063 C 
ATOM     28  C   UNL     1       0.002  -0.004   0.002  0.00  0.00    +0.017 A 
ATOM     29  C   UNL     1       0.006  -0.696  -1.193  0.00  0.00    +0.064 A 
ATOM     30  C   UNL     1       0.026  -2.092  -1.150  0.00  0.00    +0.125 A 
ATOM     31  N   UNL     1       0.040  -2.699   0.033  0.00  0.00    -0.219 NA
ATOM     32  C   UNL     1       0.035  -1.999   1.148  0.00  0.00    +0.112 A 
ATOM     33  N   UNL     1       0.022  -0.681   1.141  0.00  0.00    -0.347 N 
ATOM     34  H   UNL     1       0.024  -0.199   1.983  0.00  0.00    +0.167 HD
BRANCH  32  35
ATOM     35  C   UNL     1       0.052  -2.724   2.469  0.00  0.00    +0.049 C 
ATOM     36  C   UNL     1       1.493  -2.840   2.970  0.00  0.00    +0.015 C 
ATOM     37  C   UNL     1      -0.782  -1.946   3.489  0.00  0.00    +0.015 C 
ENDBRANCH  32  35
ENDBRANCH  21  30
ENDBRANCH  20  24
ENDBRANCH   1  20
TORSDOF 6
