REMARK  Name = ZINC67095767
REMARK  8 active torsions:
REMARK  status: ('A' for Active; 'I' for Inactive)
REMARK    1  A    between atoms: C_1  and  C_2
REMARK    2  A    between atoms: C_7  and  C_8
REMARK    3  A    between atoms: C_11  and  N_13
REMARK    4  A    between atoms: N_13  and  C_14
REMARK    5  A    between atoms: C_17  and  S_24
REMARK    6  A    between atoms: C_19  and  S_20
REMARK    7  A    between atoms: S_20  and  C_23
REMARK    8  A    between atoms: S_24  and  N_27
REMARK                            x       y       z     vdW  Elec       q    Type
REMARK                         _______ _______ _______ _____ _____    ______ ____
ROOT
ATOM      1  C   UNL     1       1.517  -6.177  -0.183  0.00  0.00    +0.053 A 
ATOM      2  C   UNL     1       0.394  -6.989  -0.282  0.00  0.00    +0.027 A 
ATOM      3  C   UNL     1       0.539  -8.334  -0.561  0.00  0.00    +0.030 A 
ATOM      4  C   UNL     1       1.800  -8.873  -0.742  0.00  0.00    +0.107 A 
ATOM      5  C   UNL     1       2.920  -8.068  -0.643  0.00  0.00    +0.057 A 
ATOM      6  C   UNL     1       2.782  -6.721  -0.370  0.00  0.00    +0.110 A 
ENDROOT
BRANCH   6   7
ATOM      7  S   UNL     1       4.209  -5.694  -0.253  0.00  0.00    -0.004 S 
ATOM      8  O   UNL     1       4.063  -5.011   0.985  0.00  0.00    -0.170 OA
ATOM      9  O   UNL     1       5.305  -6.571  -0.472  0.00  0.00    -0.170 OA
ATOM     10  C   UNL     1       4.058  -4.526  -1.633  0.00  0.00    +0.200 C 
ENDBRANCH   6   7
BRANCH   4  11
ATOM     11  S   UNL     1       1.980 -10.589  -1.097  0.00  0.00    +0.056 S 
ATOM     12  O   UNL     1       3.289 -10.954  -0.682  0.00  0.00    -0.153 OA
ATOM     13  O   UNL     1       0.815 -11.232  -0.597  0.00  0.00    -0.153 OA
BRANCH  11  14
ATOM     14  N   UNL     1       1.942 -10.755  -2.744  0.00  0.00    -0.204 NA
ATOM     15  H   UNL     1       2.430 -11.476  -3.171  0.00  0.00    +0.144 HD
ATOM     16  H   UNL     1       1.430 -10.130  -3.283  0.00  0.00    +0.144 HD
ENDBRANCH  11  14
ENDBRANCH   4  11
BRANCH   1  17
ATOM     17  N   UNL     1       1.374  -4.817   0.099  0.00  0.00    -0.332 N 
ATOM     18  H   UNL     1       2.159  -4.250   0.164  0.00  0.00    +0.147 HD
BRANCH  17  29
ATOM     19  C   UNL     1      -0.018   1.503   0.010  0.00  0.00    +0.044 C 
ATOM     20  C   UNL     1       0.002  -0.004   0.002  0.00  0.00    -0.044 A 
ATOM     21  C   UNL     1       0.006  -0.685  -1.201  0.00  0.00    +0.004 A 
ATOM     22  C   UNL     1       0.021  -2.069  -1.208  0.00  0.00    +0.009 A 
ATOM     23  C   UNL     1       0.033  -2.762  -0.018  0.00  0.00    +0.018 A 
ATOM     24  C   UNL     1       0.037  -2.089   1.197  0.00  0.00    +0.129 A 
ATOM     25  C   UNL     1       0.023  -0.696   1.195  0.00  0.00    -0.006 A 
ATOM     26  C   UNL     1       0.024   0.057   2.500  0.00  0.00    +0.048 C 
ATOM     27  O   UNL     1       0.073  -2.960   2.243  0.00  0.00    -0.489 OA
ATOM     28  C   UNL     1      -0.351  -4.258   1.793  0.00  0.00    +0.256 C 
ATOM     29  C   UNL     1       0.040  -4.246   0.296  0.00  0.00    +0.142 C 
ENDBRANCH  17  29
ENDBRANCH   1  17
TORSDOF 5
