REMARK  Name = ZINC07587623
REMARK  4 active torsions:
REMARK  status: ('A' for Active; 'I' for Inactive)
REMARK    1  A    between atoms: C_4  and  N_9
REMARK    2  A    between atoms: C_5  and  C_6
REMARK    3  A    between atoms: C_10  and  C_12
REMARK    4  A    between atoms: C_12  and  N_45
REMARK                            x       y       z     vdW  Elec       q    Type
REMARK                         _______ _______ _______ _____ _____    ______ ____
ROOT
ATOM      1  N   UNL     1      -1.073  -0.880   0.007  0.00  0.00    -0.281 N 
ATOM      2  C   UNL     1      -2.332  -0.401   0.022  0.00  0.00    +0.201 C 
ATOM      3  O   UNL     1      -2.526   0.796   0.030  0.00  0.00    -0.278 OA
ATOM      4  H   UNL     1      -0.918  -1.838   0.000  0.00  0.00    +0.155 HD
ENDROOT
BRANCH   1   8
ATOM      5  C   UNL     1       2.271   0.817  -0.015  0.00  0.00    +0.022 A 
ATOM      6  C   UNL     1       1.730   2.049  -0.004  0.00  0.00    +0.048 A 
ATOM      7  S   UNL     1      -0.021   1.727   0.011  0.00  0.00    -0.081 S 
ATOM      8  C   UNL     1       0.002  -0.004   0.002  0.00  0.00    +0.084 A 
ATOM      9  C   UNL     1       1.359  -0.303  -0.013  0.00  0.00    +0.065 A 
BRANCH   9  10
ATOM     10  C   UNL     1       1.842  -1.687  -0.024  0.00  0.00    +0.244 C 
ATOM     11  O   UNL     1       1.047  -2.609  -0.021  0.00  0.00    -0.270 OA
ATOM     12  N   UNL     1       3.166  -1.939  -0.038  0.00  0.00    -0.325 N 
ATOM     13  H   UNL     1       3.800  -1.205  -0.041  0.00  0.00    +0.145 HD
ATOM     14  H   UNL     1       3.485  -2.855  -0.046  0.00  0.00    +0.145 HD
ENDBRANCH   9  10
ENDBRANCH   1   8
BRANCH   2  15
ATOM     15  C   UNL     1      -3.501  -1.353   0.027  0.00  0.00    +0.019 C 
BRANCH  15  25
ATOM     16  C   UNL     1      -4.927   0.167  -1.204  0.00  0.00    -0.078 C 
ATOM     17  C   UNL     1      -6.166   1.059  -1.097  0.00  0.00    -0.018 C 
ATOM     18  C   UNL     1      -7.396   0.186  -0.832  0.00  0.00    +0.000 C 
ATOM     19  C   UNL     1      -7.170  -0.624   0.447  0.00  0.00    -0.025 C 
ATOM     20  C   UNL     1      -5.904  -1.469   0.292  0.00  0.00    -0.065 C 
ATOM     21  C   UNL     1      -5.670  -2.274   1.571  0.00  0.00    -0.015 C 
ATOM     22  C   UNL     1      -6.868  -3.193   1.819  0.00  0.00    -0.002 C 
ATOM     23  C   UNL     1      -8.136  -2.352   1.970  0.00  0.00    +0.000 C 
ATOM     24  C   UNL     1      -8.368  -1.543   0.691  0.00  0.00    +0.002 C 
ATOM     25  N   UNL     1      -4.753  -0.570   0.066  0.00  0.00    +0.387 N 
ATOM     26  H   UNL     1      -4.700   0.104   0.839  0.00  0.00    -0.081 HD
ENDBRANCH  15  25
ENDBRANCH   2  15
TORSDOF 4
