REMARK  Name = ZINC53113541
REMARK  8 active torsions:
REMARK  status: ('A' for Active; 'I' for Inactive)
REMARK    1  A    between atoms: C_1  and  C_2
REMARK    2  A    between atoms: C_7  and  C_9
REMARK    3  A    between atoms: C_7  and  N_11
REMARK    4  A    between atoms: C_9  and  O_10
REMARK    5  A    between atoms: N_11  and  S_12
REMARK    6  A    between atoms: S_12  and  C_15
REMARK    7  A    between atoms: C_15  and  C_16
REMARK    8  A    between atoms: C_21  and  N_22
REMARK                            x       y       z     vdW  Elec       q    Type
REMARK                         _______ _______ _______ _____ _____    ______ ____
ROOT
ATOM      1  S   UNL     1      -1.494  -2.426   2.617  0.00  0.00    +0.034 S 
ATOM      2  O   UNL     1      -2.868  -2.771   2.507  0.00  0.00    -0.158 OA
ATOM      3  O   UNL     1      -0.562  -3.335   3.187  0.00  0.00    -0.158 OA
ENDROOT
BRANCH   1   4
ATOM      4  N   UNL     1      -0.983  -2.220   1.056  0.00  0.00    -0.186 NA
ATOM      5  H   UNL     1      -1.590  -2.396   0.320  0.00  0.00    +0.148 HD
BRANCH   4  11
ATOM      6  C   UNL     1      -0.411   1.936   0.128  0.00  0.00    +0.007 C 
ATOM      7  C   UNL     1      -0.492   0.417  -0.036  0.00  0.00    -0.012 C 
ATOM      8  C   UNL     1      -0.104   0.037  -1.466  0.00  0.00    +0.003 C 
ATOM      9  C   UNL     1      -0.186  -1.482  -1.629  0.00  0.00    +0.002 C 
ATOM     10  C   UNL     1       0.774  -2.154  -0.645  0.00  0.00    +0.026 C 
ATOM     11  C   UNL     1       0.386  -1.773   0.785  0.00  0.00    +0.063 C 
ATOM     12  C   UNL     1       0.467  -0.254   0.949  0.00  0.00    +0.029 C 
BRANCH  11  13
ATOM     13  C   UNL     1       1.345  -2.444   1.770  0.00  0.00    +0.179 C 
BRANCH  13  14
ATOM     14  O   UNL     1       1.281  -3.862   1.606  0.00  0.00    -0.393 OA
ATOM     15  H   UNL     1       1.809  -4.357   2.248  0.00  0.00    +0.209 HD
ENDBRANCH  13  14
ENDBRANCH  11  13
ENDBRANCH   4  11
ENDBRANCH   1   4
BRANCH   1  16
ATOM     16  C   UNL     1      -1.319  -0.791   3.384  0.00  0.00    +0.222 C 
BRANCH  16  17
ATOM     17  C   UNL     1      -1.964  -0.803   4.746  0.00  0.00    -0.004 A 
ATOM     18  C   UNL     1      -3.318  -0.563   4.872  0.00  0.00    +0.007 A 
ATOM     19  C   UNL     1      -3.911  -0.574   6.121  0.00  0.00    +0.000 A 
ATOM     20  C   UNL     1      -3.150  -0.825   7.248  0.00  0.00    +0.002 A 
ATOM     21  C   UNL     1      -1.796  -1.066   7.130  0.00  0.00    +0.023 A 
ATOM     22  C   UNL     1      -1.198  -1.061   5.875  0.00  0.00    +0.029 A 
BRANCH  22  23
ATOM     23  N   UNL     1       0.171  -1.310   5.751  0.00  0.00    -0.358 N 
ATOM     24  H   UNL     1       0.602  -1.227   4.886  0.00  0.00    +0.142 HD
ATOM     25  H   UNL     1       0.690  -1.565   6.530  0.00  0.00    +0.142 HD
ENDBRANCH  22  23
ENDBRANCH  16  17
ENDBRANCH   1  16
TORSDOF 7
