REMARK  Name = ZINC50170594
REMARK  8 active torsions:
REMARK  status: ('A' for Active; 'I' for Inactive)
REMARK    1  A    between atoms: C_1  and  C_2
REMARK    2  A    between atoms: C_5  and  C_7
REMARK    3  A    between atoms: N_9  and  C_10
REMARK    4  A    between atoms: C_10  and  C_11
REMARK    5  A    between atoms: C_11  and  C_12
REMARK    6  A    between atoms: N_14  and  N_15
REMARK    7  A    between atoms: C_16  and  C_18
REMARK    8  A    between atoms: C_27  and  O_28
REMARK                            x       y       z     vdW  Elec       q    Type
REMARK                         _______ _______ _______ _____ _____    ______ ____
ROOT
ATOM      1  N   UNL     1       5.454  -7.573   3.266  0.00  0.00    -0.230 N 
ATOM      2  C   UNL     1       6.086  -8.234   4.256  0.00  0.00    +0.264 C 
ATOM      3  O   UNL     1       6.064  -7.797   5.390  0.00  0.00    -0.269 OA
ATOM      4  H   UNL     1       5.472  -7.921   2.361  0.00  0.00    +0.173 HD
ENDROOT
BRANCH   2   5
ATOM      5  C   UNL     1       6.806  -9.489   3.962  0.00  0.00    +0.080 A 
ATOM      6  C   UNL     1       6.833  -9.980   2.667  0.00  0.00    +0.025 A 
ATOM      7  C   UNL     1       7.518 -11.173   2.395  0.00  0.00    -0.017 A 
ATOM      8  C   UNL     1       7.567 -11.700   1.091  0.00  0.00    +0.008 A 
ATOM      9  C   UNL     1       8.240 -12.859   0.858  0.00  0.00    +0.001 A 
ATOM     10  C   UNL     1       8.884 -13.536   1.893  0.00  0.00    +0.001 A 
ATOM     11  C   UNL     1       8.858 -13.056   3.167  0.00  0.00    +0.008 A 
ATOM     12  C   UNL     1       8.174 -11.861   3.448  0.00  0.00    -0.014 A 
ATOM     13  C   UNL     1       8.131 -11.342   4.753  0.00  0.00    +0.054 A 
ATOM     14  C   UNL     1       7.466 -10.178   5.002  0.00  0.00    +0.130 A 
BRANCH  14  15
ATOM     15  O   UNL     1       7.434  -9.680   6.264  0.00  0.00    -0.506 OA
ATOM     16  H   UNL     1       6.688  -9.995   6.793  0.00  0.00    +0.292 HD
ENDBRANCH  14  15
ENDBRANCH   2   5
BRANCH   1  19
ATOM     17  C   UNL     1       4.139  -5.720   2.555  0.00  0.00    +0.231 C 
ATOM     18  O   UNL     1       4.161  -6.156   1.423  0.00  0.00    -0.274 OA
ATOM     19  N   UNL     1       4.771  -6.382   3.545  0.00  0.00    -0.234 N 
ATOM     20  H   UNL     1       4.753  -6.033   4.449  0.00  0.00    +0.173 HD
BRANCH  17  21
ATOM     21  C   UNL     1       3.404  -4.439   2.854  0.00  0.00    +0.116 C 
BRANCH  21  22
ATOM     22  C   UNL     1       2.780  -3.896   1.567  0.00  0.00    +0.113 C 
BRANCH  22  25
ATOM     23  C   UNL     1       1.434  -1.989   0.869  0.00  0.00    +0.216 C 
ATOM     24  O   UNL     1       1.456  -2.425  -0.263  0.00  0.00    -0.276 OA
ATOM     25  N   UNL     1       2.066  -2.650   1.858  0.00  0.00    -0.315 N 
ATOM     26  H   UNL     1       2.049  -2.301   2.763  0.00  0.00    +0.149 HD
BRANCH  23  30
ATOM     27  C   UNL     1      -0.019   1.526   0.010  0.00  0.00    +0.008 C 
ATOM     28  C   UNL     1       0.002  -0.004   0.002  0.00  0.00    -0.002 C 
ATOM     29  C   UNL     1      -0.828  -0.728   1.065  0.00  0.00    +0.017 C 
ATOM     30  C   UNL     1       0.700  -0.708   1.168  0.00  0.00    +0.078 C 
ENDBRANCH  23  30
ENDBRANCH  22  25
ENDBRANCH  21  22
ENDBRANCH  17  21
ENDBRANCH   1  19
TORSDOF 7
