REMARK  Name = ZINC62062341
REMARK  10 active torsions:
REMARK  status: ('A' for Active; 'I' for Inactive)
REMARK    1  A    between atoms: C_1  and  C_2
REMARK    2  A    between atoms: C_2  and  N_3
REMARK    3  A    between atoms: N_3  and  C_4
REMARK    4  A    between atoms: C_4  and  C_5
REMARK    5  A    between atoms: C_9  and  C_12
REMARK    6  A    between atoms: C_12  and  N_13
REMARK    7  A    between atoms: C_14  and  C_16
REMARK    8  A    between atoms: N_18  and  C_19
REMARK    9  A    between atoms: C_24  and  C_25
REMARK   10  A    between atoms: C_25  and  C_26
REMARK                            x       y       z     vdW  Elec       q    Type
REMARK                         _______ _______ _______ _____ _____    ______ ____
ROOT
ATOM      1  N   UNL     1      -4.751  -0.334   5.282  0.00  0.00    -0.303 N 
ATOM      2  C   UNL     1      -5.496  -0.357   6.405  0.00  0.00    +0.300 C 
ATOM      3  O   UNL     1      -5.558  -1.369   7.071  0.00  0.00    -0.265 OA
ATOM      4  H   UNL     1      -4.702   0.475   4.749  0.00  0.00    +0.149 HD
ENDROOT
BRANCH   2   5
ATOM      5  C   UNL     1      -6.244   0.864   6.829  0.00  0.00    +0.303 C 
ATOM      6  O   UNL     1      -6.182   1.877   6.163  0.00  0.00    -0.265 OA
ATOM      7  N   UNL     1      -6.989   0.841   7.953  0.00  0.00    -0.277 N 
ATOM      8  H   UNL     1      -7.104   0.012   8.442  0.00  0.00    +0.155 HD
BRANCH   7   9
ATOM      9  C   UNL     1      -7.596   2.013   8.412  0.00  0.00    +0.037 A 
ATOM     10  C   UNL     1      -7.064   3.252   8.073  0.00  0.00    +0.023 A 
ATOM     11  C   UNL     1      -7.666   4.407   8.530  0.00  0.00    +0.002 A 
ATOM     12  C   UNL     1      -8.796   4.334   9.323  0.00  0.00    +0.000 A 
ATOM     13  C   UNL     1      -9.328   3.103   9.663  0.00  0.00    +0.006 A 
ATOM     14  C   UNL     1      -8.734   1.943   9.205  0.00  0.00    -0.017 A 
BRANCH  14  15
ATOM     15  C   UNL     1      -9.318   0.602   9.569  0.00  0.00    +0.132 C 
BRANCH  15  16
ATOM     16  C   UNL     1      -8.613   0.062  10.787  0.00  0.00    +0.215 C 
ATOM     17  O   UNL     1      -7.725   0.703  11.308  0.00  0.00    -0.276 OA
ATOM     18  N   UNL     1      -8.971  -1.133  11.298  0.00  0.00    -0.329 N 
ATOM     19  H   UNL     1      -9.682  -1.645  10.881  0.00  0.00    +0.145 HD
ATOM     20  H   UNL     1      -8.517  -1.481  12.082  0.00  0.00    +0.145 HD
ENDBRANCH  15  16
ENDBRANCH  14  15
ENDBRANCH   7   9
ENDBRANCH   2   5
BRANCH   1  21
ATOM     21  C   UNL     1      -4.017  -1.532   4.865  0.00  0.00    +0.141 C 
BRANCH  21  26
ATOM     22  N   UNL     1      -1.344  -0.504   0.031  0.00  0.00    -0.317 N 
ATOM     23  C   UNL     1      -1.986  -0.751   1.239  0.00  0.00    +0.099 A 
ATOM     24  C   UNL     1      -1.323  -0.500   2.436  0.00  0.00    +0.042 A 
ATOM     25  C   UNL     1      -1.973  -0.750   3.631  0.00  0.00    +0.010 A 
ATOM     26  C   UNL     1      -3.270  -1.244   3.588  0.00  0.00    -0.014 A 
ATOM     27  C   UNL     1      -3.868  -1.470   2.365  0.00  0.00    +0.089 A 
ATOM     28  N   UNL     1      -3.225  -1.217   1.241  0.00  0.00    -0.349 N 
ATOM     29  H   UNL     1      -3.670  -1.381   0.394  0.00  0.00    +0.167 HD
BRANCH  22  31
ATOM     30  C   UNL     1      -0.004   1.542   0.025  0.00  0.00    +0.024 C 
ATOM     31  C   UNL     1       0.027   0.012   0.022  0.00  0.00    +0.103 C 
ENDBRANCH  22  31
BRANCH  22  32
ATOM     32  C   UNL     1      -2.039  -0.760  -1.233  0.00  0.00    +0.103 C 
ATOM     33  C   UNL     1      -1.772  -2.199  -1.679  0.00  0.00    +0.024 C 
ENDBRANCH  22  32
ENDBRANCH  21  26
ENDBRANCH   1  21
TORSDOF 8
