REMARK  Name = ZINC46254777
REMARK  12 active torsions:
REMARK  status: ('A' for Active; 'I' for Inactive)
REMARK    1  A    between atoms: C_1  and  C_2
REMARK    2  A    between atoms: C_4  and  C_28
REMARK    3  A    between atoms: N_5  and  C_7
REMARK    4  A    between atoms: C_7  and  C_8
REMARK    5  A    between atoms: N_10  and  N_11
REMARK    6  A    between atoms: N_14  and  C_15
REMARK    7  A    between atoms: C_15  and  C_16
REMARK    8  A    between atoms: C_16  and  C_18
REMARK    9  A    between atoms: C_16  and  N_21
REMARK   10  A    between atoms: C_18  and  C_19
REMARK   11  A    between atoms: C_18  and  C_20
REMARK   12  A    between atoms: C_24  and  C_27
REMARK                            x       y       z     vdW  Elec       q    Type
REMARK                         _______ _______ _______ _____ _____    ______ ____
ROOT
ATOM      1  N   UNL     1       2.997  -5.380   2.439  0.00  0.00    -0.218 N 
ATOM      2  C   UNL     1       3.264  -6.205   3.470  0.00  0.00    +0.316 C 
ATOM      3  O   UNL     1       4.364  -6.194   3.989  0.00  0.00    -0.251 OA
ATOM      4  N   UNL     1       2.312  -7.043   3.927  0.00  0.00    -0.300 N 
ATOM      5  H   UNL     1       3.682  -4.777   2.110  0.00  0.00    +0.174 HD
ATOM      6  H   UNL     1       1.435  -7.052   3.514  0.00  0.00    +0.150 HD
ENDROOT
BRANCH   1   9
ATOM      7  C   UNL     1       1.462  -4.568   0.810  0.00  0.00    +0.251 C 
ATOM      8  O   UNL     1       2.319  -3.814   0.399  0.00  0.00    -0.272 OA
ATOM      9  N   UNL     1       1.729  -5.393   1.841  0.00  0.00    -0.232 N 
ATOM     10  H   UNL     1       1.044  -5.996   2.170  0.00  0.00    +0.173 HD
BRANCH   7  11
ATOM     11  C   UNL     1       0.099  -4.582   0.167  0.00  0.00    +0.240 C 
BRANCH  11  16
ATOM     12  C   UNL     1      -0.522  -0.268  -2.322  0.00  0.00    +0.067 C 
ATOM     13  C   UNL     1      -0.216  -1.706  -1.991  0.00  0.00    +0.060 A 
ATOM     14  C   UNL     1       0.217  -2.681  -2.895  0.00  0.00    +0.047 A 
ATOM     15  C   UNL     1       0.381  -3.838  -2.212  0.00  0.00    +0.037 A 
ATOM     16  N   UNL     1       0.062  -3.603  -0.922  0.00  0.00    -0.259 N 
ATOM     17  N   UNL     1      -0.304  -2.256  -0.807  0.00  0.00    -0.176 NA
ATOM     18  C   UNL     1       0.836  -5.154  -2.789  0.00  0.00    +0.065 C 
ENDBRANCH  11  16
ENDBRANCH   7  11
ENDBRANCH   1   9
BRANCH   4  19
ATOM     19  C   UNL     1       2.602  -7.939   5.049  0.00  0.00    +0.091 C 
BRANCH  19  20
ATOM     20  C   UNL     1       1.313  -8.630   5.497  0.00  0.00    -0.048 C 
BRANCH  20  21
ATOM     21  N   UNL     1       0.445  -7.657   6.173  0.00  0.00    +0.383 N 
ATOM     22  C   UNL     1       0.080  -6.591   5.232  0.00  0.00    -0.078 C 
ATOM     23  C   UNL     1      -0.888  -5.618   5.907  0.00  0.00    -0.016 C 
ATOM     24  C   UNL     1      -0.212  -5.005   7.137  0.00  0.00    -0.018 C 
ATOM     25  C   UNL     1       0.231  -6.130   8.078  0.00  0.00    -0.016 C 
ATOM     26  C   UNL     1       1.158  -7.084   7.322  0.00  0.00    -0.078 C 
ATOM     27  C   UNL     1      -1.202  -4.091   7.863  0.00  0.00    +0.007 C 
ATOM     28  H   UNL     1      -0.391  -8.120   6.495  0.00  0.00    -0.081 HD
ENDBRANCH  20  21
BRANCH  20  29
ATOM     29  C   UNL     1       1.652  -9.768   6.462  0.00  0.00    -0.029 C 
ATOM     30  C   UNL     1       0.363 -10.464   6.902  0.00  0.00    +0.005 C 
ATOM     31  C   UNL     1       2.563 -10.777   5.760  0.00  0.00    +0.005 C 
ENDBRANCH  20  29
ENDBRANCH  19  20
ENDBRANCH   4  19
TORSDOF 7
