REMARK  Name = ZINC63328849
REMARK  10 active torsions:
REMARK  status: ('A' for Active; 'I' for Inactive)
REMARK    1  A    between atoms: C_1  and  O_2
REMARK    2  A    between atoms: O_2  and  C_3
REMARK    3  A    between atoms: C_5  and  C_10
REMARK    4  A    between atoms: C_8  and  O_9
REMARK    5  A    between atoms: C_11  and  C_12
REMARK    6  A    between atoms: C_11  and  C_14
REMARK    7  A    between atoms: C_17  and  C_20
REMARK    8  A    between atoms: C_20  and  S_21
REMARK    9  A    between atoms: S_21  and  C_22
REMARK   10  A    between atoms: C_28  and  N_32
REMARK                            x       y       z     vdW  Elec       q    Type
REMARK                         _______ _______ _______ _____ _____    ______ ____
ROOT
ATOM      1  C   UNL     1       3.509   0.504   6.418  0.00  0.00    +0.203 C 
ATOM      2  N   UNL     1       2.850   0.128   7.686  0.00  0.00    -0.271 NA
ATOM      3  C   UNL     1       3.532  -0.091   8.718  0.00  0.00    +0.035 C 
ATOM      4  C   UNL     1       5.047   0.037   8.634  0.00  0.00    +0.122 C 
ATOM      5  S   UNL     1       5.263   0.069   6.799  0.00  0.00    -0.123 S 
ENDROOT
BRANCH   1   7
ATOM      6  C   UNL     1       2.454   0.298   4.188  0.00  0.00    +0.025 C 
ATOM      7  C   UNL     1       2.982  -0.316   5.268  0.00  0.00    +0.064 C 
BRANCH   6  10
ATOM      8  C   UNL     1       0.603  -0.904   1.154  0.00  0.00    +0.162 A 
ATOM      9  C   UNL     1       0.942  -0.161   2.268  0.00  0.00    +0.057 A 
ATOM     10  C   UNL     1       2.087  -0.489   3.001  0.00  0.00    -0.020 A 
ATOM     11  C   UNL     1       2.884  -1.568   2.601  0.00  0.00    +0.012 A 
ATOM     12  C   UNL     1       2.539  -2.303   1.488  0.00  0.00    +0.050 A 
ATOM     13  C   UNL     1       1.399  -1.980   0.765  0.00  0.00    +0.158 A 
BRANCH   8  15
ATOM     14  C   UNL     1      -1.279   0.527   0.894  0.00  0.00    +0.277 C 
ATOM     15  O   UNL     1      -0.510  -0.588   0.439  0.00  0.00    -0.491 OA
ENDBRANCH   8  15
BRANCH  13  16
ATOM     16  O   UNL     1       1.061  -2.712  -0.329  0.00  0.00    -0.503 OA
ATOM     17  H   UNL     1       1.443  -2.385  -1.155  0.00  0.00    +0.292 HD
ENDBRANCH  13  16
ENDBRANCH   6  10
BRANCH   7  18
ATOM     18  C   UNL     1       3.043  -1.745   5.321  0.00  0.00    +0.098 C 
ATOM     19  N   UNL     1       3.091  -2.880   5.362  0.00  0.00    -0.191 NA
ENDBRANCH   7  18
ENDBRANCH   1   7
BRANCH   3  20
ATOM     20  C   UNL     1       2.864  -0.472  10.014  0.00  0.00    +0.124 C 
BRANCH  20  21
ATOM     21  S   UNL     1       1.067  -0.536   9.771  0.00  0.00    -0.109 S 
BRANCH  21  22
ATOM     22  C   UNL     1       0.420  -1.001  11.401  0.00  0.00    +0.236 C 
ATOM     23  N   UNL     1       0.847  -0.024  12.410  0.00  0.00    -0.355 N 
ATOM     24  C   UNL     1       1.559  -0.661  13.294  0.00  0.00    +0.061 A 
ATOM     25  C   UNL     1       2.248  -0.231  14.519  0.00  0.00    +0.029 A 
ATOM     26  C   UNL     1       2.926  -1.137  15.253  0.00  0.00    +0.035 A 
ATOM     27  C   UNL     1       3.006  -2.495  14.896  0.00  0.00    +0.128 A 
ATOM     28  C   UNL     1       2.411  -2.993  13.794  0.00  0.00    +0.060 A 
ATOM     29  C   UNL     1       1.644  -2.098  12.917  0.00  0.00    +0.063 A 
ATOM     30  N   UNL     1       0.979  -2.295  11.814  0.00  0.00    -0.355 N 
ATOM     31  H   UNL     1       0.872  -3.140  11.350  0.00  0.00    +0.162 HD
ATOM     32  H   UNL     1       0.636   0.923  12.417  0.00  0.00    +0.162 HD
BRANCH  27  33
ATOM     33  N   UNL     1       3.773  -3.413  15.766  0.00  0.00    +0.056 N 
ATOM     34  O   UNL     1       4.316  -2.992  16.761  0.00  0.00    -0.126 OA
ATOM     35  O   UNL     1       3.858  -4.586  15.482  0.00  0.00    -0.126 OA
ENDBRANCH  27  33
ENDBRANCH  21  22
ENDBRANCH  20  21
ENDBRANCH   3  20
TORSDOF 9
