REMARK  Name = ZINC09542575
REMARK  11 active torsions:
REMARK  status: ('A' for Active; 'I' for Inactive)
REMARK    1  A    between atoms: C_1  and  C_2
REMARK    2  A    between atoms: C_2  and  O_3
REMARK    3  A    between atoms: O_3  and  C_4
REMARK    4  A    between atoms: C_8  and  C_11
REMARK    5  A    between atoms: C_9  and  O_10
REMARK    6  A    between atoms: C_14  and  C_27
REMARK    7  A    between atoms: C_16  and  C_18
REMARK    8  A    between atoms: C_21  and  O_25
REMARK    9  A    between atoms: O_25  and  C_26
REMARK   10  A    between atoms: C_31  and  O_33
REMARK   11  A    between atoms: O_33  and  C_34
REMARK                            x       y       z     vdW  Elec       q    Type
REMARK                         _______ _______ _______ _____ _____    ______ ____
ROOT
ATOM      1  C   UNL     1      -3.248   3.787   2.184  0.00  0.00    -0.028 C 
ATOM      2  C   UNL     1      -3.439   5.181   2.789  0.00  0.00    +0.044 C 
ATOM      3  C   UNL     1      -2.761   6.203   1.919  0.00  0.00    +0.040 C 
ATOM      4  N   UNL     1      -2.390   5.962   0.718  0.00  0.00    -0.299 NA
ATOM      5  C   UNL     1      -2.564   4.679   0.050  0.00  0.00    +0.081 C 
ATOM      6  N   UNL     1      -3.569   3.860   0.745  0.00  0.00    +0.401 N 
ATOM      7  H   UNL     1      -4.497   4.284   0.624  0.00  0.00    -0.081 HD
ATOM      8  H   UNL     1      -3.571   2.913   0.348  0.00  0.00    -0.081 HD
ENDROOT
BRANCH   5   9
ATOM      9  C   UNL     1      -1.248   3.945   0.034  0.00  0.00    -0.039 A 
ATOM     10  C   UNL     1      -0.062   4.655   0.027  0.00  0.00    +0.007 A 
ATOM     11  C   UNL     1       1.146   3.985   0.012  0.00  0.00    +0.047 A 
ATOM     12  C   UNL     1       1.168   2.598   0.005  0.00  0.00    +0.134 A 
ATOM     13  C   UNL     1      -0.024   1.887   0.012  0.00  0.00    +0.060 A 
ATOM     14  C   UNL     1      -1.230   2.562   0.022  0.00  0.00    +0.022 A 
ATOM     15 BR   UNL     1       0.002  -0.004   0.002  0.00  0.00    -0.047 Br
BRANCH  12  16
ATOM     16  O   UNL     1       2.356   1.936  -0.010  0.00  0.00    -0.494 OA
ATOM     17  C   UNL     1       3.542   2.733  -0.017  0.00  0.00    +0.277 C 
ENDBRANCH  12  16
ENDBRANCH   5   9
BRANCH   1  22
ATOM     18  C   UNL     1      -4.686   1.353   4.702  0.00  0.00    +0.162 A 
ATOM     19  C   UNL     1      -5.883   1.010   4.094  0.00  0.00    +0.049 A 
ATOM     20  C   UNL     1      -6.223   1.565   2.874  0.00  0.00    +0.004 A 
ATOM     21  C   UNL     1      -5.370   2.462   2.258  0.00  0.00    +0.006 A 
ATOM     22  C   UNL     1      -4.175   2.809   2.859  0.00  0.00    -0.016 A 
ATOM     23  C   UNL     1      -3.826   2.252   4.079  0.00  0.00    +0.160 A 
BRANCH  23  24
ATOM     24  O   UNL     1      -2.647   2.589   4.669  0.00  0.00    -0.503 OA
ATOM     25  H   UNL     1      -2.707   3.353   5.258  0.00  0.00    +0.292 HD
ENDBRANCH  23  24
BRANCH  18  26
ATOM     26  O   UNL     1      -4.350   0.809   5.902  0.00  0.00    -0.489 OA
BRANCH  26  28
ATOM     27  C   UNL     1      -4.734  -0.614   7.818  0.00  0.00    +0.048 C 
ATOM     28  C   UNL     1      -5.280  -0.110   6.480  0.00  0.00    +0.226 C 
ENDBRANCH  26  28
ENDBRANCH  18  26
ENDBRANCH   1  22
BRANCH   3  29
ATOM     29  C   UNL     1      -2.513   7.548   2.475  0.00  0.00    -0.001 A 
ATOM     30  C   UNL     1      -2.909   7.850   3.780  0.00  0.00    +0.010 A 
ATOM     31  C   UNL     1      -2.672   9.107   4.298  0.00  0.00    +0.004 A 
ATOM     32  C   UNL     1      -2.051  10.072   3.526  0.00  0.00    +0.045 A 
ATOM     33  C   UNL     1      -1.658   9.782   2.227  0.00  0.00    +0.121 A 
ATOM     34  C   UNL     1      -1.887   8.523   1.698  0.00  0.00    +0.055 A 
BRANCH  33  35
ATOM     35  O   UNL     1      -1.048  10.734   1.473  0.00  0.00    -0.495 OA
ATOM     36  C   UNL     1      -0.843  12.011   2.082  0.00  0.00    +0.277 C 
ENDBRANCH  33  35
ENDBRANCH   3  29
TORSDOF 8
