REMARK  Name = ZINC63806976
REMARK  5 active torsions:
REMARK  status: ('A' for Active; 'I' for Inactive)
REMARK    1  A    between atoms: C_4  and  C_7
REMARK    2  A    between atoms: C_9  and  C_14
REMARK    3  A    between atoms: N_16  and  C_17
REMARK    4  A    between atoms: C_17  and  C_18
REMARK    5  A    between atoms: C_18  and  C_19
REMARK                            x       y       z     vdW  Elec       q    Type
REMARK                         _______ _______ _______ _____ _____    ______ ____
ROOT
ATOM      1  C   UNL     1       2.712  -1.871  -2.055  0.00  0.00    +0.229 C 
ATOM      2  O   UNL     1       1.819  -2.256  -1.330  0.00  0.00    -0.274 OA
ATOM      3  N   UNL     1       2.580  -1.959  -3.393  0.00  0.00    -0.314 N 
ATOM      4  H   UNL     1       3.294  -1.651  -3.973  0.00  0.00    +0.149 HD
ENDROOT
BRANCH   1   6
ATOM      5  C   UNL     1       3.664  -0.457  -0.179  0.00  0.00    +0.123 C 
ATOM      6  C   UNL     1       3.970  -1.294  -1.458  0.00  0.00    +0.171 C 
ATOM      7  S   UNL     1       5.025  -2.605  -0.704  0.00  0.00    -0.051 S 
ATOM      8  N   UNL     1       4.512  -2.421   1.002  0.00  0.00    -0.199 NA
ATOM      9  N   UNL     1       3.456  -1.402   0.934  0.00  0.00    -0.238 NA
ATOM     10  H   UNL     1       4.153  -3.291   1.367  0.00  0.00    +0.154 HD
ATOM     11  H   UNL     1       2.544  -1.831   0.879  0.00  0.00    +0.142 HD
BRANCH   5  15
ATOM     12  C   UNL     1       0.134   1.872  -0.780  0.00  0.00    +0.000 A 
ATOM     13  C   UNL     1       0.043   0.612  -0.220  0.00  0.00    +0.000 A 
ATOM     14  C   UNL     1       1.185  -0.142  -0.026  0.00  0.00    +0.005 A 
ATOM     15  C   UNL     1       2.418   0.364  -0.392  0.00  0.00    -0.028 A 
ATOM     16  C   UNL     1       2.509   1.625  -0.952  0.00  0.00    +0.005 A 
ATOM     17  C   UNL     1       1.367   2.379  -1.145  0.00  0.00    +0.000 A 
ENDBRANCH   5  15
ENDBRANCH   1   6
BRANCH   3  18
ATOM     18  C   UNL     1       1.357  -2.520  -3.973  0.00  0.00    +0.108 C 
BRANCH  18  19
ATOM     19  C   UNL     1       1.463  -2.505  -5.499  0.00  0.00    +0.052 C 
BRANCH  19  20
ATOM     20  C   UNL     1       0.205  -3.082  -6.095  0.00  0.00    -0.040 C 
ATOM     21  C   UNL     1      -0.877  -2.397  -6.530  0.00  0.00    -0.001 A 
ATOM     22  C   UNL     1      -1.196  -0.965  -6.574  0.00  0.00    +0.010 A 
ATOM     23  C   UNL     1      -2.389  -0.574  -7.077  0.00  0.00    +0.001 A 
ATOM     24  C   UNL     1      -3.327  -1.499  -7.555  0.00  0.00    +0.002 A 
ATOM     25  C   UNL     1      -3.107  -2.831  -7.547  0.00  0.00    +0.026 A 
ATOM     26  C   UNL     1      -1.885  -3.354  -7.041  0.00  0.00    +0.043 A 
ATOM     27  N   UNL     1      -1.442  -4.583  -6.927  0.00  0.00    -0.380 N 
ATOM     28  C   UNL     1      -0.100  -4.544  -6.335  0.00  0.00    +0.144 C 
ATOM     29  H   UNL     1      -1.921  -5.384  -7.193  0.00  0.00    +0.160 HD
ENDBRANCH  19  20
ENDBRANCH  18  19
ENDBRANCH   3  18
TORSDOF 5
