REMARK  Name = ZINC42084697
REMARK  8 active torsions:
REMARK  status: ('A' for Active; 'I' for Inactive)
REMARK    1  A    between atoms: C_1  and  C_2
REMARK    2  A    between atoms: C_2  and  C_4
REMARK    3  A    between atoms: C_2  and  N_18
REMARK    4  A    between atoms: N_6  and  N_7
REMARK    5  A    between atoms: N_7  and  C_8
REMARK    6  A    between atoms: C_8  and  N_10
REMARK    7  A    between atoms: N_10  and  C_11
REMARK    8  A    between atoms: C_11  and  C_12
REMARK                            x       y       z     vdW  Elec       q    Type
REMARK                         _______ _______ _______ _____ _____    ______ ____
ROOT
ATOM      1  C   UNL     1       0.731  -0.503   1.223  0.00  0.00    +0.249 C 
ATOM      2  O   UNL     1       1.725  -1.187   1.099  0.00  0.00    -0.272 OA
ATOM      3  N   UNL     1       0.278  -0.191   2.453  0.00  0.00    -0.234 N 
ATOM      4  H   UNL     1      -0.517   0.356   2.553  0.00  0.00    +0.173 HD
ENDROOT
BRANCH   1   6
ATOM      5  C   UNL     1      -0.019   1.526   0.010  0.00  0.00    +0.038 C 
ATOM      6  C   UNL     1       0.002  -0.004   0.002  0.00  0.00    +0.159 C 
BRANCH   6   7
ATOM      7  N   UNL     1       0.688  -0.476  -1.203  0.00  0.00    -0.288 N 
ATOM      8  C   UNL     1       0.006  -0.608  -2.358  0.00  0.00    +0.298 C 
ATOM      9  O   UNL     1      -1.178  -0.335  -2.400  0.00  0.00    -0.253 OA
ATOM     10  N   UNL     1       0.637  -1.043  -3.467  0.00  0.00    -0.313 N 
ATOM     11  H   UNL     1       1.632  -0.695  -1.170  0.00  0.00    +0.151 HD
ATOM     12  H   UNL     1       1.582  -1.261  -3.434  0.00  0.00    +0.146 HD
ATOM     13  H   UNL     1       0.146  -1.137  -4.299  0.00  0.00    +0.146 HD
ENDBRANCH   6   7
ENDBRANCH   1   6
BRANCH   3  14
ATOM     14  N   UNL     1       0.955  -0.655   3.588  0.00  0.00    -0.246 N 
ATOM     15  H   UNL     1       1.751  -1.201   3.489  0.00  0.00    +0.172 HD
BRANCH  14  16
ATOM     16  C   UNL     1       0.502  -0.342   4.818  0.00  0.00    +0.147 C 
ATOM     17  S   UNL     1       1.330  -0.909   6.205  0.00  0.00    -0.017 S 
BRANCH  16  18
ATOM     18  N   UNL     1      -0.603   0.417   4.957  0.00  0.00    -0.323 N 
ATOM     19  H   UNL     1      -1.072   0.739   4.171  0.00  0.00    +0.148 HD
BRANCH  18  20
ATOM     20  C   UNL     1      -1.095   0.757   6.294  0.00  0.00    +0.134 C 
BRANCH  20  21
ATOM     21  C   UNL     1      -2.352   1.621   6.170  0.00  0.00    +0.135 C 
ATOM     22  C   UNL     1      -2.870   2.021   7.574  0.00  0.00    +0.035 C 
ATOM     23  C   UNL     1      -3.651   3.321   7.241  0.00  0.00    +0.031 C 
ATOM     24  C   UNL     1      -2.809   3.924   6.096  0.00  0.00    +0.160 C 
ATOM     25  O   UNL     1      -2.043   2.861   5.515  0.00  0.00    -0.375 OA
ENDBRANCH  20  21
ENDBRANCH  18  20
ENDBRANCH  16  18
ENDBRANCH  14  16
ENDBRANCH   3  14
TORSDOF 7
