REMARK  Name = ZINC35382696
REMARK  3 active torsions:
REMARK  status: ('A' for Active; 'I' for Inactive)
REMARK    1  A    between atoms: C_5  and  C_6
REMARK    2  A    between atoms: C_6  and  C_8
REMARK    3  A    between atoms: C_6  and  N_19
REMARK                            x       y       z     vdW  Elec       q    Type
REMARK                         _______ _______ _______ _____ _____    ______ ____
ROOT
ATOM      1  C   UNL     1      -1.479  -1.392  -1.390  0.00  0.00    -0.036 A 
ATOM      2  C   UNL     1      -1.079  -2.661  -1.770  0.00  0.00    +0.009 A 
ATOM      3  C   UNL     1      -1.327  -3.105  -3.049  0.00  0.00    -0.017 A 
ATOM      4  C   UNL     1      -1.978  -2.294  -3.971  0.00  0.00    +0.038 A 
ATOM      5  C   UNL     1      -2.378  -1.017  -3.582  0.00  0.00    +0.043 A 
ATOM      6  C   UNL     1      -2.133  -0.576  -2.296  0.00  0.00    +0.045 A 
ATOM      7 CL   UNL     1      -2.642   1.013  -1.817  0.00  0.00    -0.083 Cl
ATOM      8  N   UNL     1      -2.114  -2.960  -5.189  0.00  0.00    -0.285 N 
ATOM      9  C   UNL     1      -1.587  -4.196  -5.154  0.00  0.00    +0.222 C 
ATOM     10  O   UNL     1      -1.564  -4.995  -6.066  0.00  0.00    -0.275 OA
ATOM     11  C   UNL     1      -1.028  -4.403  -3.763  0.00  0.00    +0.133 C 
ATOM     12  H   UNL     1      -2.540  -2.576  -5.971  0.00  0.00    +0.155 HD
ENDROOT
BRANCH   1  13
ATOM     13  C   UNL     1      -1.208  -0.902   0.009  0.00  0.00    +0.025 C 
BRANCH  13  18
ATOM     14  C   UNL     1      -0.016   1.341   0.009  0.00  0.00    +0.044 A 
ATOM     15  C   UNL     1       1.331   1.769  -0.001  0.00  0.00    +0.057 A 
ATOM     16  C   UNL     1       2.093   0.659  -0.014  0.00  0.00    +0.170 A 
ATOM     17  O   UNL     1       1.282  -0.412  -0.012  0.00  0.00    -0.454 OA
ATOM     18  C   UNL     1       0.002  -0.004   0.002  0.00  0.00    +0.096 A 
ATOM     19 BR   UNL     1       3.983   0.615  -0.034  0.00  0.00    -0.008 Br
ENDBRANCH  13  18
BRANCH  13  20
ATOM     20  N   UNL     1      -0.961  -2.050   0.891  0.00  0.00    +0.387 N 
ATOM     21  H   UNL     1      -0.162  -2.566   0.555  0.00  0.00    -0.089 HD
ATOM     22  H   UNL     1      -0.780  -1.722   1.828  0.00  0.00    -0.089 HD
ATOM     23  H   UNL     1      -1.771  -2.651   0.896  0.00  0.00    -0.089 HD
ENDBRANCH  13  20
ENDBRANCH   1  13
TORSDOF 3
