REMARK  Name = ZINC40853036
REMARK  7 active torsions:
REMARK  status: ('A' for Active; 'I' for Inactive)
REMARK    1  A    between atoms: C_1  and  C_2
REMARK    2  A    between atoms: C_9  and  N_13
REMARK    3  A    between atoms: C_10  and  C_11
REMARK    4  A    between atoms: C_14  and  C_16
REMARK    5  A    between atoms: C_16  and  C_17
REMARK    6  A    between atoms: C_16  and  C_18
REMARK    7  A    between atoms: C_16  and  N_21
REMARK                            x       y       z     vdW  Elec       q    Type
REMARK                         _______ _______ _______ _____ _____    ______ ____
ROOT
ATOM      1  N   UNL     1       1.941  -5.828   1.697  0.00  0.00    -0.280 N 
ATOM      2  C   UNL     1       2.252  -6.088   2.983  0.00  0.00    +0.206 C 
ATOM      3  O   UNL     1       2.232  -5.196   3.804  0.00  0.00    -0.277 OA
ATOM      4  H   UNL     1       1.957  -6.541   1.040  0.00  0.00    +0.155 HD
ENDROOT
BRANCH   1  12
ATOM      5  C   UNL     1      -0.019   1.526   0.010  0.00  0.00    +0.008 C 
ATOM      6  C   UNL     1       0.002  -0.004   0.002  0.00  0.00    -0.009 C 
ATOM      7  C   UNL     1       0.724  -0.500  -1.254  0.00  0.00    +0.008 C 
ATOM      8  C   UNL     1       0.537  -2.012  -1.399  0.00  0.00    +0.037 C 
ATOM      9  C   UNL     1       0.935  -2.680  -0.092  0.00  0.00    -0.018 A 
ATOM     10  C   UNL     1       1.019  -1.977   1.059  0.00  0.00    -0.004 A 
ATOM     11  S   UNL     1       1.508  -3.165   2.275  0.00  0.00    -0.077 S 
ATOM     12  C   UNL     1       1.599  -4.539   1.313  0.00  0.00    +0.090 A 
ATOM     13  C   UNL     1       1.254  -4.090   0.049  0.00  0.00    +0.084 A 
ATOM     14  C   UNL     1       0.750  -0.515   1.242  0.00  0.00    +0.046 C 
BRANCH  13  15
ATOM     15  C   UNL     1       1.212  -4.980  -1.072  0.00  0.00    +0.102 C 
ATOM     16  N   UNL     1       1.180  -5.685  -1.962  0.00  0.00    -0.191 NA
ENDBRANCH  13  15
ENDBRANCH   1  12
BRANCH   2  17
ATOM     17  C   UNL     1       2.624  -7.488   3.399  0.00  0.00    +0.007 C 
ATOM     18  C   UNL     1       1.353  -8.286   3.698  0.00  0.00    -0.001 C 
BRANCH  17  19
ATOM     19  N   UNL     1       3.368  -8.140   2.314  0.00  0.00    +0.388 N 
ATOM     20  H   UNL     1       4.206  -7.614   2.117  0.00  0.00    -0.089 HD
ATOM     21  H   UNL     1       3.617  -9.077   2.593  0.00  0.00    -0.089 HD
ATOM     22  H   UNL     1       2.792  -8.178   1.486  0.00  0.00    -0.089 HD
ENDBRANCH  17  19
BRANCH  17  23
ATOM     23  C   UNL     1       3.497  -7.431   4.654  0.00  0.00    -0.014 C 
ATOM     24  C   UNL     1       4.965  -7.839   4.513  0.00  0.00    +0.003 C 
ATOM     25  C   UNL     1       3.982  -8.759   5.239  0.00  0.00    +0.003 C 
ENDBRANCH  17  23
ENDBRANCH   2  17
TORSDOF 5
