REMARK  Name = ZINC39949355
REMARK  6 active torsions:
REMARK  status: ('A' for Active; 'I' for Inactive)
REMARK    1  A    between atoms: C_1  and  C_2
REMARK    2  A    between atoms: C_2  and  O_3
REMARK    3  A    between atoms: O_3  and  C_4
REMARK    4  A    between atoms: C_4  and  C_6
REMARK    5  A    between atoms: C_7  and  C_33
REMARK    6  A    between atoms: C_19  and  C_21
REMARK                            x       y       z     vdW  Elec       q    Type
REMARK                         _______ _______ _______ _____ _____    ______ ____
ROOT
ATOM      1  C   UNL     1       1.522  -2.307   2.718  0.00  0.00    +0.062 C 
ATOM      2  C   UNL     1       1.780  -3.588   3.031  0.00  0.00    +0.017 C 
ATOM      3  N   UNL     1       2.561  -3.905   4.108  0.00  0.00    -0.304 N 
ATOM      4  C   UNL     1       3.385  -2.959   4.670  0.00  0.00    +0.113 A 
ATOM      5  C   UNL     1       3.188  -1.635   4.419  0.00  0.00    +0.064 A 
ATOM      6  C   UNL     1       4.055  -0.694   5.004  0.00  0.00    +0.260 A 
ATOM      7  O   UNL     1       3.901   0.497   4.791  0.00  0.00    -0.267 OA
ATOM      8  N   UNL     1       5.054  -1.117   5.803  0.00  0.00    -0.275 N 
ATOM      9  H   UNL     1       5.653  -0.470   6.208  0.00  0.00    +0.173 HD
ATOM     10  C   UNL     1       5.230  -2.429   6.042  0.00  0.00    +0.328 A 
ATOM     11  O   UNL     1       6.136  -2.790   6.768  0.00  0.00    -0.247 OA
ATOM     12  N   UNL     1       4.415  -3.348   5.492  0.00  0.00    -0.295 N 
ATOM     13  H   UNL     1       4.557  -4.290   5.676  0.00  0.00    +0.172 HD
ATOM     14  C   UNL     1       2.070  -1.171   3.532  0.00  0.00    +0.082 C 
ATOM     15  C   UNL     1       1.202  -4.691   2.182  0.00  0.00    +0.061 C 
ATOM     16  H   UNL     1       2.532  -4.801   4.478  0.00  0.00    +0.153 HD
ENDROOT
BRANCH  14  17
ATOM     17  C   UNL     1       0.953  -0.590   4.401  0.00  0.00    +0.111 C 
ATOM     18  C   UNL     1       0.474  -1.684   5.335  0.00  0.00    -0.004 C 
ATOM     19  C   UNL     1      -0.846  -2.021   5.278  0.00  0.00    -0.007 A 
ATOM     20  C   UNL     1      -1.391  -3.067   6.144  0.00  0.00    +0.009 A 
ATOM     21  C   UNL     1      -2.712  -3.370   6.052  0.00  0.00    +0.001 A 
ATOM     22  C   UNL     1      -3.549  -2.708   5.154  0.00  0.00    +0.002 A 
ATOM     23  C   UNL     1      -3.103  -1.729   4.323  0.00  0.00    +0.024 A 
ATOM     24  C   UNL     1      -1.752  -1.338   4.339  0.00  0.00    +0.040 A 
ATOM     25  N   UNL     1      -1.327  -0.376   3.520  0.00  0.00    -0.284 N 
ATOM     26  C   UNL     1      -0.072   0.037   3.483  0.00  0.00    +0.225 C 
ATOM     27  O   UNL     1       0.257   0.919   2.712  0.00  0.00    -0.275 OA
ATOM     28  H   UNL     1      -1.968   0.040   2.923  0.00  0.00    +0.155 HD
ENDBRANCH  14  17
BRANCH   1  29
ATOM     29  C   UNL     1       0.718  -2.022   1.591  0.00  0.00    +0.337 C 
ATOM     30  O   UNL     1       1.223  -1.567   0.582  0.00  0.00    -0.245 OA
BRANCH  29  31
ATOM     31  O   UNL     1      -0.611  -2.254   1.633  0.00  0.00    -0.462 OA
BRANCH  31  33
ATOM     32  C   UNL     1      -2.838  -2.250   0.694  0.00  0.00    +0.048 C 
ATOM     33  C   UNL     1      -1.345  -2.050   0.424  0.00  0.00    +0.229 C 
ENDBRANCH  31  33
ENDBRANCH  29  31
ENDBRANCH   1  29
TORSDOF 4
