REMARK  Name = ZINC52094510
REMARK  7 active torsions:
REMARK  status: ('A' for Active; 'I' for Inactive)
REMARK    1  A    between atoms: C_1  and  C_2
REMARK    2  A    between atoms: C_2  and  C_3
REMARK    3  A    between atoms: C_2  and  C_4
REMARK    4  A    between atoms: C_2  and  C_5
REMARK    5  A    between atoms: C_5  and  C_7
REMARK    6  A    between atoms: C_5  and  N_20
REMARK    7  A    between atoms: N_20  and  C_21
REMARK                            x       y       z     vdW  Elec       q    Type
REMARK                         _______ _______ _______ _____ _____    ______ ____
ROOT
ATOM      1  C   UNL     1       2.132   0.024  -1.268  0.00  0.00    -0.045 A 
ATOM      2  C   UNL     1       2.430   1.190  -1.947  0.00  0.00    +0.031 A 
ATOM      3  C   UNL     1       3.731   1.669  -1.956  0.00  0.00    +0.067 A 
ATOM      4  C   UNL     1       4.734   0.973  -1.280  0.00  0.00    +0.068 A 
ATOM      5  C   UNL     1       4.426  -0.196  -0.601  0.00  0.00    +0.043 A 
ATOM      6  C   UNL     1       3.126  -0.664  -0.592  0.00  0.00    +0.022 A 
ATOM      7 BR   UNL     1       2.704  -2.253   0.341  0.00  0.00    -0.050 Br
ATOM      8  N   UNL     1       5.916   1.687  -1.467  0.00  0.00    -0.306 N 
ATOM      9  H   UNL     1       6.786   1.446  -1.113  0.00  0.00    +0.170 HD
ATOM     10  C   UNL     1       5.644   2.767  -2.222  0.00  0.00    +0.325 A 
ATOM     11  O   UNL     1       6.458   3.601  -2.571  0.00  0.00    -0.247 OA
ATOM     12  N   UNL     1       4.334   2.785  -2.534  0.00  0.00    -0.306 N 
ATOM     13  H   UNL     1       3.886   3.459  -3.069  0.00  0.00    +0.170 HD
ENDROOT
BRANCH   1  14
ATOM     14  C   UNL     1       0.718  -0.497  -1.257  0.00  0.00    -0.035 C 
BRANCH  14  16
ATOM     15  C   UNL     1      -0.019   1.526   0.010  0.00  0.00    +0.009 C 
ATOM     16  C   UNL     1       0.002  -0.004   0.002  0.00  0.00    -0.046 C 
ATOM     17  C   UNL     1       0.742  -0.511   1.242  0.00  0.00    +0.009 C 
ATOM     18  C   UNL     1      -1.433  -0.534   0.013  0.00  0.00    +0.009 C 
ENDBRANCH  14  16
BRANCH  14  19
ATOM     19  N   UNL     1       0.008  -0.011  -2.447  0.00  0.00    +0.382 N 
ATOM     20  C   UNL     1       0.623  -0.582  -3.652  0.00  0.00    -0.100 C 
ATOM     21  H   UNL     1      -0.960  -0.291  -2.399  0.00  0.00    -0.085 HD
ATOM     22  H   UNL     1       0.065   0.996  -2.485  0.00  0.00    -0.085 HD
ENDBRANCH  14  19
ENDBRANCH   1  14
TORSDOF 3
