REMARK  Name = ZINC13570712
REMARK  13 active torsions:
REMARK  status: ('A' for Active; 'I' for Inactive)
REMARK    1  A    between atoms: C_1  and  O_2
REMARK    2  A    between atoms: O_2  and  C_3
REMARK    3  A    between atoms: C_5  and  C_13
REMARK    4  A    between atoms: C_7  and  O_11
REMARK    5  A    between atoms: C_8  and  O_9
REMARK    6  A    between atoms: O_9  and  C_10
REMARK    7  A    between atoms: O_11  and  C_12
REMARK    8  A    between atoms: N_15  and  C_16
REMARK    9  A    between atoms: C_16  and  C_18
REMARK   10  A    between atoms: C_16  and  C_22
REMARK   11  A    between atoms: C_18  and  C_19
REMARK   12  A    between atoms: C_19  and  S_20
REMARK   13  A    between atoms: S_20  and  C_21
REMARK                            x       y       z     vdW  Elec       q    Type
REMARK                         _______ _______ _______ _____ _____    ______ ____
ROOT
ATOM      1  C   UNL     1       3.592   0.564  -6.328  0.00  0.00    +0.160 C 
ENDROOT
BRANCH   1   2
ATOM      2  C   UNL     1       3.656  -0.322  -7.545  0.00  0.00    +0.236 C 
ATOM      3  O   UNL     1       3.472  -1.516  -7.436  0.00  0.00    -0.274 OA
ATOM      4  N   UNL     1       3.917   0.211  -8.755  0.00  0.00    -0.300 N 
ATOM      5  C   UNL     1       4.256   1.635  -8.888  0.00  0.00    +0.110 C 
ATOM      6  C   UNL     1       5.579   1.758  -9.650  0.00  0.00    +0.047 C 
ATOM      7  C   UNL     1       5.471   1.008 -10.978  0.00  0.00    +0.064 C 
ATOM      8  C   UNL     1       5.197  -0.473 -10.716  0.00  0.00    +0.047 C 
ATOM      9  C   UNL     1       3.875  -0.621  -9.966  0.00  0.00    +0.110 C 
ATOM     10  C   UNL     1       6.753   1.159 -11.753  0.00  0.00    +0.057 A 
ATOM     11  C   UNL     1       6.803   1.435 -13.076  0.00  0.00    +0.039 A 
ATOM     12  N   UNL     1       8.084   1.503 -13.437  0.00  0.00    -0.349 N 
ATOM     13  C   UNL     1       8.836   1.279 -12.389  0.00  0.00    +0.171 A 
ATOM     14  N   UNL     1       8.037   1.059 -11.318  0.00  0.00    -0.348 N 
ATOM     15  H   UNL     1       8.327   0.867 -10.413  0.00  0.00    +0.166 HD
ATOM     16  C   UNL     1       5.567   1.616 -13.925  0.00  0.00    +0.070 C 
ATOM     17  C   UNL     1       4.373   1.045 -13.147  0.00  0.00    +0.088 C 
ATOM     18  N   UNL     1       4.374   1.578 -11.777  0.00  0.00    -0.305 NA
ATOM     19  H   UNL     1       3.483   1.425 -11.329  0.00  0.00    +0.123 HD
ATOM     20  H   UNL     1       8.407   1.689 -14.332  0.00  0.00    +0.166 HD
ENDBRANCH   1   2
BRANCH   1  23
ATOM     21  C   UNL     1       2.108   0.722  -4.403  0.00  0.00    +0.245 C 
ATOM     22  O   UNL     1       2.277   1.926  -4.408  0.00  0.00    -0.270 OA
ATOM     23  N   UNL     1       2.721  -0.049  -5.322  0.00  0.00    -0.300 N 
ATOM     24  H   UNL     1       2.586  -1.009  -5.319  0.00  0.00    +0.150 HD
BRANCH  21  27
ATOM     25  C   UNL     1      -0.228   0.321  -1.488  0.00  0.00    +0.166 A 
ATOM     26  C   UNL     1       0.593   0.902  -2.435  0.00  0.00    +0.062 A 
ATOM     27  C   UNL     1       1.230   0.104  -3.389  0.00  0.00    +0.044 A 
ATOM     28  C   UNL     1       1.034  -1.279  -3.383  0.00  0.00    +0.062 A 
ATOM     29  C   UNL     1       0.212  -1.855  -2.433  0.00  0.00    +0.166 A 
ATOM     30  C   UNL     1      -0.417  -1.058  -1.480  0.00  0.00    +0.204 A 
BRANCH  25  32
ATOM     31  C   UNL     1      -0.609   2.504  -0.625  0.00  0.00    +0.277 C 
ATOM     32  O   UNL     1      -0.848   1.097  -0.558  0.00  0.00    -0.491 OA
ENDBRANCH  25  32
BRANCH  30  33
ATOM     33  O   UNL     1      -1.222  -1.627  -0.544  0.00  0.00    -0.488 OA
ATOM     34  C   UNL     1      -2.605  -1.766  -0.875  0.00  0.00    +0.277 C 
ENDBRANCH  30  33
BRANCH  29  35
ATOM     35  O   UNL     1       0.020  -3.201  -2.426  0.00  0.00    -0.491 OA
ATOM     36  C   UNL     1       0.701  -3.958  -3.429  0.00  0.00    +0.277 C 
ENDBRANCH  29  35
ENDBRANCH  21  27
ENDBRANCH   1  23
BRANCH   1  37
ATOM     37  C   UNL     1       4.998   0.736  -5.749  0.00  0.00    +0.042 C 
BRANCH  37  38
ATOM     38  C   UNL     1       4.956   1.748  -4.602  0.00  0.00    +0.071 C 
BRANCH  38  39
ATOM     39  S   UNL     1       6.623   1.953  -3.915  0.00  0.00    -0.164 S 
ATOM     40  C   UNL     1       6.404   3.167  -2.586  0.00  0.00    +0.084 C 
ENDBRANCH  38  39
ENDBRANCH  37  38
ENDBRANCH   1  37
TORSDOF 9
