REMARK  Name = ZINC05347393
REMARK  8 active torsions:
REMARK  status: ('A' for Active; 'I' for Inactive)
REMARK    1  A    between atoms: C_1  and  N_51
REMARK    2  A    between atoms: C_2  and  N_51
REMARK    3  A    between atoms: C_3  and  C_4
REMARK    4  A    between atoms: C_3  and  N_51
REMARK    5  A    between atoms: C_4  and  C_5
REMARK    6  A    between atoms: C_5  and  N_6
REMARK    7  A    between atoms: C_12  and  C_22
REMARK    8  A    between atoms: C_17  and  O_21
REMARK                            x       y       z     vdW  Elec       q    Type
REMARK                         _______ _______ _______ _____ _____    ______ ____
ROOT
ATOM      1  N   UNL     1       0.677   0.309  -0.002  0.00  0.00    -0.318 N 
ATOM      2  C   UNL     1       1.075   1.606   0.002  0.00  0.00    +0.204 A 
ATOM      3  N   UNL     1       2.335   1.932  -0.009  0.00  0.00    -0.202 NA
ATOM      4  C   UNL     1       3.314   1.007  -0.023  0.00  0.00    +0.229 A 
ATOM      5  C   UNL     1       2.994  -0.317  -0.027  0.00  0.00    +0.066 A 
ATOM      6  C   UNL     1       1.629  -0.691  -0.017  0.00  0.00    +0.115 A 
ATOM      7  C   UNL     1       4.056  -1.379  -0.042  0.00  0.00    +0.091 C 
ATOM      8  C   UNL     1       5.375  -0.797  -0.472  0.00  0.00    +0.007 A 
ATOM      9  C   UNL     1       6.387  -1.640  -0.897  0.00  0.00    +0.012 A 
ATOM     10  C   UNL     1       7.603  -1.122  -1.296  0.00  0.00    +0.046 A 
ATOM     11  C   UNL     1       7.813   0.250  -1.272  0.00  0.00    +0.120 A 
ATOM     12  C   UNL     1       6.803   1.097  -0.848  0.00  0.00    +0.092 A 
ATOM     13  C   UNL     1       5.580   0.574  -0.446  0.00  0.00    +0.138 A 
ATOM     14  O   UNL     1       4.601   1.414  -0.033  0.00  0.00    -0.437 OA
ATOM     15  H   UNL     1       0.363  -2.302  -0.017  0.00  0.00    +0.157 HD
ATOM     16  N   UNL     1       1.337  -1.998  -0.023  0.00  0.00    -0.384 N 
ATOM     17  H   UNL     1       2.093  -2.693  -0.035  0.00  0.00    +0.157 HD
ENDROOT
BRANCH   7  18
ATOM     18  C   UNL     1       4.197  -1.962   1.341  0.00  0.00    -0.035 A 
ATOM     19  C   UNL     1       4.555  -1.149   2.401  0.00  0.00    +0.006 A 
ATOM     20  C   UNL     1       4.678  -1.682   3.670  0.00  0.00    +0.020 A 
ATOM     21  C   UNL     1       4.455  -3.032   3.878  0.00  0.00    +0.041 A 
ATOM     22  C   UNL     1       4.102  -3.846   2.816  0.00  0.00    +0.020 A 
ATOM     23  C   UNL     1       3.973  -3.311   1.548  0.00  0.00    +0.006 A 
ATOM     24 CL   UNL     1       4.616  -3.703   5.471  0.00  0.00    -0.084 Cl
ENDBRANCH   7  18
BRANCH  11  25
ATOM     25  O   UNL     1       9.009   0.762  -1.665  0.00  0.00    -0.507 OA
ATOM     26  H   UNL     1       9.058   0.970  -2.608  0.00  0.00    +0.292 HD
ENDBRANCH  11  25
BRANCH   1  27
ATOM     27  C   UNL     1      -0.749  -0.027   0.011  0.00  0.00    +0.123 C 
BRANCH  27  28
ATOM     28  C   UNL     1      -1.202  -0.275   1.451  0.00  0.00    +0.003 C 
BRANCH  28  29
ATOM     29  C   UNL     1      -2.691  -0.627   1.465  0.00  0.00    -0.078 C 
BRANCH  29  32
ATOM     30  C   UNL     1      -3.050   0.368   3.643  0.00  0.00    -0.097 C 
ATOM     31  C   UNL     1      -4.479  -1.432   2.884  0.00  0.00    -0.097 C 
ATOM     32  N   UNL     1      -3.107  -0.884   2.860  0.00  0.00    +0.376 N 
ATOM     33  H   UNL     1      -2.467  -1.568   3.278  0.00  0.00    -0.083 HD
ENDBRANCH  29  32
ENDBRANCH  28  29
ENDBRANCH  27  28
ENDBRANCH   1  27
TORSDOF 6
