REMARK  Name = ZINC10166906
REMARK  10 active torsions:
REMARK  status: ('A' for Active; 'I' for Inactive)
REMARK    1  A    between atoms: C_1  and  C_2
REMARK    2  A    between atoms: C_2  and  C_3
REMARK    3  A    between atoms: C_8  and  O_31
REMARK    4  A    between atoms: C_9  and  C_11
REMARK    5  A    between atoms: C_11  and  C_13
REMARK    6  A    between atoms: C_11  and  N_20
REMARK    7  A    between atoms: C_23  and  C_26
REMARK    8  A    between atoms: C_26  and  O_28
REMARK    9  A    between atoms: O_28  and  C_29
REMARK   10  A    between atoms: C_29  and  C_30
REMARK                            x       y       z     vdW  Elec       q    Type
REMARK                         _______ _______ _______ _____ _____    ______ ____
ROOT
ATOM      1  C   UNL     1      -6.961  -2.571  -0.749  0.00  0.00    +0.005 C 
ENDROOT
BRANCH   1   8
ATOM      2  C   UNL     1      -1.412  -0.526   0.013  0.00  0.00    +0.152 A 
ATOM      3  N   UNL     1      -2.127  -0.793   1.104  0.00  0.00    -0.205 NA
ATOM      4  C   UNL     1      -3.306  -1.227   0.751  0.00  0.00    +0.199 A 
ATOM      5  N   UNL     1      -3.395  -1.255  -0.607  0.00  0.00    -0.173 N 
ATOM      6  N   UNL     1      -2.131  -0.782  -1.047  0.00  0.00    -0.147 NA
ATOM      7  C   UNL     1      -4.579  -1.691  -1.151  0.00  0.00    +0.225 A 
ATOM      8  C   UNL     1      -5.593  -2.068  -0.364  0.00  0.00    +0.045 A 
ATOM      9  S   UNL     1      -4.901  -1.817   1.264  0.00  0.00    -0.050 S 
BRANCH   2  11
ATOM     10  C   UNL     1      -0.019   1.526   0.010  0.00  0.00    +0.012 C 
ATOM     11  C   UNL     1       0.002  -0.004   0.002  0.00  0.00    +0.075 C 
ENDBRANCH   2  11
BRANCH   7  12
ATOM     12  O   UNL     1      -4.722  -1.740  -2.503  0.00  0.00    -0.492 OA
ATOM     13  H   UNL     1      -3.939  -1.449  -2.992  0.00  0.00    +0.294 HD
ENDBRANCH   7  12
ENDBRANCH   1   8
BRANCH   1  14
ATOM     14  C   UNL     1      -8.005  -1.585  -0.292  0.00  0.00    -0.055 A 
ATOM     15  C   UNL     1      -8.414  -1.573   1.029  0.00  0.00    +0.002 A 
ATOM     16  C   UNL     1      -9.372  -0.669   1.448  0.00  0.00    +0.001 A 
ATOM     17  C   UNL     1      -9.922   0.223   0.547  0.00  0.00    +0.015 A 
ATOM     18  C   UNL     1      -9.513   0.212  -0.774  0.00  0.00    +0.018 A 
ATOM     19  C   UNL     1      -8.551  -0.690  -1.192  0.00  0.00    +0.017 A 
ATOM     20 BR   UNL     1     -10.266   1.432  -2.007  0.00  0.00    -0.050 Br
ENDBRANCH   1  14
BRANCH   1  21
ATOM     21  N   UNL     1      -7.202  -3.871  -0.110  0.00  0.00    +0.387 N 
ATOM     22  C   UNL     1      -6.179  -4.828  -0.549  0.00  0.00    -0.077 C 
ATOM     23  C   UNL     1      -6.378  -6.161   0.175  0.00  0.00    -0.004 C 
ATOM     24  C   UNL     1      -7.768  -6.712  -0.154  0.00  0.00    +0.094 C 
ATOM     25  C   UNL     1      -8.824  -5.675   0.240  0.00  0.00    -0.004 C 
ATOM     26  C   UNL     1      -8.534  -4.360  -0.486  0.00  0.00    -0.077 C 
ATOM     27  H   UNL     1      -7.154  -3.767   0.892  0.00  0.00    -0.080 HD
BRANCH  24  28
ATOM     28  C   UNL     1      -8.001  -7.986   0.618  0.00  0.00    +0.310 C 
ATOM     29  O   UNL     1      -7.143  -8.411   1.355  0.00  0.00    -0.251 OA
BRANCH  28  30
ATOM     30  O   UNL     1      -9.161  -8.648   0.485  0.00  0.00    -0.465 OA
BRANCH  30  31
ATOM     31  C   UNL     1      -9.313  -9.848   1.246  0.00  0.00    +0.229 C 
ATOM     32  C   UNL     1     -10.688 -10.458   0.967  0.00  0.00    +0.048 C 
ENDBRANCH  30  31
ENDBRANCH  28  30
ENDBRANCH  24  28
ENDBRANCH   1  21
TORSDOF 8
