REMARK  Name = ZINC53123357
REMARK  15 active torsions:
REMARK  status: ('A' for Active; 'I' for Inactive)
REMARK    1  A    between atoms: C_1  and  C_2
REMARK    2  A    between atoms: C_2  and  C_3
REMARK    3  A    between atoms: C_2  and  C_4
REMARK    4  A    between atoms: C_2  and  C_5
REMARK    5  A    between atoms: C_5  and  C_6
REMARK    6  A    between atoms: C_6  and  C_7
REMARK    7  A    between atoms: C_6  and  C_8
REMARK    8  A    between atoms: C_6  and  N_9
REMARK    9  A    between atoms: N_9  and  C_10
REMARK   10  A    between atoms: C_10  and  C_11
REMARK   11  A    between atoms: N_13  and  C_14
REMARK   12  A    between atoms: C_14  and  C_15
REMARK   13  A    between atoms: C_15  and  C_16
REMARK   14  A    between atoms: C_19  and  S_22
REMARK   15  A    between atoms: S_22  and  N_25
REMARK                            x       y       z     vdW  Elec       q    Type
REMARK                         _______ _______ _______ _____ _____    ______ ____
ROOT
ATOM      1  C   UNL     1       4.385  -0.225  -3.521  0.00  0.00    +0.196 C 
ATOM      2  O   UNL     1       3.818  -1.005  -4.256  0.00  0.00    -0.278 OA
ATOM      3  N   UNL     1       5.644   0.168  -3.798  0.00  0.00    -0.317 N 
ATOM      4  H   UNL     1       6.098   0.792  -3.210  0.00  0.00    +0.149 HD
ENDROOT
BRANCH   1   5
ATOM      5  C   UNL     1       3.682   0.306  -2.299  0.00  0.00    +0.016 C 
BRANCH   5   6
ATOM      6  N   UNL     1       2.332  -0.269  -2.221  0.00  0.00    +0.388 N 
ATOM      7  H   UNL     1       2.398  -1.274  -2.162  0.00  0.00    -0.084 HD
ATOM      8  H   UNL     1       1.810  -0.015  -3.046  0.00  0.00    -0.084 HD
BRANCH   6   9
ATOM      9  C   UNL     1       1.647   0.248  -1.029  0.00  0.00    -0.073 C 
ATOM     10  C   UNL     1       1.347   1.736  -1.219  0.00  0.00    -0.010 C 
ATOM     11  C   UNL     1       2.544   0.061   0.196  0.00  0.00    -0.010 C 
BRANCH   9  12
ATOM     12  C   UNL     1       0.337  -0.515  -0.823  0.00  0.00    -0.007 C 
BRANCH  12  14
ATOM     13  C   UNL     1       0.517  -1.831  -2.939  0.00  0.00    +0.010 C 
ATOM     14  C   UNL     1      -0.311  -0.791  -2.182  0.00  0.00    -0.039 C 
ATOM     15  C   UNL     1      -0.369   0.505  -2.993  0.00  0.00    +0.010 C 
ATOM     16  C   UNL     1      -1.730  -1.324  -1.971  0.00  0.00    +0.010 C 
ENDBRANCH  12  14
ENDBRANCH   9  12
ENDBRANCH   6   9
ENDBRANCH   5   6
ENDBRANCH   1   5
BRANCH   3  17
ATOM     17  C   UNL     1       6.328  -0.348  -4.987  0.00  0.00    +0.109 C 
BRANCH  17  18
ATOM     18  C   UNL     1       7.733   0.251  -5.067  0.00  0.00    +0.054 C 
BRANCH  18  19
ATOM     19  C   UNL     1       8.436  -0.279  -6.290  0.00  0.00    -0.046 A 
ATOM     20  C   UNL     1       9.181  -1.441  -6.210  0.00  0.00    +0.005 A 
ATOM     21  C   UNL     1       9.826  -1.928  -7.331  0.00  0.00    +0.029 A 
ATOM     22  C   UNL     1       9.726  -1.253  -8.533  0.00  0.00    +0.105 A 
ATOM     23  C   UNL     1       8.980  -0.091  -8.614  0.00  0.00    +0.029 A 
ATOM     24  C   UNL     1       8.332   0.393  -7.493  0.00  0.00    +0.005 A 
BRANCH  22  25
ATOM     25  S   UNL     1      10.549  -1.873  -9.963  0.00  0.00    +0.056 S 
ATOM     26  O   UNL     1      10.745  -0.765 -10.831  0.00  0.00    -0.153 OA
ATOM     27  O   UNL     1      11.625  -2.675  -9.496  0.00  0.00    -0.153 OA
BRANCH  25  28
ATOM     28  N   UNL     1       9.495  -2.894 -10.730  0.00  0.00    -0.204 NA
ATOM     29  H   UNL     1       8.611  -3.044 -10.362  0.00  0.00    +0.144 HD
ATOM     30  H   UNL     1       9.763  -3.342 -11.548  0.00  0.00    +0.144 HD
ENDBRANCH  25  28
ENDBRANCH  22  25
ENDBRANCH  18  19
ENDBRANCH  17  18
ENDBRANCH   3  17
TORSDOF 10
