REMARK  Name = ZINC55161959
REMARK  14 active torsions:
REMARK  status: ('A' for Active; 'I' for Inactive)
REMARK    1  A    between atoms: C_1  and  C_2
REMARK    2  A    between atoms: C_3  and  C_30
REMARK    3  A    between atoms: C_4  and  S_14
REMARK    4  A    between atoms: C_5  and  C_13
REMARK    5  A    between atoms: C_9  and  C_11
REMARK    6  A    between atoms: C_9  and  C_12
REMARK    7  A    between atoms: S_14  and  N_17
REMARK    8  A    between atoms: N_17  and  N_18
REMARK    9  A    between atoms: N_20  and  C_21
REMARK   10  A    between atoms: C_21  and  C_22
REMARK   11  A    between atoms: C_22  and  C_23
REMARK   12  A    between atoms: C_23  and  CA_24
REMARK   13  A    between atoms: CA_24  and  C_26
REMARK   14  A    between atoms: CA_24  and  N_29
REMARK                            x       y       z     vdW  Elec       q    Type
REMARK                         _______ _______ _______ _____ _____    ______ ____
ROOT
ATOM      1  N   UNL     1      -0.322  -3.184  -3.530  0.00  0.00    -0.158 N 
ATOM      2  H   UNL     1      -0.496  -4.111  -3.756  0.00  0.00    +0.194 HD
ENDROOT
BRANCH   1   3
ATOM      3  N   UNL     1      -1.205  -2.182  -3.953  0.00  0.00    -0.285 N 
ATOM      4  C   UNL     1      -2.252  -2.493  -4.643  0.00  0.00    +0.171 C 
ATOM      5  N   UNL     1      -3.128  -1.500  -5.061  0.00  0.00    -0.336 N 
ATOM      6  H   UNL     1      -2.954  -0.573  -4.836  0.00  0.00    +0.147 HD
ATOM      7  H   UNL     1      -1.031  -1.255  -3.727  0.00  0.00    +0.186 HD
BRANCH   5   8
ATOM      8  C   UNL     1      -4.315  -1.853  -5.844  0.00  0.00    +0.102 C 
BRANCH   8   9
ATOM      9  C   UNL     1      -5.104  -0.584  -6.173  0.00  0.00    +0.018 C 
BRANCH   9  10
ATOM     10  C   UNL     1      -6.344  -0.952  -6.991  0.00  0.00    -0.004 C 
BRANCH  10  11
ATOM     11  CA  UNL     1      -7.133   0.316  -7.320  0.00  0.00    +0.040 C 
BRANCH  11  12
ATOM     12  N   UNL     1      -6.330   1.178  -8.199  0.00  0.00    +0.387 N 
ATOM     13  H1  UNL     1      -6.118   0.683  -9.052  0.00  0.00    -0.089 HD
ATOM     14  H2  UNL     1      -6.851   2.014  -8.416  0.00  0.00    -0.089 HD
ATOM     15  H3  UNL     1      -5.472   1.427  -7.732  0.00  0.00    -0.089 HD
ENDBRANCH  11  12
BRANCH  11  16
ATOM     16  C   UNL     1      -8.416  -0.057  -8.018  0.00  0.00    +0.342 C 
ATOM     17  O   UNL     1      -9.306  -0.615  -7.399  0.00  0.00    -0.248 OA
ATOM     18  OXT UNL     1      -8.563   0.200  -9.201  0.00  0.00    -0.248 OA
ENDBRANCH  11  16
ENDBRANCH  10  11
ENDBRANCH   9  10
ENDBRANCH   8   9
ENDBRANCH   5   8
ENDBRANCH   1   3
BRANCH   1  19
ATOM     19  S   UNL     1       1.021  -2.785  -2.646  0.00  0.00    +0.085 S 
ATOM     20  O   UNL     1       1.718  -1.795  -3.390  0.00  0.00    -0.149 OA
ATOM     21  O   UNL     1       1.626  -4.009  -2.252  0.00  0.00    -0.149 OA
BRANCH  19  25
ATOM     22  C   UNL     1      -0.215   1.491   0.088  0.00  0.00    +0.048 C 
ATOM     23  C   UNL     1      -0.093  -0.010   0.039  0.00  0.00    -0.004 A 
ATOM     24  C   UNL     1       0.343  -0.627  -1.115  0.00  0.00    -0.017 A 
ATOM     25  C   UNL     1       0.459  -2.004  -1.170  0.00  0.00    +0.116 A 
ATOM     26  C   UNL     1       0.131  -2.766  -0.062  0.00  0.00    -0.017 A 
ATOM     27  C   UNL     1      -0.307  -2.152   1.090  0.00  0.00    +0.003 A 
ATOM     28  C   UNL     1      -0.415  -0.769   1.162  0.00  0.00    +0.128 A 
ATOM     29  O   UNL     1      -0.836  -0.370   2.393  0.00  0.00    -0.485 OA
ATOM     30  C   UNL     1      -1.449  -1.483   3.067  0.00  0.00    +0.109 C 
ATOM     31  C   UNL     1      -0.742  -2.702   2.434  0.00  0.00    +0.086 C 
ATOM     32  C   UNL     1      -1.186  -1.417   4.572  0.00  0.00    +0.056 C 
ATOM     33  C   UNL     1      -2.951  -1.531   2.779  0.00  0.00    +0.056 C 
ATOM     34  C   UNL     1       0.254  -4.267  -0.117  0.00  0.00    +0.046 C 
ATOM     35  C   UNL     1       0.694   0.203  -2.322  0.00  0.00    +0.046 C 
ENDBRANCH  19  25
ENDBRANCH   1  19
TORSDOF 9
