REMARK  Name = ZINC35636391
REMARK  14 active torsions:
REMARK  status: ('A' for Active; 'I' for Inactive)
REMARK    1  A    between atoms: C_3  and  N_36
REMARK    2  A    between atoms: C_6  and  C_7
REMARK    3  A    between atoms: C_7  and  C_8
REMARK    4  A    between atoms: C_8  and  C_9
REMARK    5  A    between atoms: C_9  and  C_11
REMARK    6  A    between atoms: C_12  and  O_35
REMARK    7  A    between atoms: C_14  and  O_34
REMARK    8  A    between atoms: C_16  and  O_17
REMARK    9  A    between atoms: O_17  and  C_18
REMARK   10  A    between atoms: C_20  and  O_33
REMARK   11  A    between atoms: C_22  and  O_32
REMARK   12  A    between atoms: C_24  and  O_31
REMARK   13  A    between atoms: C_26  and  C_29
REMARK   14  A    between atoms: C_29  and  O_30
REMARK                            x       y       z     vdW  Elec       q    Type
REMARK                         _______ _______ _______ _____ _____    ______ ____
ROOT
ATOM      1  C   UNL     1      -3.693  -2.144  -2.681  0.00  0.00    +0.101 A 
ATOM      2  C   UNL     1      -3.100  -1.789  -3.907  0.00  0.00    +0.134 A 
ATOM      3  C   UNL     1      -3.715  -2.137  -5.094  0.00  0.00    +0.091 A 
ATOM      4  C   UNL     1      -4.916  -2.836  -5.080  0.00  0.00    +0.124 A 
ATOM      5  C   UNL     1      -5.510  -3.191  -3.876  0.00  0.00    +0.092 A 
ATOM      6  C   UNL     1      -4.907  -2.857  -2.678  0.00  0.00    +0.141 A 
ENDROOT
BRANCH   1   7
ATOM      7  C   UNL     1      -3.051  -1.781  -1.420  0.00  0.00    +0.170 C 
ATOM      8  O   UNL     1      -3.564  -2.094  -0.365  0.00  0.00    -0.292 OA
BRANCH   7   9
ATOM      9  C   UNL     1      -1.751  -1.018  -1.429  0.00  0.00    +0.084 C 
BRANCH   9  10
ATOM     10  C   UNL     1      -1.297  -0.767   0.011  0.00  0.00    +0.043 C 
BRANCH  10  16
ATOM     11  C   UNL     1      -0.017   1.385   0.010  0.00  0.00    +0.006 A 
ATOM     12  C   UNL     1       1.151   2.090   0.002  0.00  0.00    +0.031 A 
ATOM     13  C   UNL     1       2.388   1.397  -0.013  0.00  0.00    +0.100 A 
ATOM     14  C   UNL     1       2.390  -0.021  -0.021  0.00  0.00    +0.031 A 
ATOM     15  C   UNL     1       1.206  -0.697  -0.013  0.00  0.00    +0.006 A 
ATOM     16  C   UNL     1       0.002  -0.004   0.002  0.00  0.00    -0.047 A 
BRANCH  13  17
ATOM     17  N   UNL     1       3.530   2.068  -0.021  0.00  0.00    -0.072 NA
ATOM     18  N   UNL     1       4.508   1.514  -0.033  0.00  0.00    -0.162 NA
ATOM     19  N   UNL     1       5.465   0.971  -0.045  0.00  0.00    +0.068 NA
ENDBRANCH  13  17
ENDBRANCH  10  16
ENDBRANCH   9  10
ENDBRANCH   7   9
ENDBRANCH   1   7
BRANCH   4  20
ATOM     20  O   UNL     1      -5.513  -3.173  -6.251  0.00  0.00    -0.507 OA
ATOM     21  H   UNL     1      -5.242  -4.034  -6.597  0.00  0.00    +0.292 HD
ENDBRANCH   4  20
BRANCH   2  22
ATOM     22  O   UNL     1      -1.928  -1.106  -3.922  0.00  0.00    -0.506 OA
ATOM     23  H   UNL     1      -1.143  -1.672  -3.933  0.00  0.00    +0.292 HD
ENDBRANCH   2  22
BRANCH   6  24
ATOM     24  O   UNL     1      -5.486  -3.211  -1.503  0.00  0.00    -0.460 OA
BRANCH  24  25
ATOM     25  C   UNL     1      -6.716  -3.933  -1.578  0.00  0.00    +0.339 C 
ATOM     26  C   UNL     1      -7.339  -4.025  -0.183  0.00  0.00    +0.214 C 
ATOM     27  C   UNL     1      -8.627  -4.851  -0.260  0.00  0.00    +0.180 C 
ATOM     28  C   UNL     1      -8.301  -6.230  -0.844  0.00  0.00    +0.177 C 
ATOM     29  C   UNL     1      -7.641  -6.052  -2.214  0.00  0.00    +0.179 C 
ATOM     30  O   UNL     1      -6.467  -5.249  -2.075  0.00  0.00    -0.331 OA
BRANCH  28  31
ATOM     31  O   UNL     1      -7.408  -6.920   0.032  0.00  0.00    -0.386 OA
ATOM     32  H   UNL     1      -7.761  -7.063   0.921  0.00  0.00    +0.210 HD
ENDBRANCH  28  31
BRANCH  27  33
ATOM     33  O   UNL     1      -9.178  -5.003   1.050  0.00  0.00    -0.386 OA
ATOM     34  H   UNL     1      -9.401  -4.167   1.481  0.00  0.00    +0.210 HD
ENDBRANCH  27  33
BRANCH  26  35
ATOM     35  O   UNL     1      -6.419  -4.655   0.711  0.00  0.00    -0.383 OA
ATOM     36  H   UNL     1      -5.579  -4.187   0.804  0.00  0.00    +0.210 HD
ENDBRANCH  26  35
BRANCH  29  37
ATOM     37  C   UNL     1      -7.259  -7.422  -2.777  0.00  0.00    +0.190 C 
BRANCH  37  38
ATOM     38  O   UNL     1      -6.750  -7.267  -4.103  0.00  0.00    -0.392 OA
ATOM     39  H   UNL     1      -6.487  -8.097  -4.523  0.00  0.00    +0.210 HD
ENDBRANCH  37  38
ENDBRANCH  29  37
ENDBRANCH  24  25
ENDBRANCH   6  24
TORSDOF 14
