REMARK  Name = ZINC09145693
REMARK  6 active torsions:
REMARK  status: ('A' for Active; 'I' for Inactive)
REMARK    1  A    between atoms: C_2  and  C_3
REMARK    2  A    between atoms: C_3  and  N_4
REMARK    3  A    between atoms: C_5  and  C_21
REMARK    4  A    between atoms: C_8  and  S_9
REMARK    5  A    between atoms: S_9  and  C_10
REMARK    6  A    between atoms: C_10  and  C_11
REMARK                            x       y       z     vdW  Elec       q    Type
REMARK                         _______ _______ _______ _____ _____    ______ ____
ROOT
ATOM      1  N   UNL     1      -1.760  -1.894  -0.780  0.00  0.00    -0.298 N 
ATOM      2  C   UNL     1      -1.774  -1.542  -2.110  0.00  0.00    +0.165 A 
ATOM      3  N   UNL     1      -1.260  -2.547  -2.780  0.00  0.00    -0.128 NA
ATOM      4  N   UNL     1      -0.930  -3.490  -1.973  0.00  0.00    -0.122 NA
ATOM      5  C   UNL     1      -1.209  -3.143  -0.736  0.00  0.00    +0.193 A 
ENDROOT
BRANCH   2   6
ATOM      6  C   UNL     1      -2.273  -0.271  -2.677  0.00  0.00    +0.019 A 
ATOM      7  C   UNL     1      -2.895  -0.258  -3.927  0.00  0.00    +0.012 A 
ATOM      8  C   UNL     1      -3.359   0.931  -4.450  0.00  0.00    +0.016 A 
ATOM      9  C   UNL     1      -3.209   2.109  -3.739  0.00  0.00    +0.018 A 
ATOM     10  C   UNL     1      -2.592   2.103  -2.500  0.00  0.00    +0.016 A 
ATOM     11  C   UNL     1      -2.129   0.919  -1.963  0.00  0.00    +0.012 A 
ATOM     12 BR   UNL     1      -3.848   3.735  -4.464  0.00  0.00    -0.050 Br
ENDBRANCH   2   6
BRANCH   1  13
ATOM     13  C   UNL     1      -2.232  -1.094   0.352  0.00  0.00    +0.152 C 
BRANCH  13  15
ATOM     14  C   UNL     1      -1.128   0.932   1.149  0.00  0.00    +0.005 C 
ATOM     15  C   UNL     1      -1.068  -0.364   0.971  0.00  0.00    -0.013 C 
ENDBRANCH  13  15
ENDBRANCH   1  13
BRANCH   5  16
ATOM     16  S   UNL     1      -0.928  -4.111   0.710  0.00  0.00    -0.077 S 
BRANCH  16  17
ATOM     17  C   UNL     1      -0.183  -5.639   0.077  0.00  0.00    +0.173 C 
BRANCH  17  18
ATOM     18  C   UNL     1       0.111  -6.568   1.226  0.00  0.00    +0.229 C 
ATOM     19  O   UNL     1      -0.155  -6.232   2.361  0.00  0.00    -0.275 OA
ATOM     20  N   UNL     1       0.670  -7.772   0.994  0.00  0.00    -0.270 N 
ATOM     21  C   UNL     1       0.853  -8.671   2.044  0.00  0.00    +0.125 A 
ATOM     22  C   UNL     1       1.532  -9.863   1.821  0.00  0.00    +0.045 A 
ATOM     23  C   UNL     1       1.707 -10.745   2.872  0.00  0.00    +0.020 A 
ATOM     24  C   UNL     1       1.193 -10.404   4.116  0.00  0.00    +0.036 A 
ATOM     25  C   UNL     1       0.529  -9.202   4.266  0.00  0.00    +0.128 A 
ATOM     26  N   UNL     1       0.382  -8.378   3.246  0.00  0.00    -0.239 NA
ATOM     27 BR   UNL     1       1.401 -11.571   5.589  0.00  0.00    -0.049 Br
ATOM     28  H   UNL     1       0.946  -8.013   0.096  0.00  0.00    +0.156 HD
ENDBRANCH  17  18
ENDBRANCH  16  17
ENDBRANCH   5  16
TORSDOF 6
