REMARK  Name = ZINC33359079
REMARK  8 active torsions:
REMARK  status: ('A' for Active; 'I' for Inactive)
REMARK    1  A    between atoms: C_1  and  C_2
REMARK    2  A    between atoms: C_4  and  C_18
REMARK    3  A    between atoms: C_5  and  C_8
REMARK    4  A    between atoms: N_6  and  C_7
REMARK    5  A    between atoms: N_24  and  C_25
REMARK    6  A    between atoms: C_25  and  C_26
REMARK    7  A    between atoms: C_26  and  C_28
REMARK    8  A    between atoms: C_26  and  O_29
REMARK                            x       y       z     vdW  Elec       q    Type
REMARK                         _______ _______ _______ _____ _____    ______ ____
ROOT
ATOM      1  C   UNL     1      -0.018   1.503   0.010  0.00  0.00    +0.084 C 
ATOM      2  C   UNL     1       0.002  -0.004   0.002  0.00  0.00    +0.084 A 
ATOM      3  N   UNL     1       0.008  -0.750  -1.066  0.00  0.00    -0.342 N 
ATOM      4  C   UNL     1       0.027  -2.050  -0.707  0.00  0.00    +0.091 A 
ATOM      5  C   UNL     1       0.033  -2.098   0.676  0.00  0.00    +0.077 A 
ATOM      6  N   UNL     1       0.023  -0.794   1.106  0.00  0.00    -0.332 N 
ATOM      7  C   UNL     1       0.030  -0.339   2.499  0.00  0.00    +0.150 C 
ATOM      8  H   UNL     1      -0.001  -0.422  -1.978  0.00  0.00    +0.167 HD
ENDROOT
BRANCH   5   9
ATOM      9  C   UNL     1       0.053  -3.310   1.521  0.00  0.00    +0.019 A 
ATOM     10  C   UNL     1      -0.780  -4.391   1.227  0.00  0.00    +0.023 A 
ATOM     11  C   UNL     1      -0.718  -5.508   2.059  0.00  0.00    +0.019 A 
ATOM     12  C   UNL     1      -1.408  -6.800   2.087  0.00  0.00    +0.029 A 
ATOM     13  C   UNL     1      -0.925  -7.477   3.140  0.00  0.00    +0.085 A 
ATOM     14  N   UNL     1       0.017  -6.723   3.788  0.00  0.00    -0.346 N 
ATOM     15  H   UNL     1       0.505  -7.002   4.578  0.00  0.00    +0.167 HD
ATOM     16  C   UNL     1       0.169  -5.513   3.154  0.00  0.00    +0.138 A 
ATOM     17  N   UNL     1       0.940  -4.459   3.390  0.00  0.00    -0.237 NA
ATOM     18  C   UNL     1       0.912  -3.392   2.624  0.00  0.00    +0.123 A 
ENDBRANCH   5   9
BRANCH   4  19
ATOM     19  C   UNL     1       0.038  -3.210  -1.623  0.00  0.00    +0.094 A 
ATOM     20  C   UNL     1      -0.473  -3.096  -2.921  0.00  0.00    +0.050 A 
ATOM     21  C   UNL     1      -0.440  -4.208  -3.741  0.00  0.00    +0.116 A 
ATOM     22  N   UNL     1       0.070  -5.340  -3.279  0.00  0.00    -0.223 NA
ATOM     23  C   UNL     1       0.547  -5.420  -2.046  0.00  0.00    +0.216 A 
ATOM     24  N   UNL     1       0.541  -4.380  -1.228  0.00  0.00    -0.213 NA
ATOM     25  N   UNL     1       1.071  -6.623  -1.603  0.00  0.00    -0.311 N 
ATOM     26  H   UNL     1       1.424  -6.695  -0.702  0.00  0.00    +0.149 HD
BRANCH  25  27
ATOM     27  C   UNL     1       1.092  -7.785  -2.494  0.00  0.00    +0.135 C 
BRANCH  27  28
ATOM     28  C   UNL     1       1.718  -8.976  -1.764  0.00  0.00    +0.128 C 
ATOM     29  C   UNL     1       1.854 -10.153  -2.732  0.00  0.00    +0.039 C 
BRANCH  28  30
ATOM     30  O   UNL     1       0.882  -9.355  -0.668  0.00  0.00    -0.391 OA
ATOM     31  H   UNL     1      -0.012  -9.617  -0.927  0.00  0.00    +0.210 HD
ENDBRANCH  28  30
ENDBRANCH  27  28
ENDBRANCH  25  27
ENDBRANCH   4  19
TORSDOF 5
