REMARK  Name = ZINC63255208
REMARK  6 active torsions:
REMARK  status: ('A' for Active; 'I' for Inactive)
REMARK    1  A    between atoms: C_1  and  C_2
REMARK    2  A    between atoms: C_4  and  N_9
REMARK    3  A    between atoms: N_9  and  C_10
REMARK    4  A    between atoms: C_10  and  C_11
REMARK    5  A    between atoms: C_12  and  C_17
REMARK    6  A    between atoms: C_15  and  C_16
REMARK                            x       y       z     vdW  Elec       q    Type
REMARK                         _______ _______ _______ _____ _____    ______ ____
ROOT
ATOM      1  C   UNL     1      -0.018   1.503   0.010  0.00  0.00    +0.063 C 
ATOM      2  C   UNL     1       0.002  -0.004   0.002  0.00  0.00    +0.019 A 
ATOM      3  C   UNL     1       0.006  -0.696  -1.194  0.00  0.00    +0.064 A 
ATOM      4  C   UNL     1       0.026  -2.091  -1.156  0.00  0.00    +0.124 A 
ATOM      5  N   UNL     1       0.040  -2.705   0.023  0.00  0.00    -0.201 NA
ATOM      6  C   UNL     1       0.035  -2.005   1.148  0.00  0.00    +0.192 A 
ATOM      7  N   UNL     1       0.022  -0.680   1.141  0.00  0.00    -0.332 N 
ATOM      8  N   UNL     1       0.051  -2.674   2.359  0.00  0.00    -0.329 N 
ATOM      9  H   UNL     1       0.064  -3.643   2.377  0.00  0.00    +0.145 HD
ATOM     10  H   UNL     1       0.048  -2.173   3.190  0.00  0.00    +0.145 HD
ATOM     11  H   UNL     1       0.023  -0.198   1.983  0.00  0.00    +0.168 HD
ENDROOT
BRANCH   4  12
ATOM     12  N   UNL     1       0.030  -2.826  -2.330  0.00  0.00    -0.325 N 
ATOM     13  H   UNL     1       0.043  -3.795  -2.296  0.00  0.00    +0.148 HD
BRANCH  12  14
ATOM     14  C   UNL     1       0.013  -2.139  -3.624  0.00  0.00    +0.143 C 
BRANCH  14  15
ATOM     15  C   UNL     1       0.022  -3.159  -4.734  0.00  0.00    +0.034 A 
ATOM     16  C   UNL     1       1.165  -3.706  -5.344  0.00  0.00    +0.085 A 
ATOM     17  N   UNL     1       0.772  -4.549  -6.256  0.00  0.00    -0.083 NA
ATOM     18  O   UNL     1      -0.644  -4.564  -6.255  0.00  0.00    -0.359 OA
ATOM     19  C   UNL     1      -1.064  -3.708  -5.311  0.00  0.00    +0.139 A 
ATOM     20  C   UNL     1      -2.499  -3.412  -4.960  0.00  0.00    +0.089 C 
ATOM     21  C   UNL     1       2.595  -3.374  -5.002  0.00  0.00    +0.069 C 
ENDBRANCH  14  15
ENDBRANCH  12  14
ENDBRANCH   4  12
TORSDOF 3
