REMARK  Name = ZINC63062046
REMARK  4 active torsions:
REMARK  status: ('A' for Active; 'I' for Inactive)
REMARK    1  A    between atoms: C_1  and  C_2
REMARK    2  A    between atoms: C_7  and  O_8
REMARK    3  A    between atoms: O_8  and  C_9
REMARK    4  A    between atoms: C_12  and  C_15
REMARK                            x       y       z     vdW  Elec       q    Type
REMARK                         _______ _______ _______ _____ _____    ______ ____
ROOT
ATOM      1  C   UNL     1      -0.059  -0.756   3.524  0.00  0.00    +0.220 A 
ATOM      2  C   UNL     1      -0.171  -0.098   4.745  0.00  0.00    +0.068 A 
ATOM      3  C   UNL     1      -0.256  -0.840   5.905  0.00  0.00    +0.018 A 
ATOM      4  C   UNL     1      -0.225  -2.239   5.806  0.00  0.00    +0.030 A 
ATOM      5  C   UNL     1      -0.111  -2.824   4.545  0.00  0.00    +0.125 A 
ATOM      6  N   UNL     1      -0.038  -2.079   3.462  0.00  0.00    -0.220 NA
ENDROOT
BRANCH   4   7
ATOM      7  C   UNL     1      -0.312  -3.079   7.018  0.00  0.00    +0.096 C 
ATOM      8  N   UNL     1      -0.282  -4.407   6.912  0.00  0.00    -0.387 N 
ATOM      9  N   UNL     1      -0.421  -2.509   8.217  0.00  0.00    -0.345 N 
ATOM     10  H   UNL     1      -0.203  -4.822   6.038  0.00  0.00    +0.157 HD
ATOM     11  H   UNL     1      -0.443  -1.542   8.294  0.00  0.00    +0.144 HD
ATOM     12  H   UNL     1      -0.478  -3.060   9.013  0.00  0.00    +0.144 HD
ATOM     13  H   UNL     1      -0.340  -4.958   7.707  0.00  0.00    +0.157 HD
ENDBRANCH   4   7
BRANCH   1  14
ATOM     14  O   UNL     1       0.025  -0.033   2.381  0.00  0.00    -0.438 OA
BRANCH  14  21
ATOM     15  C   UNL     1       2.527  -0.941   1.437  0.00  0.00    +0.047 C 
ATOM     16  C   UNL     1       1.242  -1.176   0.686  0.00  0.00    -0.007 A 
ATOM     17  C   UNL     1       1.256  -1.864  -0.512  0.00  0.00    +0.022 A 
ATOM     18  C   UNL     1       0.076  -2.079  -1.202  0.00  0.00    +0.018 A 
ATOM     19  C   UNL     1      -1.121  -1.606  -0.693  0.00  0.00    +0.019 A 
ATOM     20  C   UNL     1      -1.140  -0.918   0.504  0.00  0.00    +0.047 A 
ATOM     21  C   UNL     1       0.042  -0.706   1.200  0.00  0.00    +0.133 A 
ATOM     22 BR   UNL     1       0.100  -3.021  -2.841  0.00  0.00    -0.050 Br
ENDBRANCH  14  21
ENDBRANCH   1  14
TORSDOF 3
