REMARK  Name = ZINC23029556
REMARK  7 active torsions:
REMARK  status: ('A' for Active; 'I' for Inactive)
REMARK    1  A    between atoms: C_1  and  C_2
REMARK    2  A    between atoms: C_2  and  C_4
REMARK    3  A    between atoms: C_2  and  N_15
REMARK    4  A    between atoms: N_6  and  C_7
REMARK    5  A    between atoms: C_8  and  C_12
REMARK    6  A    between atoms: N_18  and  S_21
REMARK    7  A    between atoms: S_21  and  C_24
REMARK                            x       y       z     vdW  Elec       q    Type
REMARK                         _______ _______ _______ _____ _____    ______ ____
ROOT
ATOM      1  C   UNL     1      -2.765  -0.138   1.149  0.00  0.00    -0.004 C 
ATOM      2  C   UNL     1      -2.482   0.853   0.018  0.00  0.00    +0.017 C 
ENDROOT
BRANCH   2   3
ATOM      3  N   UNL     1      -3.535   1.877  -0.011  0.00  0.00    +0.389 N 
ATOM      4  C   UNL     1      -3.345   2.858   1.066  0.00  0.00    -0.060 C 
ATOM      5  C   UNL     1      -4.349   4.002   0.893  0.00  0.00    +0.091 C 
ATOM      6  N   UNL     1      -5.701   3.429   0.805  0.00  0.00    -0.180 NA
ATOM      7  C   UNL     1      -5.935   2.342  -0.158  0.00  0.00    +0.091 C 
ATOM      8  C   UNL     1      -4.868   1.263   0.056  0.00  0.00    -0.060 C 
ATOM      9  H   UNL     1      -3.461   2.413  -0.968  0.00  0.00    -0.081 HD
BRANCH   6  10
ATOM     10  S   UNL     1      -6.927   3.991   1.766  0.00  0.00    +0.067 S 
ATOM     11  O   UNL     1      -6.577   5.318   2.135  0.00  0.00    -0.152 OA
ATOM     12  O   UNL     1      -8.142   3.681   1.097  0.00  0.00    -0.152 OA
BRANCH  10  13
ATOM     13  C   UNL     1      -6.909   3.036   3.247  0.00  0.00    +0.143 A 
ATOM     14  C   UNL     1      -6.235   3.263   4.400  0.00  0.00    +0.036 A 
ATOM     15  C   UNL     1      -6.376   2.369   5.446  0.00  0.00    +0.010 A 
ATOM     16  C   UNL     1      -7.176   1.287   5.282  0.00  0.00    +0.047 A 
ATOM     17  S   UNL     1      -7.768   1.515   3.613  0.00  0.00    -0.077 S 
ENDBRANCH  10  13
ENDBRANCH   6  10
ENDBRANCH   2   3
BRANCH   2  18
ATOM     18  C   UNL     1      -2.458   0.119  -1.298  0.00  0.00    +0.204 C 
ATOM     19  O   UNL     1      -3.390   0.223  -2.067  0.00  0.00    -0.277 OA
ATOM     20  N   UNL     1      -1.402  -0.653  -1.620  0.00  0.00    -0.281 N 
ATOM     21  H   UNL     1      -0.554  -0.744  -0.924  0.00  0.00    +0.155 HD
BRANCH  20  22
ATOM     22  C   UNL     1      -1.382  -1.332  -2.829  0.00  0.00    +0.084 A 
ATOM     23  C   UNL     1      -0.393  -2.167  -3.334  0.00  0.00    +0.065 A 
ATOM     24  C   UNL     1      -0.637  -2.753  -4.630  0.00  0.00    +0.022 A 
ATOM     25  C   UNL     1      -1.793  -2.434  -5.241  0.00  0.00    +0.048 A 
ATOM     26  S   UNL     1      -2.582  -1.341  -4.077  0.00  0.00    -0.081 S 
BRANCH  23  27
ATOM     27  C   UNL     1       0.838  -2.442  -2.585  0.00  0.00    +0.244 C 
ATOM     28  O   UNL     1       1.012  -1.935  -1.493  0.00  0.00    -0.270 OA
ATOM     29  N   UNL     1       1.776  -3.257  -3.107  0.00  0.00    -0.325 N 
ATOM     30  H   UNL     1       2.699  -3.464  -2.546  0.00  0.00    +0.145 HD
ATOM     31  H   UNL     1       1.619  -3.716  -4.095  0.00  0.00    +0.145 HD
ENDBRANCH  23  27
ENDBRANCH  20  22
ENDBRANCH   2  18
TORSDOF 6
