REMARK  Name = ZINC09409353
REMARK  13 active torsions:
REMARK  status: ('A' for Active; 'I' for Inactive)
REMARK    1  A    between atoms: C_1  and  C_2
REMARK    2  A    between atoms: C_5  and  N_8
REMARK    3  A    between atoms: C_9  and  C_34
REMARK    4  A    between atoms: C_10  and  C_31
REMARK    5  A    between atoms: C_15  and  O_17
REMARK    6  A    between atoms: O_17  and  C_18
REMARK    7  A    between atoms: C_18  and  C_19
REMARK    8  A    between atoms: C_19  and  C_21
REMARK    9  A    between atoms: C_19  and  O_30
REMARK   10  A    between atoms: C_21  and  N_62
REMARK   11  A    between atoms: C_22  and  C_23
REMARK   12  A    between atoms: C_22  and  N_62
REMARK   13  A    between atoms: C_31  and  C_33
REMARK                            x       y       z     vdW  Elec       q    Type
REMARK                         _______ _______ _______ _____ _____    ______ ____
ROOT
ATOM      1  N   UNL     1       2.895  -4.593  -5.566  0.00  0.00    -0.313 N 
ATOM      2  C   UNL     1       2.568  -5.872  -5.271  0.00  0.00    +0.032 A 
ATOM      3  C   UNL     1       1.934  -5.915  -4.047  0.00  0.00    +0.046 A 
ATOM      4  C   UNL     1       1.875  -4.522  -3.562  0.00  0.00    +0.014 A 
ATOM      5  C   UNL     1       2.491  -3.742  -4.552  0.00  0.00    +0.055 A 
ATOM      6  C   UNL     1       2.589  -2.366  -4.375  0.00  0.00    +0.030 A 
ATOM      7  C   UNL     1       2.078  -1.779  -3.239  0.00  0.00    +0.048 A 
ATOM      8  C   UNL     1       1.473  -2.553  -2.254  0.00  0.00    +0.121 A 
ATOM      9  C   UNL     1       1.367  -3.922  -2.413  0.00  0.00    +0.056 A 
ATOM     10  C   UNL     1       2.854  -7.067  -6.145  0.00  0.00    +0.064 C 
ENDROOT
BRANCH   1  15
ATOM     11  C   UNL     1       5.554  -2.946 -10.301  0.00  0.00    +0.044 C 
ATOM     12  C   UNL     1       4.848  -3.383  -9.043  0.00  0.00    -0.050 A 
ATOM     13  C   UNL     1       3.581  -3.933  -9.119  0.00  0.00    +0.005 A 
ATOM     14  C   UNL     1       2.931  -4.334  -7.968  0.00  0.00    +0.026 A 
ATOM     15  C   UNL     1       3.551  -4.186  -6.735  0.00  0.00    +0.047 A 
ATOM     16  C   UNL     1       4.821  -3.629  -6.662  0.00  0.00    +0.026 A 
ATOM     17  C   UNL     1       5.468  -3.234  -7.816  0.00  0.00    +0.005 A 
ENDBRANCH   1  15
BRANCH   3  18
ATOM     18  C   UNL     1       1.438  -7.067  -3.387  0.00  0.00    +0.162 C 
ATOM     19  O   UNL     1       2.156  -7.690  -2.631  0.00  0.00    -0.292 OA
ATOM     20  C   UNL     1       0.020  -7.518  -3.623  0.00  0.00    +0.091 C 
ENDBRANCH   3  18
BRANCH   8  21
ATOM     21  O   UNL     1       0.978  -1.960  -1.134  0.00  0.00    -0.489 OA
BRANCH  21  22
ATOM     22  C   UNL     1       1.121  -0.542  -1.034  0.00  0.00    +0.258 C 
BRANCH  22  23
ATOM     23  C   UNL     1       0.510  -0.060   0.284  0.00  0.00    +0.135 C 
BRANCH  23  24
ATOM     24  O   UNL     1       1.257  -0.594   1.379  0.00  0.00    -0.390 OA
ATOM     25  H   UNL     1       2.188  -0.333   1.384  0.00  0.00    +0.210 HD
ENDBRANCH  23  24
BRANCH  23  26
ATOM     26  C   UNL     1       0.550   1.468   0.336  0.00  0.00    -0.047 C 
BRANCH  26  27
ATOM     27  N   UNL     1      -0.041   1.925   1.608  0.00  0.00    +0.383 N 
ATOM     28  H   UNL     1       0.498   1.535   2.390  0.00  0.00    -0.085 HD
ATOM     29  H   UNL     1      -1.013   1.599   1.666  0.00  0.00    -0.085 HD
BRANCH  27  30
ATOM     30  C   UNL     1      -0.015   3.398   1.685  0.00  0.00    -0.047 C 
BRANCH  30  31
ATOM     31  C   UNL     1      -0.623   3.834   2.993  0.00  0.00    -0.064 A 
ATOM     32  C   UNL     1      -1.980   4.085   3.074  0.00  0.00    +0.003 A 
ATOM     33  C   UNL     1      -2.540   4.480   4.275  0.00  0.00    +0.020 A 
ATOM     34  C   UNL     1      -1.740   4.635   5.393  0.00  0.00    +0.041 A 
ATOM     35  C   UNL     1      -0.381   4.388   5.310  0.00  0.00    +0.020 A 
ATOM     36  C   UNL     1       0.177   3.988   4.110  0.00  0.00    +0.003 A 
ATOM     37 CL   UNL     1      -2.440   5.137   6.900  0.00  0.00    -0.084 Cl
ENDBRANCH  30  31
ENDBRANCH  27  30
ENDBRANCH  26  27
ENDBRANCH  23  26
ENDBRANCH  22  23
ENDBRANCH  21  22
ENDBRANCH   8  21
TORSDOF 10
