REMARK  Name = ZINC44672328
REMARK  12 active torsions:
REMARK  status: ('A' for Active; 'I' for Inactive)
REMARK    1  A    between atoms: C_1  and  C_2
REMARK    2  A    between atoms: C_4  and  O_43
REMARK    3  A    between atoms: C_6  and  N_42
REMARK    4  A    between atoms: C_9  and  O_12
REMARK    5  A    between atoms: O_12  and  C_13
REMARK    6  A    between atoms: C_16  and  C_38
REMARK    7  A    between atoms: C_16  and  O_41
REMARK    8  A    between atoms: C_20  and  O_37
REMARK    9  A    between atoms: C_23  and  O_24
REMARK   10  A    between atoms: C_31  and  O_35
REMARK   11  A    between atoms: O_35  and  C_36
REMARK   12  A    between atoms: C_38  and  C_40
REMARK                            x       y       z     vdW  Elec       q    Type
REMARK                         _______ _______ _______ _____ _____    ______ ____
ROOT
ATOM      1  C   UNL     1       2.891  -1.839   2.280  0.00  0.00    +0.158 C 
ATOM      2  C   UNL     1       3.476  -1.598   3.670  0.00  0.00    +0.079 C 
ATOM      3  C   UNL     1       4.987  -1.376   3.525  0.00  0.00    +0.130 C 
ATOM      4  C   UNL     1       5.631  -2.703   3.128  0.00  0.00    +0.082 C 
ATOM      5  C   UNL     1       4.921  -3.304   1.942  0.00  0.00    +0.007 A 
ATOM      6  C   UNL     1       3.664  -2.912   1.557  0.00  0.00    +0.030 A 
ATOM      7  C   UNL     1       3.050  -3.512   0.450  0.00  0.00    +0.134 A 
ATOM      8  C   UNL     1       3.706  -4.508  -0.270  0.00  0.00    +0.078 A 
ATOM      9  C   UNL     1       4.999  -4.909   0.124  0.00  0.00    +0.078 A 
ATOM     10  C   UNL     1       5.595  -4.303   1.226  0.00  0.00    +0.132 A 
ATOM     11  C   UNL     1       5.706  -5.959  -0.628  0.00  0.00    +0.198 C 
ATOM     12  O   UNL     1       6.821  -6.306  -0.288  0.00  0.00    -0.286 OA
ATOM     13  C   UNL     1       5.058  -6.591  -1.797  0.00  0.00    +0.037 A 
ATOM     14  C   UNL     1       5.719  -7.583  -2.514  0.00  0.00    +0.012 A 
ATOM     15  C   UNL     1       5.107  -8.171  -3.609  0.00  0.00    +0.004 A 
ATOM     16  C   UNL     1       3.842  -7.782  -3.999  0.00  0.00    +0.046 A 
ATOM     17  C   UNL     1       3.163  -6.791  -3.296  0.00  0.00    +0.132 A 
ATOM     18  C   UNL     1       3.768  -6.189  -2.189  0.00  0.00    +0.075 A 
ATOM     19  C   UNL     1       3.060  -5.139  -1.434  0.00  0.00    +0.202 C 
ATOM     20  O   UNL     1       1.944  -4.793  -1.773  0.00  0.00    -0.286 OA
ENDROOT
BRANCH   3  21
ATOM     21  C   UNL     1       5.559  -0.906   4.837  0.00  0.00    +0.162 C 
ATOM     22  O   UNL     1       5.051  -1.253   5.876  0.00  0.00    -0.295 OA
ATOM     23  C   UNL     1       6.767  -0.004   4.853  0.00  0.00    +0.089 C 
ENDBRANCH   3  21
BRANCH  10  24
ATOM     24  O   UNL     1       6.838  -4.684   1.612  0.00  0.00    -0.506 OA
ATOM     25  H   UNL     1       6.847  -5.409   2.251  0.00  0.00    +0.292 HD
ENDBRANCH  10  24
BRANCH  17  26
ATOM     26  O   UNL     1       1.920  -6.412  -3.683  0.00  0.00    -0.494 OA
ATOM     27  C   UNL     1       1.366  -7.072  -4.824  0.00  0.00    +0.277 C 
ENDBRANCH  17  26
BRANCH   7  28
ATOM     28  O   UNL     1       1.807  -3.120   0.076  0.00  0.00    -0.506 OA
ATOM     29  H   UNL     1       1.798  -2.440  -0.611  0.00  0.00    +0.292 HD
ENDBRANCH   7  28
BRANCH   3  30
ATOM     30  O   UNL     1       5.235  -0.398   2.513  0.00  0.00    -0.381 OA
ATOM     31  H   UNL     1       6.172  -0.210   2.369  0.00  0.00    +0.211 HD
ENDBRANCH   3  30
BRANCH   1  32
ATOM     32  O   UNL     1       1.527  -2.246   2.408  0.00  0.00    -0.343 OA
BRANCH  32  38
ATOM     33  C   UNL     1      -0.004   1.485   4.905  0.00  0.00    +0.040 C 
ATOM     34  C   UNL     1      -0.203   0.725   3.592  0.00  0.00    +0.145 C 
ATOM     35  C   UNL     1      -1.652   0.240   3.498  0.00  0.00    +0.129 C 
ATOM     36  C   UNL     1      -1.828  -0.570   2.210  0.00  0.00    -0.039 C 
ATOM     37  C   UNL     1      -0.826  -1.729   2.208  0.00  0.00    +0.048 C 
ATOM     38  C   UNL     1       0.591  -1.168   2.353  0.00  0.00    +0.250 C 
ATOM     39  O   UNL     1       0.678  -0.399   3.554  0.00  0.00    -0.346 OA
BRANCH  36  40
ATOM     40  N   UNL     1      -3.196  -1.101   2.147  0.00  0.00    +0.382 N 
ATOM     41  H   UNL     1      -3.854  -0.337   2.154  0.00  0.00    -0.090 HD
ATOM     42  H   UNL     1      -3.311  -1.635   1.298  0.00  0.00    -0.090 HD
ATOM     43  H   UNL     1      -3.363  -1.697   2.944  0.00  0.00    -0.090 HD
ENDBRANCH  36  40
BRANCH  35  44
ATOM     44  O   UNL     1      -1.955  -0.582   4.626  0.00  0.00    -0.391 OA
ATOM     45  H   UNL     1      -1.860  -0.133   5.477  0.00  0.00    +0.210 HD
ENDBRANCH  35  44
ENDBRANCH  32  38
ENDBRANCH   1  32
TORSDOF 9
