REMARK  Name = ZINC09429658
REMARK  7 active torsions:
REMARK  status: ('A' for Active; 'I' for Inactive)
REMARK    1  A    between atoms: C_1  and  C_2
REMARK    2  A    between atoms: C_7  and  N_8
REMARK    3  A    between atoms: C_9  and  C_11
REMARK    4  A    between atoms: C_21  and  S_24
REMARK    5  A    between atoms: S_24  and  C_27
REMARK    6  A    between atoms: C_30  and  O_33
REMARK    7  A    between atoms: O_33  and  C_34
REMARK                            x       y       z     vdW  Elec       q    Type
REMARK                         _______ _______ _______ _____ _____    ______ ____
ROOT
ATOM      1  C   UNL     1      -0.165   0.040   4.858  0.00  0.00    +0.039 A 
ATOM      2  C   UNL     1      -0.188   1.439   4.859  0.00  0.00    +0.014 A 
ATOM      3  C   UNL     1      -0.288   2.127   6.033  0.00  0.00    +0.014 A 
ATOM      4  C   UNL     1      -0.368   1.434   7.242  0.00  0.00    +0.047 A 
ATOM      5  C   UNL     1      -0.345   0.029   7.255  0.00  0.00    +0.054 A 
ATOM      6  C   UNL     1      -0.249  -0.665   6.054  0.00  0.00    +0.039 A 
ATOM      7  N   UNL     1      -0.423  -0.642   8.458  0.00  0.00    -0.320 N 
ATOM      8  H   UNL     1      -0.407  -1.612   8.461  0.00  0.00    +0.169 HD
ATOM      9  C   UNL     1      -0.522   0.024   9.637  0.00  0.00    +0.278 A 
ATOM     10  O   UNL     1      -0.595  -0.687  10.783  0.00  0.00    -0.266 OA
ATOM     11  C   UNL     1      -0.549   1.384   9.705  0.00  0.00    +0.204 A 
ATOM     12  C   UNL     1      -0.476   2.150   8.528  0.00  0.00    +0.218 A 
ATOM     13  O   UNL     1      -0.500   3.370   8.569  0.00  0.00    -0.285 OA
ENDROOT
BRANCH   1  15
ATOM     14  N   UNL     1       0.026  -0.015   2.417  0.00  0.00    -0.281 N 
ATOM     15  C   UNL     1      -0.056  -0.694   3.578  0.00  0.00    +0.248 C 
ATOM     16  O   UNL     1      -0.040  -1.909   3.573  0.00  0.00    -0.270 OA
ATOM     17  H   UNL     1       0.079   0.954   2.424  0.00  0.00    +0.155 HD
BRANCH  14  24
ATOM     18  C   UNL     1      -1.265   1.184   0.182  0.00  0.00    +0.045 C 
ATOM     19  C   UNL     1      -0.585  -0.158   0.085  0.00  0.00    -0.029 A 
ATOM     20  C   UNL     1      -0.571  -0.840  -1.116  0.00  0.00    +0.006 A 
ATOM     21  C   UNL     1       0.053  -2.070  -1.207  0.00  0.00    +0.020 A 
ATOM     22  C   UNL     1       0.665  -2.623  -0.095  0.00  0.00    +0.043 A 
ATOM     23  C   UNL     1       0.654  -1.945   1.109  0.00  0.00    +0.043 A 
ATOM     24  C   UNL     1       0.033  -0.706   1.201  0.00  0.00    +0.038 A 
ATOM     25 CL   UNL     1       1.446  -4.168  -0.214  0.00  0.00    -0.083 Cl
ENDBRANCH  14  24
ENDBRANCH   1  15
BRANCH  11  26
ATOM     26  S   UNL     1      -0.679   2.185  11.269  0.00  0.00    +0.034 S 
ATOM     27  O   UNL     1      -1.714   3.151  11.146  0.00  0.00    -0.164 OA
ATOM     28  O   UNL     1      -0.708   1.158  12.250  0.00  0.00    -0.164 OA
BRANCH  26  29
ATOM     29  C   UNL     1       0.817   3.081  11.521  0.00  0.00    +0.094 A 
ATOM     30  C   UNL     1       1.890   2.471  12.146  0.00  0.00    +0.031 A 
ATOM     31  C   UNL     1       3.064   3.171  12.345  0.00  0.00    +0.047 A 
ATOM     32  C   UNL     1       3.167   4.487  11.917  0.00  0.00    +0.120 A 
ATOM     33  C   UNL     1       2.089   5.096  11.290  0.00  0.00    +0.047 A 
ATOM     34  C   UNL     1       0.919   4.390  11.089  0.00  0.00    +0.031 A 
BRANCH  32  35
ATOM     35  O   UNL     1       4.320   5.178  12.112  0.00  0.00    -0.495 OA
ATOM     36  C   UNL     1       4.355   6.528  11.646  0.00  0.00    +0.277 C 
ENDBRANCH  32  35
ENDBRANCH  26  29
ENDBRANCH  11  26
TORSDOF 5
