REMARK  Name = ZINC13001267
REMARK  8 active torsions:
REMARK  status: ('A' for Active; 'I' for Inactive)
REMARK    1  A    between atoms: C_1  and  C_2
REMARK    2  A    between atoms: C_2  and  C_4
REMARK    3  A    between atoms: C_2  and  N_57
REMARK    4  A    between atoms: N_9  and  C_10
REMARK    5  A    between atoms: C_15  and  N_57
REMARK    6  A    between atoms: C_16  and  C_17
REMARK    7  A    between atoms: C_16  and  N_57
REMARK    8  A    between atoms: N_19  and  C_20
REMARK                            x       y       z     vdW  Elec       q    Type
REMARK                         _______ _______ _______ _____ _____    ______ ____
ROOT
ATOM      1  C   UNL     1       8.571   4.205   1.892  0.00  0.00    -0.094 C 
ATOM      2  N   UNL     1       9.027   2.801   1.800  0.00  0.00    +0.391 N 
ATOM      3  H   UNL     1       8.908   2.352   2.716  0.00  0.00    -0.080 HD
ENDROOT
BRANCH   2   5
ATOM      4  C   UNL     1       8.311   2.758  -0.566  0.00  0.00    -0.004 C 
ATOM      5  C   UNL     1       8.220   2.072   0.799  0.00  0.00    +0.017 C 
BRANCH   5   6
ATOM      6  C   UNL     1       6.784   2.048   1.254  0.00  0.00    +0.207 C 
ATOM      7  O   UNL     1       6.466   2.595   2.289  0.00  0.00    -0.277 OA
ATOM      8  N   UNL     1       5.852   1.419   0.511  0.00  0.00    -0.242 N 
ATOM      9  C   UNL     1       4.567   1.397   0.918  0.00  0.00    +0.306 C 
ATOM     10  O   UNL     1       4.249   1.945   1.955  0.00  0.00    -0.252 OA
ATOM     11  N   UNL     1       3.635   0.768   0.175  0.00  0.00    -0.296 N 
ATOM     12  H   UNL     1       6.106   0.982  -0.317  0.00  0.00    +0.159 HD
ATOM     13  H   UNL     1       3.889   0.331  -0.653  0.00  0.00    +0.151 HD
BRANCH  11  14
ATOM     14  C   UNL     1       2.239   0.745   0.617  0.00  0.00    +0.074 C 
ATOM     15  C   UNL     1       1.455   1.941   0.023  0.00  0.00    +0.022 C 
ATOM     16  C   UNL     1      -0.016   1.476   0.040  0.00  0.00    +0.002 C 
ATOM     17  C   UNL     1       0.010  -0.063   0.041  0.00  0.00    +0.002 C 
ATOM     18  C   UNL     1       1.496  -0.478   0.025  0.00  0.00    +0.022 C 
ENDBRANCH  11  14
ENDBRANCH   5   6
ENDBRANCH   2   5
BRANCH   2  19
ATOM     19  C   UNL     1      10.456   2.758   1.426  0.00  0.00    +0.020 C 
BRANCH  19  20
ATOM     20  C   UNL     1      11.274   3.311   2.564  0.00  0.00    +0.201 C 
ATOM     21  O   UNL     1      10.723   3.712   3.568  0.00  0.00    -0.278 OA
ATOM     22  N   UNL     1      12.617   3.359   2.468  0.00  0.00    -0.287 N 
ATOM     23  H   UNL     1      13.062   2.979   1.694  0.00  0.00    +0.155 HD
BRANCH  22  24
ATOM     24  C   UNL     1      13.369   3.957   3.481  0.00  0.00    +0.041 A 
ATOM     25  C   UNL     1      12.967   3.859   4.796  0.00  0.00    +0.024 A 
ATOM     26  C   UNL     1      13.709   4.451   5.813  0.00  0.00    +0.002 A 
ATOM     27  C   UNL     1      14.850   5.142   5.540  0.00  0.00    +0.008 A 
ATOM     28  C   UNL     1      15.295   5.266   4.213  0.00  0.00    -0.016 A 
ATOM     29  C   UNL     1      14.551   4.663   3.169  0.00  0.00    +0.003 A 
ATOM     30  C   UNL     1      14.994   4.790   1.843  0.00  0.00    +0.010 A 
ATOM     31  C   UNL     1      16.136   5.483   1.579  0.00  0.00    +0.001 A 
ATOM     32  C   UNL     1      16.871   6.072   2.605  0.00  0.00    +0.001 A 
ATOM     33  C   UNL     1      16.469   5.973   3.901  0.00  0.00    +0.008 A 
ENDBRANCH  22  24
ENDBRANCH  19  20
ENDBRANCH   2  19
TORSDOF 6
