REMARK  Name = ZINC07977729
REMARK  9 active torsions:
REMARK  status: ('A' for Active; 'I' for Inactive)
REMARK    1  A    between atoms: C_4  and  C_7
REMARK    2  A    between atoms: N_9  and  N_10
REMARK    3  A    between atoms: C_11  and  C_13
REMARK    4  A    between atoms: C_13  and  S_14
REMARK    5  A    between atoms: S_14  and  C_15
REMARK    6  A    between atoms: C_18  and  C_21
REMARK    7  A    between atoms: N_19  and  N_20
REMARK    8  A    between atoms: C_21  and  O_22
REMARK    9  A    between atoms: O_22  and  C_23
REMARK                            x       y       z     vdW  Elec       q    Type
REMARK                         _______ _______ _______ _____ _____    ______ ____
ROOT
ATOM      1  C   UNL     1       2.647  -4.491  -0.047  0.00  0.00    +0.209 A 
ATOM      2  N   UNL     1       1.486  -5.103  -0.034  0.00  0.00    -0.121 NA
ATOM      3  N   UNL     1       1.663  -6.376  -0.047  0.00  0.00    -0.128 NA
ATOM      4  C   UNL     1       2.937  -6.650  -0.061  0.00  0.00    +0.189 A 
ATOM      5  N   UNL     1       3.609  -5.459  -0.062  0.00  0.00    -0.225 N 
ENDROOT
BRANCH   5   6
ATOM      6  N   UNL     1       4.963  -5.276  -0.074  0.00  0.00    -0.295 N 
ATOM      7  H   UNL     1       5.331  -5.232   0.864  0.00  0.00    +0.163 HD
ATOM      8  H   UNL     1       5.420  -6.000  -0.608  0.00  0.00    +0.163 HD
ENDBRANCH   5   6
BRANCH   1   9
ATOM      9  S   UNL     1       2.913  -2.749  -0.041  0.00  0.00    -0.075 S 
BRANCH   9  10
ATOM     10  C   UNL     1       1.199  -2.169  -0.021  0.00  0.00    +0.174 C 
BRANCH  10  12
ATOM     11  N   UNL     1       0.002  -0.004   0.002  0.00  0.00    -0.233 N 
ATOM     12  C   UNL     1       1.178  -0.662  -0.013  0.00  0.00    +0.239 C 
ATOM     13  O   UNL     1       2.220  -0.041  -0.019  0.00  0.00    -0.273 OA
ATOM     14  H   UNL     1      -0.831  -0.500   0.007  0.00  0.00    +0.173 HD
BRANCH  11  17
ATOM     15  C   UNL     1      -1.193   2.055   0.019  0.00  0.00    +0.260 C 
ATOM     16  O   UNL     1      -2.237   1.433   0.020  0.00  0.00    -0.269 OA
ATOM     17  N   UNL     1      -0.017   1.397   0.010  0.00  0.00    -0.230 N 
ATOM     18  H   UNL     1       0.816   1.893   0.004  0.00  0.00    +0.173 HD
BRANCH  15  22
ATOM     19  C   UNL     1      -1.251   6.302   0.042  0.00  0.00    +0.000 A 
ATOM     20  C   UNL     1      -2.441   5.597   0.044  0.00  0.00    +0.001 A 
ATOM     21  C   UNL     1      -2.430   4.218   0.036  0.00  0.00    +0.013 A 
ATOM     22  C   UNL     1      -1.213   3.533   0.027  0.00  0.00    +0.038 A 
ATOM     23  C   UNL     1      -0.016   4.250   0.031  0.00  0.00    +0.013 A 
ATOM     24  C   UNL     1      -0.042   5.630   0.033  0.00  0.00    +0.001 A 
ENDBRANCH  15  22
ENDBRANCH  11  17
ENDBRANCH  10  12
ENDBRANCH   9  10
ENDBRANCH   1   9
BRANCH   4  25
ATOM     25  C   UNL     1       3.554  -8.024  -0.074  0.00  0.00    +0.306 C 
BRANCH  25  26
ATOM     26  O   UNL     1       3.763  -8.465   1.269  0.00  0.00    -0.481 OA
BRANCH  26  27
ATOM     27  C   UNL     1       4.317  -9.696   1.436  0.00  0.00    +0.156 A 
ATOM     28  C   UNL     1       4.647 -10.464   0.330  0.00  0.00    +0.048 A 
ATOM     29  C   UNL     1       5.215 -11.713   0.501  0.00  0.00    +0.004 A 
ATOM     30  C   UNL     1       5.444 -12.201   1.774  0.00  0.00    +0.003 A 
ATOM     31  C   UNL     1       5.112 -11.440   2.880  0.00  0.00    +0.042 A 
ATOM     32  C   UNL     1       4.548 -10.188   2.714  0.00  0.00    +0.165 A 
ATOM     33  F   UNL     1       4.222  -9.444   3.794  0.00  0.00    -0.202 F 
ENDBRANCH  26  27
ENDBRANCH  25  26
ENDBRANCH   4  25
TORSDOF 9
