REMARK  Name = ZINC40322690
REMARK  8 active torsions:
REMARK  status: ('A' for Active; 'I' for Inactive)
REMARK    1  A    between atoms: C_1  and  C_2
REMARK    2  A    between atoms: C_5  and  S_8
REMARK    3  A    between atoms: S_8  and  C_11
REMARK    4  A    between atoms: C_14  and  C_16
REMARK    5  A    between atoms: N_18  and  C_19
REMARK    6  A    between atoms: C_19  and  C_20
REMARK    7  A    between atoms: C_20  and  C_22
REMARK    8  A    between atoms: C_20  and  N_29
REMARK                            x       y       z     vdW  Elec       q    Type
REMARK                         _______ _______ _______ _____ _____    ______ ____
ROOT
ATOM      1  C   UNL     1       4.832  -5.754  -1.684  0.00  0.00    +0.279 C 
ATOM      2  O   UNL     1       5.884  -6.136  -1.207  0.00  0.00    -0.267 OA
ATOM      3  N   UNL     1       4.668  -5.729  -3.022  0.00  0.00    -0.310 N 
ATOM      4  H   UNL     1       3.830  -5.425  -3.402  0.00  0.00    +0.149 HD
ENDROOT
BRANCH   1   8
ATOM      5  C   UNL     1       1.796  -4.570  -0.125  0.00  0.00    +0.246 A 
ATOM      6  C   UNL     1       2.526  -4.815   0.986  0.00  0.00    +0.070 A 
ATOM      7  C   UNL     1       3.775  -5.296   0.561  0.00  0.00    +0.056 A 
ATOM      8  C   UNL     1       3.742  -5.321  -0.804  0.00  0.00    +0.192 A 
ATOM      9  O   UNL     1       2.530  -4.881  -1.201  0.00  0.00    -0.433 OA
BRANCH   5  10
ATOM     10  S   UNL     1       0.146  -3.951  -0.152  0.00  0.00    +0.058 S 
ATOM     11  O   UNL     1      -0.433  -4.282   1.103  0.00  0.00    -0.161 OA
ATOM     12  O   UNL     1      -0.423  -4.366  -1.386  0.00  0.00    -0.161 OA
BRANCH  10  17
ATOM     13  C   UNL     1       0.499   2.068  -0.353  0.00  0.00    +0.044 C 
ATOM     14  C   UNL     1       0.411   0.565  -0.302  0.00  0.00    -0.050 A 
ATOM     15  C   UNL     1       0.376  -0.165  -1.476  0.00  0.00    +0.005 A 
ATOM     16  C   UNL     1       0.295  -1.544  -1.430  0.00  0.00    +0.028 A 
ATOM     17  C   UNL     1       0.250  -2.193  -0.210  0.00  0.00    +0.097 A 
ATOM     18  C   UNL     1       0.286  -1.464   0.963  0.00  0.00    +0.028 A 
ATOM     19  C   UNL     1       0.370  -0.085   0.917  0.00  0.00    +0.005 A 
ENDBRANCH  10  17
ENDBRANCH   5  10
ENDBRANCH   1   8
BRANCH   3  20
ATOM     20  C   UNL     1       5.757  -6.162  -3.901  0.00  0.00    +0.094 C 
BRANCH  20  21
ATOM     21  C   UNL     1       5.274  -6.156  -5.353  0.00  0.00    -0.019 C 
BRANCH  21  22
ATOM     22  C   UNL     1       4.979  -4.741  -5.778  0.00  0.00    -0.041 A 
ATOM     23  C   UNL     1       3.691  -4.246  -5.688  0.00  0.00    +0.003 A 
ATOM     24  C   UNL     1       3.421  -2.948  -6.078  0.00  0.00    +0.000 A 
ATOM     25  C   UNL     1       4.438  -2.144  -6.559  0.00  0.00    +0.001 A 
ATOM     26  C   UNL     1       5.725  -2.638  -6.650  0.00  0.00    +0.020 A 
ATOM     27  C   UNL     1       5.998  -3.935  -6.254  0.00  0.00    +0.043 A 
ATOM     28 CL   UNL     1       7.616  -4.554  -6.361  0.00  0.00    -0.083 Cl
ENDBRANCH  21  22
BRANCH  21  29
ATOM     29  N   UNL     1       4.053  -6.966  -5.465  0.00  0.00    +0.385 N 
ATOM     30  C   UNL     1       4.315  -8.317  -4.955  0.00  0.00    -0.078 C 
ATOM     31  C   UNL     1       3.026  -9.140  -4.995  0.00  0.00    -0.019 C 
ATOM     32  C   UNL     1       2.526  -9.226  -6.440  0.00  0.00    -0.004 C 
ATOM     33  C   UNL     1       2.327  -7.810  -6.986  0.00  0.00    -0.019 C 
ATOM     34  C   UNL     1       3.642  -7.036  -6.872  0.00  0.00    -0.078 C 
ATOM     35  H   UNL     1       3.317  -6.540  -4.922  0.00  0.00    -0.081 HD
ENDBRANCH  21  29
ENDBRANCH  20  21
ENDBRANCH   3  20
TORSDOF 7
