REMARK  Name = ZINC04534215
REMARK  7 active torsions:
REMARK  status: ('A' for Active; 'I' for Inactive)
REMARK    1  A    between atoms: C_10  and  O_11
REMARK    2  A    between atoms: O_11  and  C_12
REMARK    3  A    between atoms: C_14  and  O_27
REMARK    4  A    between atoms: C_16  and  O_26
REMARK    5  A    between atoms: C_18  and  O_25
REMARK    6  A    between atoms: C_20  and  C_23
REMARK    7  A    between atoms: C_23  and  O_24
REMARK                            x       y       z     vdW  Elec       q    Type
REMARK                         _______ _______ _______ _____ _____    ______ ____
ROOT
ATOM      1  C   UNL     1       3.399   1.836  -1.302  0.00  0.00    +0.339 C 
ATOM      2  C   UNL     1       2.042   1.128  -1.262  0.00  0.00    +0.214 C 
ATOM      3  C   UNL     1       1.286   1.562  -0.002  0.00  0.00    +0.180 C 
ATOM      4  C   UNL     1       1.147   3.087  -0.004  0.00  0.00    +0.177 C 
ATOM      5  C   UNL     1       2.538   3.719  -0.093  0.00  0.00    +0.179 C 
ATOM      6  O   UNL     1       3.198   3.250  -1.270  0.00  0.00    -0.331 OA
ENDROOT
BRANCH   4   7
ATOM      7  O   UNL     1       0.364   3.494  -1.128  0.00  0.00    -0.386 OA
ATOM      8  H   UNL     1      -0.530   3.126  -1.139  0.00  0.00    +0.210 HD
ENDBRANCH   4   7
BRANCH   3   9
ATOM      9  O   UNL     1      -0.011   0.963   0.007  0.00  0.00    -0.386 OA
ATOM     10  H   UNL     1       0.002  -0.004   0.002  0.00  0.00    +0.210 HD
ENDBRANCH   3   9
BRANCH   2  11
ATOM     11  O   UNL     1       1.284   1.483  -2.420  0.00  0.00    -0.383 OA
ATOM     12  H   UNL     1       1.703   1.237  -3.255  0.00  0.00    +0.210 HD
ENDBRANCH   2  11
BRANCH   1  13
ATOM     13  O   UNL     1       4.087   1.479  -2.503  0.00  0.00    -0.459 OA
BRANCH  13  23
ATOM     14  C   UNL     1       8.595   2.079  -4.278  0.00  0.00    +0.027 A 
ATOM     15  C   UNL     1       8.434   1.429  -5.481  0.00  0.00    +0.019 A 
ATOM     16  C   UNL     1       7.212   0.866  -5.825  0.00  0.00    +0.037 A 
ATOM     17  C   UNL     1       6.142   0.943  -4.960  0.00  0.00    +0.068 A 
ATOM     18  C   UNL     1       6.292   1.592  -3.731  0.00  0.00    +0.061 A 
ATOM     19  C   UNL     1       7.530   2.165  -3.387  0.00  0.00    +0.052 A 
ATOM     20  N   UNL     1       7.387   2.721  -2.135  0.00  0.00    -0.358 N 
ATOM     21  H   UNL     1       8.087   3.182  -1.647  0.00  0.00    +0.165 HD
ATOM     22  C   UNL     1       6.104   2.526  -1.681  0.00  0.00    +0.130 A 
ATOM     23  C   UNL     1       5.393   1.853  -2.602  0.00  0.00    +0.150 A 
ATOM     24 CL   UNL     1       4.615   0.239  -5.394  0.00  0.00    -0.082 Cl
ATOM     25 BR   UNL     1       7.014  -0.012  -7.488  0.00  0.00    -0.049 Br
ENDBRANCH  13  23
ENDBRANCH   1  13
BRANCH   5  26
ATOM     26  C   UNL     1       2.404   5.242  -0.155  0.00  0.00    +0.190 C 
BRANCH  26  27
ATOM     27  O   UNL     1       3.703   5.836  -0.123  0.00  0.00    -0.392 OA
ATOM     28  H   UNL     1       3.695   6.803  -0.159  0.00  0.00    +0.210 HD
ENDBRANCH  26  27
ENDBRANCH   5  26
TORSDOF 7
