REMARK  Name = ZINC00716495
REMARK  7 active torsions:
REMARK  status: ('A' for Active; 'I' for Inactive)
REMARK    1  A    between atoms: C_1  and  C_2
REMARK    2  A    between atoms: C_2  and  C_34
REMARK    3  A    between atoms: C_6  and  C_22
REMARK    4  A    between atoms: C_8  and  C_20
REMARK    5  A    between atoms: C_9  and  N_19
REMARK    6  A    between atoms: N_10  and  C_11
REMARK    7  A    between atoms: C_16  and  C_17
REMARK                            x       y       z     vdW  Elec       q    Type
REMARK                         _______ _______ _______ _____ _____    ______ ____
ROOT
ATOM      1  C   UNL     1       0.597  -0.639  -3.546  0.00  0.00    +0.011 C 
ATOM      2  C   UNL     1       2.049  -1.094  -3.710  0.00  0.00    -0.023 C 
ATOM      3  C   UNL     1       2.460  -1.942  -2.505  0.00  0.00    +0.058 C 
ATOM      4  C   UNL     1       2.368  -1.115  -1.247  0.00  0.00    +0.025 C 
ATOM      5  C   UNL     1       2.578   0.218  -1.274  0.00  0.00    +0.025 C 
ATOM      6  C   UNL     1       2.489   1.043  -0.015  0.00  0.00    +0.097 C 
ATOM      7  C   UNL     1       2.582   0.178   1.208  0.00  0.00    +0.077 C 
ATOM      8  C   UNL     1       2.368  -1.161   1.138  0.00  0.00    +0.107 C 
ATOM      9  N   UNL     1       2.069  -1.751  -0.070  0.00  0.00    -0.259 N 
ATOM     10  C   UNL     1       2.882   0.880  -2.478  0.00  0.00    +0.162 C 
ATOM     11  O   UNL     1       3.080   2.078  -2.466  0.00  0.00    -0.292 OA
ATOM     12  C   UNL     1       2.968   0.130  -3.779  0.00  0.00    +0.086 C 
ATOM     13  C   UNL     1       2.188  -1.915  -4.994  0.00  0.00    +0.011 C 
ENDROOT
BRANCH   6  14
ATOM     14  C   UNL     1       1.176   1.782   0.000  0.00  0.00    -0.031 A 
ATOM     15  C   UNL     1      -0.013   1.076   0.008  0.00  0.00    +0.008 A 
ATOM     16  C   UNL     1      -1.220   1.749   0.017  0.00  0.00    +0.050 A 
ATOM     17  C   UNL     1      -1.241   3.134   0.029  0.00  0.00    +0.166 A 
ATOM     18  C   UNL     1      -0.044   3.846   0.022  0.00  0.00    +0.167 A 
ATOM     19  C   UNL     1       1.163   3.164   0.007  0.00  0.00    +0.054 A 
ATOM     20  O   UNL     1      -0.329   5.180   0.031  0.00  0.00    -0.453 OA
ATOM     21  C   UNL     1      -1.701   5.277   0.456  0.00  0.00    +0.466 C 
ATOM     22  O   UNL     1      -2.277   4.024   0.043  0.00  0.00    -0.453 OA
ENDBRANCH   6  14
BRANCH   9  23
ATOM     23  C   UNL     1       1.457  -3.004  -0.096  0.00  0.00    +0.057 A 
ATOM     24  C   UNL     1       0.073  -3.104  -0.099  0.00  0.00    +0.025 A 
ATOM     25  C   UNL     1      -0.530  -4.346  -0.124  0.00  0.00    +0.002 A 
ATOM     26  C   UNL     1       0.238  -5.499  -0.147  0.00  0.00    +0.001 A 
ATOM     27  C   UNL     1       1.614  -5.418  -0.145  0.00  0.00    +0.021 A 
ATOM     28  C   UNL     1       2.239  -4.169  -0.125  0.00  0.00    +0.073 A 
BRANCH  28  29
ATOM     29  C   UNL     1       3.668  -4.078  -0.129  0.00  0.00    +0.101 C 
ATOM     30  N   UNL     1       4.801  -4.006  -0.132  0.00  0.00    -0.191 NA
ENDBRANCH  28  29
ENDBRANCH   9  23
BRANCH   8  31
ATOM     31  N   UNL     1       2.450  -1.929   2.275  0.00  0.00    -0.345 N 
ATOM     32  H   UNL     1       2.660  -1.514   3.126  0.00  0.00    +0.144 HD
ATOM     33  H   UNL     1       2.297  -2.885   2.226  0.00  0.00    +0.144 HD
ENDBRANCH   8  31
BRANCH   7  34
ATOM     34  C   UNL     1       2.901   0.776   2.469  0.00  0.00    +0.099 C 
ATOM     35  N   UNL     1       3.154   1.250   3.470  0.00  0.00    -0.191 NA
ENDBRANCH   7  34
TORSDOF 5
