REMARK  Name = ZINC37574204
REMARK  4 active torsions:
REMARK  status: ('A' for Active; 'I' for Inactive)
REMARK    1  A    between atoms: C_3  and  S_9
REMARK    2  A    between atoms: S_9  and  N_12
REMARK    3  A    between atoms: N_12  and  C_13
REMARK    4  A    between atoms: C_15  and  N_17
REMARK                            x       y       z     vdW  Elec       q    Type
REMARK                         _______ _______ _______ _____ _____    ______ ____
ROOT
ATOM      1  S   UNL     1       4.008   2.352  -0.069  0.00  0.00    +0.060 S 
ATOM      2  O   UNL     1       4.997   1.883  -0.975  0.00  0.00    -0.153 OA
ATOM      3  O   UNL     1       3.523   3.688  -0.094  0.00  0.00    -0.153 OA
ENDROOT
BRANCH   1   6
ATOM      4  C   UNL     1       1.526  -0.529  -1.364  0.00  0.00    +0.017 A 
ATOM      5  C   UNL     1       2.625   0.295  -1.210  0.00  0.00    +0.031 A 
ATOM      6  C   UNL     1       2.606   1.304  -0.266  0.00  0.00    +0.119 A 
ATOM      7  C   UNL     1       1.486   1.490   0.525  0.00  0.00    +0.045 A 
ATOM      8  C   UNL     1       0.386   0.667   0.371  0.00  0.00    +0.032 A 
ATOM      9  C   UNL     1       0.406  -0.343  -0.575  0.00  0.00    +0.019 A 
ATOM     10 BR   UNL     1      -1.099  -1.469  -0.787  0.00  0.00    -0.050 Br
ATOM     11 BR   UNL     1       1.460   2.871   1.817  0.00  0.00    -0.048 Br
ENDBRANCH   1   6
BRANCH   1  12
ATOM     12  N   UNL     1       4.603   2.094   1.455  0.00  0.00    -0.187 NA
ATOM     13  H   UNL     1       4.585   2.809   2.111  0.00  0.00    +0.148 HD
BRANCH  12  14
ATOM     14  C   UNL     1       5.155   0.785   1.814  0.00  0.00    +0.073 C 
ATOM     15  C   UNL     1       4.388   0.082   2.946  0.00  0.00    +0.004 C 
ATOM     16  C   UNL     1       5.327   0.806   3.925  0.00  0.00    -0.072 C 
ATOM     17  C   UNL     1       6.350   0.864   2.779  0.00  0.00    +0.004 C 
BRANCH  16  18
ATOM     18  N   UNL     1       5.756  -0.029   5.055  0.00  0.00    +0.380 N 
ATOM     19  H   UNL     1       6.250  -0.838   4.707  0.00  0.00    -0.090 HD
ATOM     20  H   UNL     1       6.367   0.505   5.655  0.00  0.00    -0.090 HD
ATOM     21  H   UNL     1       4.947  -0.329   5.579  0.00  0.00    -0.090 HD
ENDBRANCH  16  18
ENDBRANCH  12  14
ENDBRANCH   1  12
TORSDOF 4
