REMARK  Name = ZINC61367600
REMARK  5 active torsions:
REMARK  status: ('A' for Active; 'I' for Inactive)
REMARK    1  A    between atoms: C_1  and  C_2
REMARK    2  A    between atoms: C_4  and  C_22
REMARK    3  A    between atoms: C_7  and  C_8
REMARK    4  A    between atoms: C_8  and  N_10
REMARK    5  A    between atoms: N_11  and  C_12
REMARK                            x       y       z     vdW  Elec       q    Type
REMARK                         _______ _______ _______ _____ _____    ______ ____
ROOT
ATOM      1  C   UNL     1      -0.612   1.430  -0.003  0.00  0.00    +0.044 C 
ATOM      2  C   UNL     1      -0.307  -0.046  -0.004  0.00  0.00    -0.036 A 
ATOM      3  C   UNL     1      -0.198  -0.746  -1.192  0.00  0.00    +0.025 A 
ATOM      4  C   UNL     1       0.083  -2.100  -1.162  0.00  0.00    +0.015 A 
ATOM      5  N   UNL     1       0.248  -2.739  -0.020  0.00  0.00    -0.347 N 
ATOM      6  C   UNL     1       0.155  -2.118   1.146  0.00  0.00    +0.107 A 
ATOM      7  C   UNL     1      -0.121  -0.741   1.197  0.00  0.00    +0.044 A 
ATOM      8  N   UNL     1       0.336  -2.828   2.320  0.00  0.00    -0.323 N 
ATOM      9  C   UNL     1       0.201  -2.861  -2.458  0.00  0.00    +0.063 C 
ATOM     10  H   UNL     1       0.348  -2.362   3.171  0.00  0.00    +0.148 HD
ATOM     11  H   UNL     1       0.444  -3.689  -0.034  0.00  0.00    +0.167 HD
ENDROOT
BRANCH   8  12
ATOM     12  C   UNL     1       0.509  -4.282   2.277  0.00  0.00    +0.103 C 
ATOM     13  C   UNL     1       1.274  -4.743   3.518  0.00  0.00    +0.027 C 
ATOM     14  C   UNL     1       1.303  -6.273   3.578  0.00  0.00    +0.007 C 
ATOM     15  C   UNL     1      -0.111  -6.779   3.904  0.00  0.00    +0.043 C 
ATOM     16  C   UNL     1      -1.079  -6.074   3.011  0.00  0.00    -0.005 A 
ATOM     17  C   UNL     1      -0.858  -4.959   2.259  0.00  0.00    -0.017 A 
ATOM     18  C   UNL     1      -1.931  -4.493   1.499  0.00  0.00    +0.013 A 
ATOM     19  C   UNL     1      -3.116  -5.143   1.531  0.00  0.00    +0.046 A 
ATOM     20  S   UNL     1      -2.772  -6.480   2.674  0.00  0.00    -0.101 S 
ENDBRANCH   8  12
BRANCH   7  21
ATOM     21  C   UNL     1      -0.221  -0.043   2.490  0.00  0.00    +0.080 C 
ATOM     22  S   UNL     1       1.150   0.748   3.143  0.00  0.00    -0.035 S 
BRANCH  21  23
ATOM     23  N   UNL     1      -1.390  -0.027   3.159  0.00  0.00    -0.352 N 
ATOM     24  H   UNL     1      -2.185  -0.411   2.756  0.00  0.00    +0.143 HD
ATOM     25  H   UNL     1      -1.438   0.368   4.044  0.00  0.00    +0.143 HD
ENDBRANCH  21  23
ENDBRANCH   7  21
TORSDOF 3
