REMARK  Name = ZINC02372912
REMARK  7 active torsions:
REMARK  status: ('A' for Active; 'I' for Inactive)
REMARK    1  A    between atoms: C_1  and  N_55
REMARK    2  A    between atoms: C_12  and  C_15
REMARK    3  A    between atoms: C_18  and  O_23
REMARK    4  A    between atoms: C_19  and  O_21
REMARK    5  A    between atoms: O_21  and  C_22
REMARK    6  A    between atoms: O_23  and  C_24
REMARK    7  A    between atoms: C_24  and  C_26
REMARK                            x       y       z     vdW  Elec       q    Type
REMARK                         _______ _______ _______ _____ _____    ______ ____
ROOT
ATOM      1  C   UNL     1       3.009  -4.321   8.296  0.00  0.00    -0.096 C 
ATOM      2  C   UNL     1       3.169  -2.644   6.557  0.00  0.00    -0.074 C 
ATOM      3  C   UNL     1       3.769  -2.374   5.174  0.00  0.00    +0.018 C 
ATOM      4  C   UNL     1       3.108  -3.318   4.175  0.00  0.00    -0.027 A 
ATOM      5  C   UNL     1       2.446  -4.412   4.616  0.00  0.00    -0.021 A 
ATOM      6  S   UNL     1       1.846  -5.205   3.150  0.00  0.00    -0.080 S 
ATOM      7  C   UNL     1       2.462  -4.112   1.984  0.00  0.00    +0.080 A 
ATOM      8  C   UNL     1       3.127  -3.131   2.736  0.00  0.00    +0.068 A 
ATOM      9  C   UNL     1       3.769  -2.020   1.995  0.00  0.00    +0.248 C 
ATOM     10  O   UNL     1       4.459  -1.194   2.565  0.00  0.00    -0.270 OA
ATOM     11  N   UNL     1       3.558  -1.962   0.665  0.00  0.00    -0.289 N 
ATOM     12  C   UNL     1       2.560  -2.769  -0.030  0.00  0.00    +0.190 C 
ATOM     13  N   UNL     1       2.394  -4.084   0.615  0.00  0.00    -0.316 N 
ATOM     14  C   UNL     1       2.277  -4.836   6.041  0.00  0.00    -0.036 C 
ATOM     15  H   UNL     1       4.099  -1.350   0.142  0.00  0.00    +0.151 HD
ATOM     16  H   UNL     1       2.244  -4.890   0.096  0.00  0.00    +0.149 HD
ATOM     17  N   UNL     1       3.262  -4.087   6.858  0.00  0.00    +0.381 N 
ATOM     18  H   UNL     1       4.207  -4.416   6.628  0.00  0.00    -0.082 HD
ENDROOT
BRANCH  12  19
ATOM     19  C   UNL     1       1.240  -2.041  -0.016  0.00  0.00    -0.006 A 
ATOM     20  C   UNL     1       0.058  -2.757  -0.038  0.00  0.00    +0.011 A 
ATOM     21  C   UNL     1      -1.155  -2.095  -0.024  0.00  0.00    +0.050 A 
ATOM     22  C   UNL     1      -1.188  -0.710   0.017  0.00  0.00    +0.173 A 
ATOM     23  C   UNL     1       0.002   0.011   0.033  0.00  0.00    +0.163 A 
ATOM     24  C   UNL     1       1.215  -0.660   0.019  0.00  0.00    +0.056 A 
BRANCH  23  25
ATOM     25  O   UNL     1      -0.025   1.370   0.068  0.00  0.00    -0.491 OA
ATOM     26  C   UNL     1       1.235   2.043   0.088  0.00  0.00    +0.277 C 
ENDBRANCH  23  25
BRANCH  22  27
ATOM     27  O   UNL     1      -2.381  -0.057   0.036  0.00  0.00    -0.419 OA
BRANCH  27  28
ATOM     28  C   UNL     1      -2.829   0.433  -1.136  0.00  0.00    +0.346 C 
ATOM     29  O   UNL     1      -2.224   0.199  -2.163  0.00  0.00    -0.244 OA
BRANCH  28  30
ATOM     30  C   UNL     1      -4.054   1.256  -1.171  0.00  0.00    +0.078 A 
ATOM     31  C   UNL     1      -4.755   1.523   0.007  0.00  0.00    +0.016 A 
ATOM     32  C   UNL     1      -5.895   2.297  -0.033  0.00  0.00    +0.001 A 
ATOM     33  C   UNL     1      -6.354   2.800  -1.238  0.00  0.00    +0.001 A 
ATOM     34  C   UNL     1      -5.669   2.536  -2.411  0.00  0.00    +0.021 A 
ATOM     35  C   UNL     1      -4.522   1.767  -2.385  0.00  0.00    +0.055 A 
ATOM     36 CL   UNL     1      -3.664   1.435  -3.858  0.00  0.00    -0.083 Cl
ENDBRANCH  28  30
ENDBRANCH  27  28
ENDBRANCH  22  27
ENDBRANCH  12  19
TORSDOF 5
