REMARK  Name = ZINC25192171
REMARK  10 active torsions:
REMARK  status: ('A' for Active; 'I' for Inactive)
REMARK    1  A    between atoms: C_1  and  N_2
REMARK    2  A    between atoms: C_3  and  C_5
REMARK    3  A    between atoms: C_8  and  C_11
REMARK    4  A    between atoms: C_11  and  N_12
REMARK    5  A    between atoms: N_12  and  C_13
REMARK    6  A    between atoms: N_12  and  C_27
REMARK    7  A    between atoms: C_13  and  C_14
REMARK    8  A    between atoms: N_19  and  C_20
REMARK    9  A    between atoms: C_20  and  C_21
REMARK   10  A    between atoms: C_21  and  C_22
REMARK                            x       y       z     vdW  Elec       q    Type
REMARK                         _______ _______ _______ _____ _____    ______ ____
ROOT
ATOM      1  N   UNL     1      -0.730   1.594  -1.117  0.00  0.00    +0.390 N 
ATOM      2  H   UNL     1      -0.780   2.690  -1.041  0.00  0.00    -0.080 HD
ENDROOT
BRANCH   1   3
ATOM      3  C   UNL     1      -2.105   1.077  -1.102  0.00  0.00    -0.068 C 
ATOM      4  C   UNL     1      -2.498   0.083  -2.197  0.00  0.00    -0.017 C 
ATOM      5  C   UNL     1      -3.036   1.514  -2.234  0.00  0.00    -0.017 C 
ENDBRANCH   1   3
BRANCH   1   6
ATOM      6  C   UNL     1       0.032   1.096   0.037  0.00  0.00    -0.042 C 
BRANCH   6  10
ATOM      7  C   UNL     1      -1.621   2.703   3.638  0.00  0.00    +0.037 A 
ATOM      8  C   UNL     1      -2.093   1.492   3.130  0.00  0.00    +0.013 A 
ATOM      9  C   UNL     1      -1.556   0.980   1.967  0.00  0.00    +0.002 A 
ATOM     10  C   UNL     1      -0.551   1.663   1.306  0.00  0.00    -0.064 A 
ATOM     11  C   UNL     1      -0.075   2.861   1.807  0.00  0.00    +0.002 A 
ATOM     12  C   UNL     1      -0.607   3.388   2.966  0.00  0.00    +0.013 A 
BRANCH   7  15
ATOM     13  C   UNL     1      -2.301   4.979   6.606  0.00  0.00    +0.128 C 
ATOM     14  N   UNL     1      -1.734   4.429   5.372  0.00  0.00    -0.314 N 
ATOM     15  C   UNL     1      -2.193   3.259   4.883  0.00  0.00    +0.244 C 
ATOM     16  O   UNL     1      -3.076   2.661   5.466  0.00  0.00    -0.270 OA
ATOM     17  H   UNL     1      -0.935   4.970   4.844  0.00  0.00    +0.149 HD
ENDBRANCH   7  15
ENDBRANCH   6  10
ENDBRANCH   1   6
BRANCH   1  18
ATOM     18  C   UNL     1      -0.055   1.259  -2.378  0.00  0.00    +0.020 C 
BRANCH  18  19
ATOM     19  C   UNL     1       1.121   2.180  -2.578  0.00  0.00    +0.204 C 
ATOM     20  O   UNL     1       1.421   2.976  -1.714  0.00  0.00    -0.277 OA
ATOM     21  N   UNL     1       1.839   2.118  -3.717  0.00  0.00    -0.242 N 
ATOM     22  C   UNL     1       2.891   2.941  -3.896  0.00  0.00    +0.306 C 
ATOM     23  O   UNL     1       3.192   3.740  -3.030  0.00  0.00    -0.252 OA
ATOM     24  N   UNL     1       3.609   2.880  -5.034  0.00  0.00    -0.299 N 
ATOM     25  H   UNL     1       1.567   1.395  -4.500  0.00  0.00    +0.159 HD
ATOM     26  H   UNL     1       3.337   2.157  -5.818  0.00  0.00    +0.150 HD
BRANCH  24  27
ATOM     27  C   UNL     1       4.752   3.775  -5.229  0.00  0.00    +0.111 C 
BRANCH  27  28
ATOM     28  C   UNL     1       5.388   3.501  -6.593  0.00  0.00    +0.061 C 
BRANCH  28  29
ATOM     29  C   UNL     1       6.564   4.422  -6.794  0.00  0.00    -0.009 A 
ATOM     30  C   UNL     1       7.864   4.230  -6.463  0.00  0.00    +0.011 A 
ATOM     31  C   UNL     1       8.782   5.223  -6.748  0.00  0.00    +0.008 A 
ATOM     32  C   UNL     1       8.353   6.364  -7.341  0.00  0.00    +0.045 A 
ATOM     33  S   UNL     1       6.605   6.052  -7.521  0.00  0.00    -0.102 S 
ENDBRANCH  28  29
ENDBRANCH  27  28
ENDBRANCH  24  27
ENDBRANCH  18  19
ENDBRANCH   1  18
TORSDOF 9
