REMARK  Name = ZINC67418136
REMARK  7 active torsions:
REMARK  status: ('A' for Active; 'I' for Inactive)
REMARK    1  A    between atoms: C_1  and  C_2
REMARK    2  A    between atoms: C_2  and  N_3
REMARK    3  A    between atoms: C_6  and  C_9
REMARK    4  A    between atoms: C_9  and  N_10
REMARK    5  A    between atoms: N_13  and  N_14
REMARK    6  A    between atoms: C_15  and  C_17
REMARK    7  A    between atoms: C_18  and  C_22
REMARK                            x       y       z     vdW  Elec       q    Type
REMARK                         _______ _______ _______ _____ _____    ______ ____
ROOT
ATOM      1  N   UNL     1      -5.066  -4.019  -0.900  0.00  0.00    -0.298 N 
ATOM      2  C   UNL     1      -6.253  -4.650  -0.798  0.00  0.00    +0.316 C 
ATOM      3  O   UNL     1      -7.281  -4.003  -0.723  0.00  0.00    -0.251 OA
ATOM      4  N   UNL     1      -6.302  -5.996  -0.779  0.00  0.00    -0.218 N 
ATOM      5  H   UNL     1      -4.247  -4.535  -0.959  0.00  0.00    +0.150 HD
ATOM      6  H   UNL     1      -7.156  -6.450  -0.705  0.00  0.00    +0.174 HD
ENDROOT
BRANCH   4   7
ATOM      7  N   UNL     1      -5.118  -6.741  -0.864  0.00  0.00    -0.229 N 
ATOM      8  C   UNL     1      -5.166  -8.088  -0.845  0.00  0.00    +0.267 C 
ATOM      9  O   UNL     1      -6.238  -8.657  -0.753  0.00  0.00    -0.268 OA
ATOM     10  H   UNL     1      -4.264  -6.287  -0.938  0.00  0.00    +0.173 HD
BRANCH   8  11
ATOM     11  C   UNL     1      -3.928  -8.867  -0.935  0.00  0.00    +0.078 A 
ATOM     12  C   UNL     1      -3.759 -10.243  -0.938  0.00  0.00    -0.031 A 
ATOM     13  C   UNL     1      -2.462 -10.686  -1.036  0.00  0.00    +0.011 A 
ATOM     14  C   UNL     1      -1.460  -9.776  -1.120  0.00  0.00    +0.046 A 
ATOM     15  S   UNL     1      -2.246  -8.292  -1.076  0.00  0.00    -0.092 S 
ATOM     16  C   UNL     1      -4.925 -11.194  -0.841  0.00  0.00    +0.045 C 
ENDBRANCH   8  11
ENDBRANCH   4   7
BRANCH   1  17
ATOM     17  C   UNL     1      -5.014  -2.555  -0.920  0.00  0.00    +0.109 C 
BRANCH  17  21
ATOM     18  N   UNL     1      -1.376  -0.512   0.012  0.00  0.00    +0.380 N 
ATOM     19  C   UNL     1      -2.051  -0.118  -1.230  0.00  0.00    -0.079 C 
ATOM     20  C   UNL     1      -3.511  -0.575  -1.189  0.00  0.00    -0.014 C 
ATOM     21  C   UNL     1      -3.559  -2.099  -1.042  0.00  0.00    +0.003 C 
ATOM     22  C   UNL     1      -2.788  -2.505   0.218  0.00  0.00    -0.014 C 
ATOM     23  C   UNL     1      -1.355  -1.976   0.125  0.00  0.00    -0.079 C 
ATOM     24  H   UNL     1      -1.871  -0.123   0.800  0.00  0.00    -0.082 HD
BRANCH  18  26
ATOM     25  C   UNL     1      -0.019   1.526   0.010  0.00  0.00    -0.017 C 
ATOM     26  C   UNL     1       0.002  -0.004   0.002  0.00  0.00    -0.082 C 
ENDBRANCH  18  26
ENDBRANCH  17  21
ENDBRANCH   1  17
TORSDOF 5
