REMARK  Name = ZINC03956811
REMARK  9 active torsions:
REMARK  status: ('A' for Active; 'I' for Inactive)
REMARK    1  A    between atoms: C_4  and  C_7
REMARK    2  A    between atoms: C_7  and  O_8
REMARK    3  A    between atoms: O_8  and  C_9
REMARK    4  A    between atoms: C_11  and  N_24
REMARK    5  A    between atoms: C_13  and  O_23
REMARK    6  A    between atoms: C_15  and  O_22
REMARK    7  A    between atoms: C_17  and  C_20
REMARK    8  A    between atoms: C_20  and  O_21
REMARK    9  A    between atoms: C_25  and  C_27
REMARK                            x       y       z     vdW  Elec       q    Type
REMARK                         _______ _______ _______ _____ _____    ______ ____
ROOT
ATOM      1  C   UNL     1      -1.165   7.965  -1.387  0.00  0.00    +0.274 C 
ATOM      2  C   UNL     1      -1.266   7.446   0.049  0.00  0.00    +0.160 C 
ATOM      3  C   UNL     1      -2.577   7.937   0.672  0.00  0.00    +0.171 C 
ATOM      4  C   UNL     1      -2.620   9.467   0.602  0.00  0.00    +0.176 C 
ATOM      5  C   UNL     1      -2.468   9.908  -0.856  0.00  0.00    +0.178 C 
ATOM      6  O   UNL     1      -1.244   9.392  -1.383  0.00  0.00    -0.341 OA
ENDROOT
BRANCH   2   7
ATOM      7  N   UNL     1      -1.246   5.981   0.043  0.00  0.00    -0.301 N 
ATOM      8  C   UNL     1      -0.070   5.323   0.029  0.00  0.00    +0.245 C 
ATOM      9  O   UNL     1       0.974   5.945   0.021  0.00  0.00    -0.270 OA
ATOM     10  H   UNL     1      -2.080   5.485   0.049  0.00  0.00    +0.150 HD
BRANCH   8  11
ATOM     11  C   UNL     1      -0.050   3.845   0.022  0.00  0.00    +0.037 A 
ATOM     12  C   UNL     1       1.166   3.160   0.007  0.00  0.00    +0.013 A 
ATOM     13  C   UNL     1       1.178   1.781   0.000  0.00  0.00    +0.001 A 
ATOM     14  C   UNL     1      -0.013   1.076   0.008  0.00  0.00    +0.000 A 
ATOM     15  C   UNL     1      -1.222   1.748   0.017  0.00  0.00    +0.001 A 
ATOM     16  C   UNL     1      -1.248   3.127   0.030  0.00  0.00    +0.013 A 
ENDBRANCH   8  11
ENDBRANCH   2   7
BRANCH   4  17
ATOM     17  O   UNL     1      -3.870   9.933   1.114  0.00  0.00    -0.387 OA
ATOM     18  H   UNL     1      -3.967  10.895   1.100  0.00  0.00    +0.210 HD
ENDBRANCH   4  17
BRANCH   3  19
ATOM     19  O   UNL     1      -3.683   7.393  -0.051  0.00  0.00    -0.387 OA
ATOM     20  H   UNL     1      -4.547   7.663   0.289  0.00  0.00    +0.210 HD
ENDBRANCH   3  19
BRANCH   1  21
ATOM     21  O   UNL     1      -2.239   7.432  -2.164  0.00  0.00    -0.345 OA
BRANCH  21  22
ATOM     22  C   UNL     1      -2.115   7.669  -3.568  0.00  0.00    +0.198 C 
BRANCH  22  26
ATOM     23  C   UNL     1      -5.461   5.962  -5.602  0.00  0.00    +0.000 A 
ATOM     24  C   UNL     1      -5.518   7.268  -5.151  0.00  0.00    +0.000 A 
ATOM     25  C   UNL     1      -4.435   7.820  -4.493  0.00  0.00    +0.006 A 
ATOM     26  C   UNL     1      -3.295   7.067  -4.285  0.00  0.00    -0.022 A 
ATOM     27  C   UNL     1      -3.236   5.763  -4.740  0.00  0.00    +0.006 A 
ATOM     28  C   UNL     1      -4.320   5.209  -5.395  0.00  0.00    +0.000 A 
ENDBRANCH  22  26
ENDBRANCH  21  22
ENDBRANCH   1  21
BRANCH   5  29
ATOM     29  C   UNL     1      -2.450  11.436  -0.927  0.00  0.00    +0.190 C 
BRANCH  29  30
ATOM     30  O   UNL     1      -2.425  11.849  -2.295  0.00  0.00    -0.392 OA
ATOM     31  H   UNL     1      -2.413  12.809  -2.416  0.00  0.00    +0.210 HD
ENDBRANCH  29  30
ENDBRANCH   5  29
TORSDOF 9
