REMARK  Name = ZINC43093005
REMARK  11 active torsions:
REMARK  status: ('A' for Active; 'I' for Inactive)
REMARK    1  A    between atoms: C_1  and  C_2
REMARK    2  A    between atoms: C_2  and  C_3
REMARK    3  A    between atoms: C_3  and  C_5
REMARK    4  A    between atoms: C_3  and  N_22
REMARK    5  A    between atoms: C_5  and  C_7
REMARK    6  A    between atoms: C_5  and  N_14
REMARK    7  A    between atoms: N_14  and  C_15
REMARK    8  A    between atoms: N_14  and  C_16
REMARK    9  A    between atoms: C_16  and  C_17
REMARK   10  A    between atoms: N_19  and  C_20
REMARK   11  A    between atoms: C_20  and  C_21
REMARK                            x       y       z     vdW  Elec       q    Type
REMARK                         _______ _______ _______ _____ _____    ______ ____
ROOT
ATOM      1  C   UNL     1       0.986  -2.076  -1.097  0.00  0.00    +0.074 C 
ENDROOT
BRANCH   1   2
ATOM      2  C   UNL     1      -0.464  -2.466  -1.233  0.00  0.00    -0.018 A 
ATOM      3  C   UNL     1      -1.288  -2.462  -0.123  0.00  0.00    +0.006 A 
ATOM      4  C   UNL     1      -2.617  -2.820  -0.248  0.00  0.00    +0.000 A 
ATOM      5  C   UNL     1      -3.123  -3.181  -1.483  0.00  0.00    +0.001 A 
ATOM      6  C   UNL     1      -2.300  -3.186  -2.593  0.00  0.00    +0.015 A 
ATOM      7  C   UNL     1      -0.971  -2.823  -2.469  0.00  0.00    +0.022 A 
ATOM      8 BR   UNL     1       0.154  -2.822  -3.989  0.00  0.00    -0.050 Br
ENDBRANCH   1   2
BRANCH   1   9
ATOM      9  N   UNL     1       1.474  -2.463   0.234  0.00  0.00    -0.292 NA
ATOM     10  C   UNL     1       2.831  -1.952   0.466  0.00  0.00    +0.106 C 
BRANCH   9  11
ATOM     11  C   UNL     1       1.424  -3.921   0.409  0.00  0.00    +0.180 C 
BRANCH  11  12
ATOM     12  C   UNL     1       1.694  -4.263   1.852  0.00  0.00    +0.227 C 
ATOM     13  O   UNL     1       1.908  -3.379   2.655  0.00  0.00    -0.274 OA
ATOM     14  N   UNL     1       1.699  -5.551   2.249  0.00  0.00    -0.315 N 
ATOM     15  H   UNL     1       1.528  -6.257   1.607  0.00  0.00    +0.149 HD
BRANCH  14  16
ATOM     16  C   UNL     1       1.962  -5.883   3.652  0.00  0.00    +0.101 C 
ATOM     17  C   UNL     1       1.910  -7.401   3.835  0.00  0.00    +0.024 C 
ENDBRANCH  14  16
ENDBRANCH  11  12
ENDBRANCH   9  11
ENDBRANCH   1   9
BRANCH   1  18
ATOM     18  C   UNL     1       1.125  -0.562  -1.270  0.00  0.00    -0.053 C 
BRANCH  18  19
ATOM     19  N   UNL     1       0.584  -0.168  -2.578  0.00  0.00    +0.381 N 
ATOM     20  H   UNL     1       0.675   0.831  -2.692  0.00  0.00    -0.090 HD
ATOM     21  H   UNL     1       1.095  -0.639  -3.309  0.00  0.00    -0.090 HD
ATOM     22  H   UNL     1      -0.391  -0.424  -2.630  0.00  0.00    -0.090 HD
ENDBRANCH  18  19
BRANCH  18  24
ATOM     23  C   UNL     1       0.585   1.660  -0.264  0.00  0.00    +0.002 C 
ATOM     24  C   UNL     1       0.349   0.151  -0.161  0.00  0.00    -0.018 C 
ENDBRANCH  18  24
ENDBRANCH   1  18
TORSDOF 8
