REMARK  Name = ZINC30713302
REMARK  12 active torsions:
REMARK  status: ('A' for Active; 'I' for Inactive)
REMARK    1  A    between atoms: C_1  and  C_2
REMARK    2  A    between atoms: C_2  and  N_3
REMARK    3  A    between atoms: N_3  and  C_4
REMARK    4  A    between atoms: N_3  and  C_6
REMARK    5  A    between atoms: C_4  and  C_5
REMARK    6  A    between atoms: C_6  and  C_8
REMARK    7  A    between atoms: C_6  and  C_25
REMARK    8  A    between atoms: C_8  and  N_9
REMARK    9  A    between atoms: C_10  and  C_12
REMARK   10  A    between atoms: C_12  and  C_14
REMARK   11  A    between atoms: C_12  and  N_15
REMARK   12  A    between atoms: C_16  and  C_18
REMARK                            x       y       z     vdW  Elec       q    Type
REMARK                         _______ _______ _______ _____ _____    ______ ____
ROOT
ATOM      1  N   UNL     1       5.341  -0.134  -1.496  0.00  0.00    -0.315 N 
ATOM      2  C   UNL     1       4.053  -0.368  -1.818  0.00  0.00    +0.233 C 
ATOM      3  O   UNL     1       3.170  -0.065  -1.044  0.00  0.00    -0.274 OA
ATOM      4  H   UNL     1       6.137  -0.341  -2.226  0.00  0.00    +0.149 HD
ENDROOT
BRANCH   2   5
ATOM      5  C   UNL     1       3.712  -1.007  -3.139  0.00  0.00    +0.156 C 
ATOM      6  C   UNL     1       4.027  -0.031  -4.274  0.00  0.00    +0.038 C 
BRANCH   5   7
ATOM      7  N   UNL     1       2.286  -1.342  -3.166  0.00  0.00    -0.300 N 
ATOM      8  C   UNL     1       1.840  -2.330  -3.966  0.00  0.00    +0.246 C 
ATOM      9  O   UNL     1       2.622  -2.944  -4.666  0.00  0.00    -0.270 OA
ATOM     10  H   UNL     1       1.579  -0.786  -2.532  0.00  0.00    +0.150 HD
BRANCH   8  11
ATOM     11  C   UNL     1       0.401  -2.664  -3.997  0.00  0.00    +0.055 A 
ATOM     12  C   UNL     1      -0.498  -1.965  -3.189  0.00  0.00    +0.014 A 
ATOM     13  C   UNL     1      -1.841  -2.278  -3.227  0.00  0.00    +0.001 A 
ATOM     14  C   UNL     1      -2.297  -3.290  -4.054  0.00  0.00    +0.001 A 
ATOM     15  C   UNL     1      -1.412  -3.990  -4.853  0.00  0.00    +0.021 A 
ATOM     16  C   UNL     1      -0.065  -3.684  -4.830  0.00  0.00    +0.053 A 
ATOM     17 CL   UNL     1       1.045  -4.565  -5.832  0.00  0.00    -0.083 Cl
ENDBRANCH   8  11
ENDBRANCH   5   7
ENDBRANCH   2   5
BRANCH   1  18
ATOM     18  C   UNL     1       5.680   0.396  -0.173  0.00  0.00    +0.093 C 
BRANCH  18  19
ATOM     19  C   UNL     1       7.200   0.395   0.003  0.00  0.00    -0.019 C 
BRANCH  19  20
ATOM     20  C   UNL     1       7.536   0.339   1.471  0.00  0.00    -0.041 A 
ATOM     21  C   UNL     1       7.414   1.473   2.251  0.00  0.00    +0.003 A 
ATOM     22  C   UNL     1       7.718   1.421   3.599  0.00  0.00    +0.000 A 
ATOM     23  C   UNL     1       8.154   0.237   4.165  0.00  0.00    +0.001 A 
ATOM     24  C   UNL     1       8.281  -0.896   3.384  0.00  0.00    +0.020 A 
ATOM     25  C   UNL     1       7.973  -0.846   2.036  0.00  0.00    +0.043 A 
ATOM     26 CL   UNL     1       8.133  -2.269   1.055  0.00  0.00    -0.083 Cl
ENDBRANCH  19  20
BRANCH  19  27
ATOM     27  N   UNL     1       7.762   1.619  -0.582  0.00  0.00    +0.385 N 
ATOM     28  H   UNL     1       7.809   2.381   0.210  0.00  0.00    -0.081 HD
BRANCH  27  30
ATOM     29  C   UNL     1      10.115   1.537   0.091  0.00  0.00    -0.017 C 
ATOM     30  C   UNL     1       9.129   1.391  -1.070  0.00  0.00    -0.081 C 
ENDBRANCH  27  30
BRANCH  27  31
ATOM     31  C   UNL     1       6.900   2.135  -1.654  0.00  0.00    -0.081 C 
ATOM     32  C   UNL     1       7.232   3.605  -1.914  0.00  0.00    -0.017 C 
ENDBRANCH  27  31
ENDBRANCH  19  27
ENDBRANCH  18  19
ENDBRANCH   1  18
TORSDOF 9
