REMARK  Name = ZINC19674038
REMARK  4 active torsions:
REMARK  status: ('A' for Active; 'I' for Inactive)
REMARK    1  A    between atoms: C_7  and  C_12
REMARK    2  A    between atoms: C_12  and  S_13
REMARK    3  A    between atoms: S_13  and  C_14
REMARK    4  A    between atoms: N_15  and  C_16
REMARK                            x       y       z     vdW  Elec       q    Type
REMARK                         _______ _______ _______ _____ _____    ______ ____
ROOT
ATOM      1  C   UNL     1      -0.017   1.393   0.010  0.00  0.00    +0.015 A 
ATOM      2  C   UNL     1       1.170   2.096   0.002  0.00  0.00    -0.043 A 
ATOM      3  C   UNL     1       2.382   1.421  -0.013  0.00  0.00    -0.041 A 
ATOM      4  C   UNL     1       2.413   0.038  -0.019  0.00  0.00    +0.051 A 
ATOM      5  C   UNL     1       1.231  -0.688  -0.011  0.00  0.00    +0.140 A 
ATOM      6  C   UNL     1       0.002  -0.004   0.002  0.00  0.00    +0.022 A 
ATOM      7  C   UNL     1      -1.243  -0.779   0.007  0.00  0.00    -0.020 A 
ATOM      8  C   UNL     1      -1.155  -2.133  -0.001  0.00  0.00    +0.097 A 
ATOM      9  C   UNL     1       0.113  -2.753  -0.014  0.00  0.00    +0.338 A 
ATOM     10  O   UNL     1       0.178  -3.969  -0.022  0.00  0.00    -0.245 OA
ATOM     11  O   UNL     1       1.248  -2.038  -0.017  0.00  0.00    -0.422 OA
ATOM     12  C   UNL     1       3.521   2.420  -0.019  0.00  0.00    +0.036 C 
ATOM     13  C   UNL     1       2.882   3.758  -0.448  0.00  0.00    +0.009 C 
ATOM     14  C   UNL     1       1.418   3.590   0.008  0.00  0.00    +0.036 C 
ENDROOT
BRANCH   7  15
ATOM     15  C   UNL     1      -2.583  -0.090   0.022  0.00  0.00    +0.113 C 
BRANCH  15  16
ATOM     16  S   UNL     1      -2.905   0.570   1.681  0.00  0.00    -0.088 S 
BRANCH  16  17
ATOM     17  C   UNL     1      -4.486   1.334   1.536  0.00  0.00    +0.126 C 
ATOM     18  N   UNL     1      -5.026   1.918   2.570  0.00  0.00    -0.365 N 
ATOM     19  N   UNL     1      -5.152   1.314   0.333  0.00  0.00    -0.339 N 
ATOM     20  H   UNL     1      -4.751   0.880  -0.436  0.00  0.00    +0.144 HD
ATOM     21  H   UNL     1      -6.022   1.735   0.253  0.00  0.00    +0.144 HD
ATOM     22  H   UNL     1      -4.556   1.932   3.419  0.00  0.00    +0.162 HD
BRANCH  18  23
ATOM     23  C   UNL     1      -6.340   2.554   2.450  0.00  0.00    +0.081 C 
ATOM     24  C   UNL     1      -6.171   3.978   1.917  0.00  0.00    +0.024 C 
ATOM     25  C   UNL     1      -7.544   4.641   1.791  0.00  0.00    +0.002 C 
ATOM     26  C   UNL     1      -8.217   4.687   3.165  0.00  0.00    +0.000 C 
ATOM     27  C   UNL     1      -8.385   3.262   3.697  0.00  0.00    +0.002 C 
ATOM     28  C   UNL     1      -7.012   2.599   3.823  0.00  0.00    +0.024 C 
ENDBRANCH  18  23
ENDBRANCH  16  17
ENDBRANCH  15  16
ENDBRANCH   7  15
TORSDOF 4
