REMARK  Name = ZINC35598129
REMARK  6 active torsions:
REMARK  status: ('A' for Active; 'I' for Inactive)
REMARK    1  A    between atoms: C_1  and  C_2
REMARK    2  A    between atoms: C_9  and  N_13
REMARK    3  A    between atoms: N_13  and  C_14
REMARK    4  A    between atoms: C_14  and  C_15
REMARK    5  A    between atoms: C_15  and  N_16
REMARK    6  A    between atoms: N_19  and  C_20
REMARK                            x       y       z     vdW  Elec       q    Type
REMARK                         _______ _______ _______ _____ _____    ______ ____
ROOT
ATOM      1  C   UNL     1       0.101  -3.178   5.589  0.00  0.00    +0.121 C 
ENDROOT
BRANCH   1   2
ATOM      2  N   UNL     1       0.081  -1.734   5.840  0.00  0.00    -0.327 N 
ATOM      3  H   UNL     1       0.092  -1.400   6.750  0.00  0.00    +0.148 HD
BRANCH   2  12
ATOM      4  C   UNL     1      -0.074   1.501   0.010  0.00  0.00    +0.084 C 
ATOM      5  C   UNL     1      -0.054  -0.006   0.002  0.00  0.00    +0.089 A 
ATOM      6  N   UNL     1      -0.056  -0.762  -1.061  0.00  0.00    -0.350 N 
ATOM      7  C   UNL     1      -0.034  -2.051  -0.691  0.00  0.00    +0.102 A 
ATOM      8  C   UNL     1      -0.018  -2.103   0.654  0.00  0.00    +0.112 A 
ATOM      9  N   UNL     1      -0.024  -0.805   1.101  0.00  0.00    -0.289 N 
ATOM     10  C   UNL     1      -0.007  -0.386   2.433  0.00  0.00    +0.144 A 
ATOM     11  C   UNL     1       0.029  -1.316   3.464  0.00  0.00    +0.090 A 
ATOM     12  C   UNL     1       0.045  -0.847   4.776  0.00  0.00    +0.124 A 
ATOM     13  N   UNL     1       0.026   0.466   4.992  0.00  0.00    -0.221 NA
ATOM     14  C   UNL     1      -0.008   1.316   3.986  0.00  0.00    +0.225 A 
ATOM     15  N   UNL     1      -0.019   0.910   2.732  0.00  0.00    -0.218 NA
ATOM     16  H   UNL     1      -0.071  -0.442  -1.977  0.00  0.00    +0.166 HD
ENDBRANCH   2  12
ENDBRANCH   1   2
BRANCH   1  17
ATOM     17  C   UNL     1       0.139  -3.926   6.923  0.00  0.00    +0.124 C 
BRANCH  17  18
ATOM     18  N   UNL     1       0.160  -5.370   6.673  0.00  0.00    -0.298 N 
ATOM     19  C   UNL     1       0.194  -6.233   7.708  0.00  0.00    +0.304 C 
ATOM     20  O   UNL     1       0.208  -5.813   8.849  0.00  0.00    -0.253 OA
ATOM     21  N   UNL     1       0.213  -7.560   7.477  0.00  0.00    -0.269 N 
ATOM     22  H   UNL     1       0.148  -5.704   5.763  0.00  0.00    +0.150 HD
ATOM     23  H   UNL     1       0.134  -7.897   6.571  0.00  0.00    +0.156 HD
BRANCH  21  24
ATOM     24  C   UNL     1       0.346  -8.455   8.547  0.00  0.00    +0.036 A 
ATOM     25  C   UNL     1       1.066  -9.631   8.384  0.00  0.00    +0.026 A 
ATOM     26  C   UNL     1       1.197 -10.512   9.439  0.00  0.00    +0.041 A 
ATOM     27  C   UNL     1       0.611 -10.224  10.660  0.00  0.00    +0.142 A 
ATOM     28  C   UNL     1      -0.109  -9.051  10.825  0.00  0.00    +0.078 A 
ATOM     29  C   UNL     1      -0.237  -8.164   9.773  0.00  0.00    +0.046 A 
ATOM     30 CL   UNL     1      -0.845  -8.693  12.356  0.00  0.00    -0.081 Cl
ATOM     31  F   UNL     1       0.740 -11.087  11.691  0.00  0.00    -0.204 F 
ENDBRANCH  21  24
ENDBRANCH  17  18
ENDBRANCH   1  17
TORSDOF 5
