REMARK  Name = ZINC05986015
REMARK  12 active torsions:
REMARK  status: ('A' for Active; 'I' for Inactive)
REMARK    1  A    between atoms: C_1  and  N_2
REMARK    2  A    between atoms: N_2  and  C_3
REMARK    3  A    between atoms: N_2  and  C_4
REMARK    4  A    between atoms: C_7  and  C_10
REMARK    5  A    between atoms: C_13  and  C_14
REMARK    6  A    between atoms: C_13  and  O_20
REMARK    7  A    between atoms: N_25  and  C_26
REMARK    8  A    between atoms: C_26  and  C_27
REMARK    9  A    between atoms: C_27  and  N_56
REMARK   10  A    between atoms: C_28  and  C_29
REMARK   11  A    between atoms: C_28  and  N_56
REMARK   12  A    between atoms: C_29  and  O_30
REMARK                            x       y       z     vdW  Elec       q    Type
REMARK                         _______ _______ _______ _____ _____    ______ ____
ROOT
ATOM      1  C   UNL     1       1.367   1.816  -0.322  0.00  0.00    +0.144 C 
ATOM      2  C   UNL     1       2.275   0.609  -0.303  0.00  0.00    +0.071 C 
ATOM      3  C   UNL     1       3.628   0.594  -0.036  0.00  0.00    +0.133 C 
ATOM      4  C   UNL     1       1.463  -0.495  -0.613  0.00  0.00    +0.249 C 
ATOM      5  O   UNL     1       1.832  -1.653  -0.694  0.00  0.00    -0.282 OA
ATOM      6  C   UNL     1       0.074  -0.004  -0.824  0.00  0.00    +0.288 C 
ATOM      7  O   UNL     1      -0.876  -0.705  -1.107  0.00  0.00    -0.266 OA
ATOM      8  N   UNL     1       0.025   1.328  -0.655  0.00  0.00    -0.285 N 
ENDROOT
BRANCH   1  12
ATOM      9  C   UNL     1       1.333   3.682   3.523  0.00  0.00    +0.029 A 
ATOM     10  C   UNL     1       2.073   4.237   2.486  0.00  0.00    +0.023 A 
ATOM     11  C   UNL     1       2.081   3.632   1.245  0.00  0.00    +0.007 A 
ATOM     12  C   UNL     1       1.355   2.474   1.033  0.00  0.00    -0.022 A 
ATOM     13  C   UNL     1       0.613   1.922   2.062  0.00  0.00    +0.007 A 
ATOM     14  C   UNL     1       0.604   2.520   3.307  0.00  0.00    +0.023 A 
BRANCH   9  16
ATOM     15  C   UNL     1       1.992   5.580   4.974  0.00  0.00    +0.129 C 
ATOM     16  N   UNL     1       1.322   4.292   4.779  0.00  0.00    -0.336 N 
ATOM     17  C   UNL     1       0.641   3.643   5.902  0.00  0.00    +0.129 C 
ENDBRANCH   9  16
ENDBRANCH   1  12
BRANCH   3  18
ATOM     18  C   UNL     1       4.346  -0.690   0.059  0.00  0.00    +0.017 A 
ATOM     19  C   UNL     1       3.833  -1.726   0.846  0.00  0.00    +0.011 A 
ATOM     20  C   UNL     1       4.508  -2.925   0.925  0.00  0.00    +0.001 A 
ATOM     21  C   UNL     1       5.696  -3.102   0.238  0.00  0.00    +0.000 A 
ATOM     22  C   UNL     1       6.213  -2.080  -0.539  0.00  0.00    +0.001 A 
ATOM     23  C   UNL     1       5.547  -0.876  -0.633  0.00  0.00    +0.011 A 
ENDBRANCH   3  18
BRANCH   3  24
ATOM     24  O   UNL     1       4.295   1.754   0.138  0.00  0.00    -0.506 OA
ATOM     25  H   UNL     1       5.259   1.561   0.322  0.00  0.00    +0.292 HD
ENDBRANCH   3  24
BRANCH   8  26
ATOM     26  C   UNL     1      -1.174   2.159  -0.788  0.00  0.00    +0.090 C 
BRANCH  26  27
ATOM     27  C   UNL     1      -1.877   2.260   0.568  0.00  0.00    -0.063 C 
BRANCH  27  28
ATOM     28  N   UNL     1      -3.083   3.098   0.425  0.00  0.00    +0.382 N 
ATOM     29  H   UNL     1      -3.713   2.670  -0.263  0.00  0.00    -0.086 HD
ATOM     30  H   UNL     1      -2.809   4.034   0.103  0.00  0.00    -0.086 HD
BRANCH  28  31
ATOM     31  C   UNL     1      -3.782   3.213   1.719  0.00  0.00    -0.054 C 
BRANCH  31  32
ATOM     32  C   UNL     1      -5.026   4.086   1.541  0.00  0.00    +0.137 C 
BRANCH  32  33
ATOM     33  O   UNL     1      -5.946   3.430   0.666  0.00  0.00    -0.397 OA
ATOM     34  H   UNL     1      -6.760   3.927   0.508  0.00  0.00    +0.209 HD
ENDBRANCH  32  33
ENDBRANCH  31  32
ENDBRANCH  28  31
ENDBRANCH  27  28
ENDBRANCH  26  27
ENDBRANCH   8  26
TORSDOF 10
