REMARK  Name = ZINC40760742
REMARK  8 active torsions:
REMARK  status: ('A' for Active; 'I' for Inactive)
REMARK    1  A    between atoms: C_1  and  C_2
REMARK    2  A    between atoms: C_2  and  C_26
REMARK    3  A    between atoms: C_4  and  N_10
REMARK    4  A    between atoms: C_6  and  C_8
REMARK    5  A    between atoms: C_6  and  C_9
REMARK    6  A    between atoms: C_12  and  N_25
REMARK    7  A    between atoms: C_13  and  N_17
REMARK    8  A    between atoms: N_17  and  C_18
REMARK                            x       y       z     vdW  Elec       q    Type
REMARK                         _______ _______ _______ _____ _____    ______ ____
ROOT
ATOM      1  N   UNL     1       3.144  -1.463  -2.234  0.00  0.00    -0.325 N 
ATOM      2  C   UNL     1       4.193  -0.791  -2.851  0.00  0.00    +0.145 A 
ATOM      3  C   UNL     1       4.580  -1.122  -4.151  0.00  0.00    +0.105 A 
ATOM      4  C   UNL     1       5.639  -0.416  -4.724  0.00  0.00    +0.149 A 
ATOM      5  N   UNL     1       6.234   0.540  -4.014  0.00  0.00    -0.219 NA
ATOM      6  C   UNL     1       5.838   0.822  -2.790  0.00  0.00    +0.225 A 
ATOM      7  N   UNL     1       4.839   0.183  -2.215  0.00  0.00    -0.219 NA
ATOM      8  H   UNL     1       2.679  -2.171  -2.705  0.00  0.00    +0.148 HD
ENDROOT
BRANCH   1  12
ATOM      9  C   UNL     1       0.657   0.366   0.907  0.00  0.00    -0.010 C 
ATOM     10  C   UNL     1       0.842  -1.149   0.766  0.00  0.00    -0.072 C 
ATOM     11  C   UNL     1       1.278  -1.485  -0.656  0.00  0.00    +0.009 C 
ATOM     12  C   UNL     1       2.743  -1.101  -0.869  0.00  0.00    +0.069 C 
ATOM     13  C   UNL     1       3.592  -1.885   0.131  0.00  0.00    +0.009 C 
ATOM     14  C   UNL     1       3.173  -1.552   1.560  0.00  0.00    -0.072 C 
ATOM     15  N   UNL     1       1.742  -1.667   1.781  0.00  0.00    +0.386 N 
ATOM     16  C   UNL     1       3.686  -0.159   1.939  0.00  0.00    -0.010 C 
ATOM     17  C   UNL     1       3.876  -2.564   2.494  0.00  0.00    -0.010 C 
ATOM     18  C   UNL     1      -0.543  -1.798   0.990  0.00  0.00    -0.010 C 
ATOM     19  H   UNL     1       1.518  -1.212   2.672  0.00  0.00    -0.084 HD
ATOM     20  H   UNL     1       1.520  -2.656   1.932  0.00  0.00    -0.084 HD
ENDBRANCH   1  12
BRANCH   3  21
ATOM     21  N   UNL     1       3.923  -2.139  -4.862  0.00  0.00    -0.353 N 
ATOM     22  H   UNL     1       3.189  -2.622  -4.451  0.00  0.00    +0.143 HD
ATOM     23  H   UNL     1       4.203  -2.359  -5.765  0.00  0.00    +0.143 HD
ENDBRANCH   3  21
BRANCH   4  24
ATOM     24  N   UNL     1       6.065  -0.707  -6.015  0.00  0.00    -0.297 N 
ATOM     25  H   UNL     1       5.568  -1.337  -6.560  0.00  0.00    +0.154 HD
BRANCH  24  26
ATOM     26  C   UNL     1       7.210  -0.090  -6.529  0.00  0.00    +0.047 A 
ATOM     27  C   UNL     1       8.191   0.384  -5.667  0.00  0.00    +0.024 A 
ATOM     28  C   UNL     1       9.321   0.991  -6.177  0.00  0.00    +0.002 A 
ATOM     29  C   UNL     1       9.477   1.129  -7.545  0.00  0.00    +0.001 A 
ATOM     30  C   UNL     1       8.503   0.659  -8.406  0.00  0.00    +0.017 A 
ATOM     31  C   UNL     1       7.372   0.044  -7.902  0.00  0.00    +0.039 A 
ATOM     32 BR   UNL     1       6.043  -0.605  -9.080  0.00  0.00    -0.048 Br
ENDBRANCH  24  26
ENDBRANCH   4  24
TORSDOF 4
