REMARK  Name = ZINC29642969
REMARK  11 active torsions:
REMARK  status: ('A' for Active; 'I' for Inactive)
REMARK    1  A    between atoms: C_1  and  C_2
REMARK    2  A    between atoms: C_2  and  C_3
REMARK    3  A    between atoms: C_2  and  C_4
REMARK    4  A    between atoms: C_4  and  C_5
REMARK    5  A    between atoms: C_5  and  N_6
REMARK    6  A    between atoms: N_6  and  C_7
REMARK    7  A    between atoms: C_7  and  N_9
REMARK    8  A    between atoms: N_9  and  N_10
REMARK    9  A    between atoms: C_11  and  C_13
REMARK   10  A    between atoms: C_15  and  S_20
REMARK   11  A    between atoms: S_20  and  N_23
REMARK                            x       y       z     vdW  Elec       q    Type
REMARK                         _______ _______ _______ _____ _____    ______ ____
ROOT
ATOM      1  N   UNL     1      -3.751  -0.722   3.188  0.00  0.00    -0.231 N 
ATOM      2  C   UNL     1      -3.547   0.494   3.732  0.00  0.00    +0.262 C 
ATOM      3  O   UNL     1      -4.173   0.831   4.718  0.00  0.00    -0.269 OA
ATOM      4  H   UNL     1      -3.185  -1.027   2.296  0.00  0.00    +0.173 HD
ENDROOT
BRANCH   2   5
ATOM      5  C   UNL     1      -2.563   1.418   3.130  0.00  0.00    +0.058 A 
ATOM      6  C   UNL     1      -1.843   1.034   1.997  0.00  0.00    +0.043 A 
ATOM      7  C   UNL     1      -0.927   1.900   1.439  0.00  0.00    +0.106 A 
ATOM      8  C   UNL     1      -0.715   3.147   2.003  0.00  0.00    +0.030 A 
ATOM      9  C   UNL     1      -1.429   3.537   3.122  0.00  0.00    +0.022 A 
ATOM     10  C   UNL     1      -2.350   2.679   3.691  0.00  0.00    +0.053 A 
ATOM     11 CL   UNL     1      -3.240   3.167   5.099  0.00  0.00    -0.083 Cl
BRANCH   7  12
ATOM     12  S   UNL     1      -0.017   1.417   0.010  0.00  0.00    +0.056 S 
ATOM     13  O   UNL     1       0.002  -0.004   0.002  0.00  0.00    -0.153 OA
ATOM     14  O   UNL     1       1.172   2.195   0.003  0.00  0.00    -0.153 OA
BRANCH  12  15
ATOM     15  N   UNL     1      -0.897   1.885  -1.312  0.00  0.00    -0.204 NA
ATOM     16  H   UNL     1      -0.361   1.601  -2.229  0.00  0.00    +0.144 HD
ATOM     17  H   UNL     1      -1.036   2.977  -1.292  0.00  0.00    +0.144 HD
ENDBRANCH  12  15
ENDBRANCH   7  12
ENDBRANCH   2   5
BRANCH   1  18
ATOM     18  N   UNL     1      -4.684  -1.597   3.759  0.00  0.00    -0.246 N 
ATOM     19  H   UNL     1      -5.250  -1.292   4.652  0.00  0.00    +0.172 HD
BRANCH  18  20
ATOM     20  C   UNL     1      -4.888  -2.814   3.215  0.00  0.00    +0.147 C 
ATOM     21  S   UNL     1      -6.027  -3.883   3.913  0.00  0.00    -0.017 S 
BRANCH  20  22
ATOM     22  N   UNL     1      -4.194  -3.188   2.122  0.00  0.00    -0.325 N 
ATOM     23  H   UNL     1      -3.462  -2.500   1.673  0.00  0.00    +0.148 HD
BRANCH  22  24
ATOM     24  C   UNL     1      -4.416  -4.509   1.530  0.00  0.00    +0.103 C 
BRANCH  24  25
ATOM     25  C   UNL     1      -3.510  -4.680   0.309  0.00  0.00    +0.021 C 
BRANCH  25  27
ATOM     26  C   UNL     1      -5.170  -6.144  -0.849  0.00  0.00    +0.007 C 
ATOM     27  C   UNL     1      -3.741  -6.061  -0.308  0.00  0.00    -0.016 C 
ATOM     28  C   UNL     1      -2.749  -6.281  -1.452  0.00  0.00    +0.007 C 
ENDBRANCH  25  27
ENDBRANCH  24  25
ENDBRANCH  22  24
ENDBRANCH  20  22
ENDBRANCH  18  20
ENDBRANCH   1  18
TORSDOF 9
