REMARK  Name = ZINC09723320
REMARK  10 active torsions:
REMARK  status: ('A' for Active; 'I' for Inactive)
REMARK    1  A    between atoms: C_1  and  O_2
REMARK    2  A    between atoms: O_2  and  C_3
REMARK    3  A    between atoms: C_3  and  C_4
REMARK    4  A    between atoms: C_4  and  N_5
REMARK    5  A    between atoms: C_9  and  S_31
REMARK    6  A    between atoms: N_14  and  C_15
REMARK    7  A    between atoms: C_15  and  C_17
REMARK    8  A    between atoms: C_20  and  C_23
REMARK    9  A    between atoms: C_23  and  C_25
REMARK   10  A    between atoms: S_31  and  N_34
REMARK                            x       y       z     vdW  Elec       q    Type
REMARK                         _______ _______ _______ _____ _____    ______ ____
ROOT
ATOM      1  N   UNL     1      -0.014  12.538  -0.695  0.00  0.00    -0.319 N 
ATOM      2  C   UNL     1       0.024  13.870  -1.062  0.00  0.00    +0.058 A 
ATOM      3  C   UNL     1      -1.046  14.771  -1.183  0.00  0.00    +0.029 A 
ATOM      4  C   UNL     1      -0.828  16.073  -1.565  0.00  0.00    +0.030 A 
ATOM      5  C   UNL     1       0.448  16.537  -1.840  0.00  0.00    +0.106 A 
ATOM      6  C   UNL     1       1.521  15.671  -1.728  0.00  0.00    +0.045 A 
ATOM      7  C   UNL     1       1.304  14.367  -1.347  0.00  0.00    +0.041 A 
ATOM      8  S   UNL     1       2.356  12.963  -1.079  0.00  0.00    -0.052 S 
ATOM      9  C   UNL     1       1.136  11.815  -0.631  0.00  0.00    +0.167 A 
ATOM     10  N   UNL     1       1.289  10.537  -0.300  0.00  0.00    -0.152 NA
ENDROOT
BRANCH   5  11
ATOM     11  S   UNL     1       0.701  18.212  -2.326  0.00  0.00    +0.056 S 
ATOM     12  O   UNL     1      -0.403  18.952  -1.825  0.00  0.00    -0.153 OA
ATOM     13  O   UNL     1       2.046  18.531  -1.995  0.00  0.00    -0.153 OA
BRANCH  11  14
ATOM     14  N   UNL     1       0.596  18.263  -3.978  0.00  0.00    -0.204 NA
ATOM     15  H   UNL     1       0.422  17.451  -4.478  0.00  0.00    +0.144 HD
ATOM     16  H   UNL     1       0.708  19.106  -4.444  0.00  0.00    +0.144 HD
ENDBRANCH  11  14
ENDBRANCH   5  11
BRANCH  10  17
ATOM     17  C   UNL     1       2.508   9.990  -0.293  0.00  0.00    +0.269 C 
ATOM     18  O   UNL     1       3.480  10.663  -0.589  0.00  0.00    -0.268 OA
BRANCH  17  19
ATOM     19  C   UNL     1       2.679   8.564   0.077  0.00  0.00    +0.039 A 
ATOM     20  C   UNL     1       3.952   7.993   0.084  0.00  0.00    +0.014 A 
ATOM     21  C   UNL     1       4.112   6.669   0.427  0.00  0.00    +0.012 A 
ATOM     22  C   UNL     1       2.998   5.897   0.768  0.00  0.00    +0.022 A 
ATOM     23  C   UNL     1       1.723   6.468   0.755  0.00  0.00    +0.012 A 
ATOM     24  C   UNL     1       1.566   7.794   0.417  0.00  0.00    +0.014 A 
BRANCH  22  25
ATOM     25  C   UNL     1       3.168   4.475   1.137  0.00  0.00    +0.193 C 
ATOM     26  O   UNL     1       4.255   3.944   1.023  0.00  0.00    -0.287 OA
BRANCH  25  27
ATOM     27  C   UNL     1       2.017   3.701   1.645  0.00  0.00    +0.022 A 
ATOM     28  C   UNL     1       1.077   4.308   2.480  0.00  0.00    +0.012 A 
ATOM     29  C   UNL     1       0.004   3.579   2.950  0.00  0.00    +0.001 A 
ATOM     30  C   UNL     1      -0.138   2.248   2.600  0.00  0.00    +0.000 A 
ATOM     31  C   UNL     1       0.787   1.642   1.768  0.00  0.00    +0.001 A 
ATOM     32  C   UNL     1       1.864   2.358   1.291  0.00  0.00    +0.012 A 
ENDBRANCH  25  27
ENDBRANCH  22  25
ENDBRANCH  17  19
ENDBRANCH  10  17
BRANCH   1  33
ATOM     33  C   UNL     1      -1.295  11.904  -0.373  0.00  0.00    +0.152 C 
BRANCH  33  34
ATOM     34  C   UNL     1      -1.293  10.462  -0.883  0.00  0.00    +0.181 C 
BRANCH  34  36
ATOM     35  C   UNL     1      -2.686   8.525  -1.115  0.00  0.00    +0.194 C 
ATOM     36  O   UNL     1      -2.580   9.879  -0.670  0.00  0.00    -0.381 OA
ENDBRANCH  34  36
ENDBRANCH  33  34
ENDBRANCH   1  33
TORSDOF 9
