REMARK  Name = ZINC64683664
REMARK  9 active torsions:
REMARK  status: ('A' for Active; 'I' for Inactive)
REMARK    1  A    between atoms: C_1  and  O_2
REMARK    2  A    between atoms: O_2  and  C_3
REMARK    3  A    between atoms: C_6  and  C_9
REMARK    4  A    between atoms: C_12  and  C_16
REMARK    5  A    between atoms: C_16  and  N_17
REMARK    6  A    between atoms: N_20  and  CA_21
REMARK    7  A    between atoms: CA_21  and  CB_23
REMARK    8  A    between atoms: CA_21  and  C_33
REMARK    9  A    between atoms: CB_23  and  CG_24
REMARK                            x       y       z     vdW  Elec       q    Type
REMARK                         _______ _______ _______ _____ _____    ______ ____
ROOT
ATOM      1  N   UNK A   0      -6.388  -6.742   2.108  0.00  0.00    -0.297 N 
ATOM      2  C   UNK A   0      -6.368  -7.717   3.038  0.00  0.00    +0.300 C 
ATOM      3  O   UNK A   0      -5.847  -7.515   4.118  0.00  0.00    -0.253 OA
ATOM      4  N   TRP A   1      -6.924  -8.915   2.771  0.00  0.00    -0.286 N 
ATOM      5  H   UNK A   0      -6.804  -6.903   1.246  0.00  0.00    +0.150 HD
ATOM      6  H   TRP A   1      -7.339  -9.076   1.910  0.00  0.00    +0.151 HD
ENDROOT
BRANCH   1   7
ATOM      7  C   UNK A   0      -5.784  -5.440   2.398  0.00  0.00    +0.139 C 
BRANCH   7  10
ATOM      8  C   UNK A   0      -4.981  -2.629   0.035  0.00  0.00    +0.114 C 
ATOM      9  C   UNK A   0      -5.312  -3.133   1.459  0.00  0.00    +0.061 C 
ATOM     10  C   UNK A   0      -5.943  -4.522   1.184  0.00  0.00    +0.161 C 
ATOM     11  O   UNK A   0      -5.166  -5.007   0.065  0.00  0.00    -0.294 OA
ATOM     12  N   UNK A   0      -4.926  -3.843  -0.806  0.00  0.00    -0.193 NA
ATOM     13  H   UNK A   0      -5.608  -3.799  -1.549  0.00  0.00    +0.154 HD
BRANCH   8  17
ATOM     14  C   UNK A   0      -1.200  -0.637   0.010  0.00  0.00    +0.120 A 
ATOM     15  C   UNK A   0      -2.375   0.101   0.019  0.00  0.00    +0.046 A 
ATOM     16  C   UNK A   0      -3.596  -0.545   0.027  0.00  0.00    +0.009 A 
ATOM     17  C   UNK A   0      -3.648  -1.927   0.026  0.00  0.00    -0.028 A 
ATOM     18  C   UNK A   0      -2.479  -2.665   0.017  0.00  0.00    +0.009 A 
ATOM     19  C   UNK A   0      -1.255  -2.024   0.003  0.00  0.00    +0.046 A 
BRANCH  14  21
ATOM     20  C   UNK A   0      -0.017   1.425   0.010  0.00  0.00    +0.277 C 
ATOM     21  O   UNK A   0       0.002  -0.004   0.002  0.00  0.00    -0.495 OA
ENDBRANCH  14  21
ENDBRANCH   8  17
ENDBRANCH   7  10
ENDBRANCH   1   7
BRANCH   4  22
ATOM     22  CA  TRP A   1      -6.901  -9.975   3.783  0.00  0.00    +0.191 C 
BRANCH  22  23
ATOM     23  C   TRP A   1      -5.596 -10.723   3.697  0.00  0.00    +0.376 C 
ATOM     24  O   TRP A   1      -4.762 -10.402   2.868  0.00  0.00    -0.244 OA
ATOM     25  OXT TRP A   1      -5.374 -11.651   4.457  0.00  0.00    -0.244 OA
ENDBRANCH  22  23
BRANCH  22  26
ATOM     26  CB  TRP A   1      -8.061 -10.941   3.535  0.00  0.00    +0.067 C 
BRANCH  26  27
ATOM     27  CG  TRP A   1      -9.368 -10.221   3.741  0.00  0.00    -0.039 C 
ATOM     28  CD2 TRP A   1     -10.134  -9.637   2.791  0.00  0.00    -0.001 A 
ATOM     29  CE3 TRP A   1      -9.983  -9.501   1.337  0.00  0.00    +0.010 A 
ATOM     30  CZ3 TRP A   1     -10.937  -8.846   0.637  0.00  0.00    +0.001 A 
ATOM     31  CH2 TRP A   1     -12.063  -8.294   1.264  0.00  0.00    +0.002 A 
ATOM     32  CZ2 TRP A   1     -12.271  -8.378   2.595  0.00  0.00    +0.026 A 
ATOM     33  CE2 TRP A   1     -11.332  -9.045   3.429  0.00  0.00    +0.043 A 
ATOM     34  NE1 TRP A   1     -11.308  -9.256   4.723  0.00  0.00    -0.380 N 
ATOM     35  CD1 TRP A   1     -10.094 -10.011   5.051  0.00  0.00    +0.144 C 
ATOM     36  HE1 TRP A   1     -11.982  -8.965   5.356  0.00  0.00    +0.160 HD
ENDBRANCH  26  27
ENDBRANCH  22  26
ENDBRANCH   4  22
TORSDOF 8
