REMARK  Name = ZINC26825276
REMARK  9 active torsions:
REMARK  status: ('A' for Active; 'I' for Inactive)
REMARK    1  A    between atoms: C_1  and  C_2
REMARK    2  A    between atoms: C_2  and  C_3
REMARK    3  A    between atoms: C_3  and  O_4
REMARK    4  A    between atoms: O_4  and  C_5
REMARK    5  A    between atoms: C_6  and  C_16
REMARK    6  A    between atoms: C_19  and  C_21
REMARK    7  A    between atoms: C_23  and  C_28
REMARK    8  A    between atoms: C_25  and  S_26
REMARK    9  A    between atoms: S_26  and  C_27
REMARK                            x       y       z     vdW  Elec       q    Type
REMARK                         _______ _______ _______ _____ _____    ______ ____
ROOT
ATOM      1  C   UNL     1       4.020  -0.717  -0.302  0.00  0.00    +0.085 A 
ATOM      2  C   UNL     1       5.045   0.168  -0.491  0.00  0.00    +0.075 A 
ATOM      3  S   UNL     1       4.141   1.706  -0.603  0.00  0.00    -0.075 S 
ATOM      4  C   UNL     1       2.505   1.019  -0.390  0.00  0.00    +0.111 A 
ATOM      5  N   UNL     1       2.777  -0.271  -0.250  0.00  0.00    -0.239 NA
ENDROOT
BRANCH   1   7
ATOM      6  C   UNL     1       3.369  -3.164   0.051  0.00  0.00    +0.229 A 
ATOM      7  C   UNL     1       4.301  -2.167  -0.150  0.00  0.00    +0.082 A 
ATOM      8  C   UNL     1       5.570  -2.778  -0.177  0.00  0.00    +0.148 A 
ATOM      9  N   UNL     1       5.413  -4.064  -0.009  0.00  0.00    -0.170 NA
ATOM     10  N   UNL     1       4.048  -4.340   0.132  0.00  0.00    -0.182 N 
ATOM     11  C   UNL     1       3.482  -5.602   0.330  0.00  0.00    +0.158 A 
ATOM     12  C   UNL     1       4.149  -6.734  -0.124  0.00  0.00    +0.048 A 
ATOM     13  C   UNL     1       3.578  -7.978   0.079  0.00  0.00    +0.005 A 
ATOM     14  C   UNL     1       2.355  -8.047   0.732  0.00  0.00    +0.020 A 
ATOM     15  C   UNL     1       1.749  -6.881   1.156  0.00  0.00    +0.113 A 
ATOM     16  N   UNL     1       2.320  -5.709   0.953  0.00  0.00    -0.236 NA
BRANCH   6  17
ATOM     17  O   UNL     1       2.025  -3.002   0.145  0.00  0.00    -0.476 OA
BRANCH  17  18
ATOM     18  C   UNL     1       1.268  -3.146  -1.058  0.00  0.00    +0.230 C 
BRANCH  18  20
ATOM     19  C   UNL     1      -1.021  -3.040  -2.054  0.00  0.00    +0.007 C 
ATOM     20  C   UNL     1      -0.211  -2.886  -0.765  0.00  0.00    +0.038 C 
ENDBRANCH  18  20
ENDBRANCH  17  18
ENDBRANCH   6  17
ENDBRANCH   1   7
BRANCH   4  21
ATOM     21  C   UNL     1       1.200   1.706  -0.367  0.00  0.00    +0.028 A 
ATOM     22  C   UNL     1       0.022   0.998  -0.188  0.00  0.00    +0.030 A 
ATOM     23  C   UNL     1      -1.150   1.705  -0.185  0.00  0.00    +0.051 A 
ATOM     24  S   UNL     1      -0.594   3.382  -0.426  0.00  0.00    -0.079 S 
ATOM     25  C   UNL     1       1.111   3.088  -0.527  0.00  0.00    +0.055 A 
BRANCH  23  26
ATOM     26  C   UNL     1      -2.521   1.207  -0.023  0.00  0.00    +0.101 C 
ATOM     27  N   UNL     1      -2.737  -0.072   0.148  0.00  0.00    -0.386 N 
ATOM     28  N   UNL     1      -3.584   2.089  -0.050  0.00  0.00    -0.344 N 
ATOM     29  H   UNL     1      -3.764  -0.445   0.270  0.00  0.00    +0.157 HD
ATOM     30  H   UNL     1      -4.611   1.716   0.072  0.00  0.00    +0.144 HD
ATOM     31  H   UNL     1      -3.402   3.165  -0.193  0.00  0.00    +0.144 HD
ATOM     32  H   UNL     1      -1.891  -0.775   0.169  0.00  0.00    +0.157 HD
ENDBRANCH  23  26
BRANCH  25  33
ATOM     33  S   UNL     1       2.413   4.250  -0.772  0.00  0.00    -0.121 S 
ATOM     34  C   UNL     1       1.452   5.780  -0.879  0.00  0.00    +0.090 C 
ENDBRANCH  25  33
ENDBRANCH   4  21
TORSDOF 7
