REMARK  Name = ZINC33905010
REMARK  8 active torsions:
REMARK  status: ('A' for Active; 'I' for Inactive)
REMARK    1  A    between atoms: C_1  and  S_2
REMARK    2  A    between atoms: S_2  and  C_3
REMARK    3  A    between atoms: C_3  and  C_4
REMARK    4  A    between atoms: C_4  and  C_5
REMARK    5  A    between atoms: C_5  and  C_7
REMARK    6  A    between atoms: C_5  and  N_25
REMARK    7  A    between atoms: C_9  and  C_12
REMARK    8  A    between atoms: N_14  and  C_15
REMARK                            x       y       z     vdW  Elec       q    Type
REMARK                         _______ _______ _______ _____ _____    ______ ____
ROOT
ATOM      1  C   UNL     1       1.744  -3.825   3.089  0.00  0.00    +0.182 A 
ATOM      2  N   UNL     1       1.011  -4.474   3.943  0.00  0.00    -0.210 NA
ATOM      3  C   UNL     1       1.271  -5.803   3.812  0.00  0.00    +0.163 A 
ATOM      4  C   UNL     1       2.204  -5.934   2.830  0.00  0.00    +0.230 A 
ATOM      5  O   UNL     1       2.483  -4.697   2.389  0.00  0.00    -0.449 OA
ENDROOT
BRANCH   3   6
ATOM      6  C   UNL     1       0.657  -6.896   4.588  0.00  0.00    +0.266 C 
ATOM      7  O   UNL     1       0.978  -8.049   4.373  0.00  0.00    -0.268 OA
ATOM      8  N   UNL     1      -0.259  -6.617   5.537  0.00  0.00    -0.304 N 
ATOM      9  H   UNL     1      -0.515  -5.697   5.708  0.00  0.00    +0.150 HD
BRANCH   8  10
ATOM     10  C   UNL     1      -0.869  -7.703   6.308  0.00  0.00    +0.036 C 
ATOM     11  C   UNL     1       0.222  -8.468   7.061  0.00  0.00    +0.029 C 
ATOM     12  C   UNL     1      -0.415  -9.602   7.867  0.00  0.00    -0.008 C 
ATOM     13  C   UNL     1      -1.413  -9.019   8.869  0.00  0.00    +0.007 C 
ATOM     14  C   UNL     1      -2.503  -8.254   8.116  0.00  0.00    -0.008 C 
ATOM     15  C   UNL     1      -1.866  -7.119   7.310  0.00  0.00    +0.029 C 
ATOM     16  C   UNL     1      -3.232  -9.207   7.166  0.00  0.00    +0.007 C 
ATOM     17  C   UNL     1      -2.234  -9.790   6.164  0.00  0.00    -0.008 C 
ATOM     18  C   UNL     1      -1.144 -10.556   6.917  0.00  0.00    +0.007 C 
ATOM     19  C   UNL     1      -1.597  -8.656   5.359  0.00  0.00    +0.029 C 
ENDBRANCH   8  10
ENDBRANCH   3   6
BRANCH   1  20
ATOM     20  C   UNL     1       1.757  -2.329   2.909  0.00  0.00    +0.014 C 
BRANCH  20  21
ATOM     21  N   UNL     1       3.145  -1.860   2.805  0.00  0.00    +0.386 N 
ATOM     22  H   UNL     1       3.154  -0.858   2.685  0.00  0.00    -0.089 HD
ATOM     23  H   UNL     1       3.646  -2.102   3.647  0.00  0.00    -0.089 HD
ATOM     24  H   UNL     1       3.589  -2.297   2.012  0.00  0.00    -0.089 HD
ENDBRANCH  20  21
BRANCH  20  25
ATOM     25  C   UNL     1       0.997  -1.962   1.633  0.00  0.00    +0.004 C 
BRANCH  25  26
ATOM     26  C   UNL     1       0.902  -0.439   1.516  0.00  0.00    +0.068 C 
BRANCH  26  28
ATOM     27  C   UNL     1      -0.022   1.810   0.012  0.00  0.00    +0.084 C 
ATOM     28  S   UNL     1       0.002  -0.004   0.002  0.00  0.00    -0.164 S 
ENDBRANCH  26  28
ENDBRANCH  25  26
ENDBRANCH  20  25
ENDBRANCH   1  20
TORSDOF 7
