REMARK  Name = ZINC66160624
REMARK  9 active torsions:
REMARK  status: ('A' for Active; 'I' for Inactive)
REMARK    1  A    between atoms: C_1  and  C_2
REMARK    2  A    between atoms: C_2  and  C_3
REMARK    3  A    between atoms: C_3  and  C_4
REMARK    4  A    between atoms: C_3  and  C_5
REMARK    5  A    between atoms: C_3  and  O_25
REMARK    6  A    between atoms: C_5  and  N_6
REMARK    7  A    between atoms: N_9  and  C_10
REMARK    8  A    between atoms: C_13  and  N_17
REMARK    9  A    between atoms: C_18  and  C_20
REMARK                            x       y       z     vdW  Elec       q    Type
REMARK                         _______ _______ _______ _____ _____    ______ ____
ROOT
ATOM      1  C   UNL     1       2.147  -5.619  -4.173  0.00  0.00    +0.036 A 
ATOM      2  C   UNL     1       3.296  -6.108  -4.781  0.00  0.00    +0.025 A 
ATOM      3  C   UNL     1       3.438  -7.464  -4.999  0.00  0.00    +0.026 A 
ATOM      4  C   UNL     1       2.432  -8.339  -4.611  0.00  0.00    +0.052 A 
ATOM      5  C   UNL     1       1.282  -7.850  -4.003  0.00  0.00    +0.064 A 
ATOM      6  C   UNL     1       1.143  -6.493  -3.780  0.00  0.00    +0.045 A 
ATOM      7 CL   UNL     1       0.024  -8.943  -3.517  0.00  0.00    -0.082 Cl
ENDROOT
BRANCH   1  11
ATOM      8  N   UNL     1       1.317  -2.479  -2.586  0.00  0.00    -0.296 N 
ATOM      9  C   UNL     1       1.375  -3.800  -2.845  0.00  0.00    +0.304 C 
ATOM     10  O   UNL     1       0.858  -4.593  -2.081  0.00  0.00    -0.253 OA
ATOM     11  N   UNL     1       2.004  -4.243  -3.952  0.00  0.00    -0.269 N 
ATOM     12  H   UNL     1       1.729  -1.846  -3.195  0.00  0.00    +0.150 HD
ATOM     13  H   UNL     1       2.358  -3.609  -4.595  0.00  0.00    +0.156 HD
BRANCH   8  14
ATOM     14  C   UNL     1       0.633  -1.998  -1.383  0.00  0.00    +0.140 C 
BRANCH  14  15
ATOM     15  C   UNL     1       0.713  -0.471  -1.327  0.00  0.00    +0.078 C 
ATOM     16  C   UNL     1       0.040   0.121  -2.568  0.00  0.00    +0.043 C 
BRANCH  15  18
ATOM     17  C   UNL     1      -0.031   1.562  -0.078  0.00  0.00    +0.007 C 
ATOM     18  C   UNL     1      -0.002   0.032  -0.071  0.00  0.00    +0.032 C 
ENDBRANCH  15  18
BRANCH  15  19
ATOM     19  O   UNL     1       2.083  -0.066  -1.290  0.00  0.00    -0.387 OA
ATOM     20  H   UNL     1       2.572  -0.406  -0.528  0.00  0.00    +0.210 HD
ENDBRANCH  15  19
ENDBRANCH  14  15
ENDBRANCH   8  14
ENDBRANCH   1  11
BRANCH   4  21
ATOM     21  N   UNL     1       2.575  -9.715  -4.832  0.00  0.00    -0.278 N 
ATOM     22  C   UNL     1       3.791 -10.289  -4.740  0.00  0.00    +0.284 C 
ATOM     23  O   UNL     1       4.776  -9.600  -4.547  0.00  0.00    -0.266 OA
ATOM     24  H   UNL     1       1.800 -10.254  -5.052  0.00  0.00    +0.155 HD
BRANCH  22  25
ATOM     25  C   UNL     1       3.928 -11.742  -4.873  0.00  0.00    +0.189 A 
ATOM     26  C   UNL     1       5.093 -12.449  -4.796  0.00  0.00    +0.054 A 
ATOM     27  C   UNL     1       4.759 -13.800  -4.979  0.00  0.00    +0.042 A 
ATOM     28  C   UNL     1       3.421 -13.858  -5.158  0.00  0.00    +0.196 A 
ATOM     29  O   UNL     1       2.923 -12.617  -5.088  0.00  0.00    -0.458 OA
ENDBRANCH  22  25
ENDBRANCH   4  21
TORSDOF 7
