REMARK  Name = ZINC04171132
REMARK  7 active torsions:
REMARK  status: ('A' for Active; 'I' for Inactive)
REMARK    1  A    between atoms: C_1  and  O_2
REMARK    2  A    between atoms: O_2  and  C_3
REMARK    3  A    between atoms: C_5  and  C_10
REMARK    4  A    between atoms: C_8  and  O_9
REMARK    5  A    between atoms: C_13  and  C_24
REMARK    6  A    between atoms: C_19  and  N_23
REMARK    7  A    between atoms: C_20  and  C_21
REMARK                            x       y       z     vdW  Elec       q    Type
REMARK                         _______ _______ _______ _____ _____    ______ ____
ROOT
ATOM      1  C   UNL     1      -5.197   0.716   0.216  0.00  0.00    +0.101 C 
ATOM      2  C   UNL     1      -5.938  -0.066  -0.837  0.00  0.00    +0.050 A 
ATOM      3  C   UNL     1      -5.707  -0.138  -2.204  0.00  0.00    +0.077 A 
ATOM      4  N   UNL     1      -6.601  -0.944  -2.726  0.00  0.00    -0.175 NA
ATOM      5  N   UNL     1      -7.433  -1.410  -1.697  0.00  0.00    -0.246 N 
ATOM      6  H   UNL     1      -8.179  -2.022  -1.798  0.00  0.00    +0.192 HD
ATOM      7  C   UNL     1      -7.012  -0.861  -0.546  0.00  0.00    +0.222 A 
ATOM      8  O   UNL     1      -7.496  -1.006   0.712  0.00  0.00    -0.423 OA
ATOM      9  C   UNL     1      -7.070  -0.135   1.649  0.00  0.00    +0.200 C 
ATOM     10  C   UNL     1      -6.013   0.692   1.484  0.00  0.00    +0.098 C 
ENDROOT
BRANCH   3  11
ATOM     11  C   UNL     1      -4.619   0.584  -2.957  0.00  0.00    +0.016 C 
ATOM     12  C   UNL     1      -4.671   2.076  -2.621  0.00  0.00    +0.016 C 
ATOM     13  C   UNL     1      -3.567   2.809  -3.385  0.00  0.00    -0.010 C 
ATOM     14  C   UNL     1      -2.204   2.242  -2.981  0.00  0.00    +0.007 C 
ATOM     15  C   UNL     1      -2.153   0.750  -3.316  0.00  0.00    -0.010 C 
ATOM     16  C   UNL     1      -3.257   0.017  -2.552  0.00  0.00    +0.016 C 
ATOM     17  C   UNL     1      -2.359   0.558  -4.820  0.00  0.00    +0.007 C 
ATOM     18  C   UNL     1      -3.721   1.125  -5.224  0.00  0.00    -0.010 C 
ATOM     19  C   UNL     1      -3.773   2.617  -4.889  0.00  0.00    +0.007 C 
ATOM     20  C   UNL     1      -4.826   0.392  -4.460  0.00  0.00    +0.016 C 
ENDBRANCH   3  11
BRANCH   1  23
ATOM     21  C   UNL     1      -1.503   0.303   0.894  0.00  0.00    +0.162 A 
ATOM     22  C   UNL     1      -2.740   0.882   0.664  0.00  0.00    +0.054 A 
ATOM     23  C   UNL     1      -3.852   0.084   0.466  0.00  0.00    -0.031 A 
ATOM     24  C   UNL     1      -3.732  -1.293   0.497  0.00  0.00    +0.008 A 
ATOM     25  C   UNL     1      -2.500  -1.878   0.727  0.00  0.00    +0.049 A 
ATOM     26  C   UNL     1      -1.381  -1.083   0.919  0.00  0.00    +0.158 A 
BRANCH  21  28
ATOM     27  C   UNL     1      -0.625   2.497   1.156  0.00  0.00    +0.277 C 
ATOM     28  O   UNL     1      -0.409   1.087   1.088  0.00  0.00    -0.491 OA
ENDBRANCH  21  28
BRANCH  26  29
ATOM     29  O   UNL     1      -0.168  -1.657   1.139  0.00  0.00    -0.503 OA
ATOM     30  H   UNL     1       0.027  -1.820   2.072  0.00  0.00    +0.292 HD
ENDBRANCH  26  29
ENDBRANCH   1  23
BRANCH   9  31
ATOM     31  N   UNL     1      -7.749  -0.086   2.842  0.00  0.00    -0.328 N 
ATOM     32  H   UNL     1      -8.511  -0.668   2.991  0.00  0.00    +0.145 HD
ATOM     33  H   UNL     1      -7.466   0.530   3.536  0.00  0.00    +0.145 HD
ENDBRANCH   9  31
BRANCH  10  34
ATOM     34  C   UNL     1      -5.657   1.579   2.551  0.00  0.00    +0.101 C 
ATOM     35  N   UNL     1      -5.374   2.282   3.397  0.00  0.00    -0.191 NA
ENDBRANCH  10  34
TORSDOF 6
