REMARK  Name = ZINC01032339
REMARK  6 active torsions:
REMARK  status: ('A' for Active; 'I' for Inactive)
REMARK    1  A    between atoms: C_1  and  O_2
REMARK    2  A    between atoms: O_2  and  C_3
REMARK    3  A    between atoms: C_3  and  C_5
REMARK    4  A    between atoms: C_6  and  N_33
REMARK    5  A    between atoms: N_7  and  C_26
REMARK    6  A    between atoms: C_10  and  C_12
REMARK                            x       y       z     vdW  Elec       q    Type
REMARK                         _______ _______ _______ _____ _____    ______ ____
ROOT
ATOM      1  C   UNL     1      -0.400   5.817   1.210  0.00  0.00    +0.084 C 
ATOM      2  C   UNL     1      -0.493   5.226   2.433  0.00  0.00    +0.103 C 
ATOM      3  N   UNL     1      -0.953   3.936   2.542  0.00  0.00    -0.258 N 
ATOM      4  C   UNL     1      -0.945   3.099   1.456  0.00  0.00    +0.025 C 
ATOM      5  C   UNL     1      -0.864   3.597   0.204  0.00  0.00    +0.025 C 
ATOM      6  C   UNL     1      -0.800   5.084  -0.036  0.00  0.00    +0.094 C 
ATOM      7  C   UNL     1      -0.840   2.744  -0.914  0.00  0.00    +0.162 C 
ATOM      8  O   UNL     1      -0.776   3.225  -2.028  0.00  0.00    -0.292 OA
ATOM      9  C   UNL     1      -0.893   1.249  -0.757  0.00  0.00    +0.080 C 
ATOM     10  C   UNL     1      -0.280   0.867   0.594  0.00  0.00    +0.014 C 
ATOM     11  C   UNL     1      -1.030   1.612   1.700  0.00  0.00    +0.052 C 
ENDROOT
BRANCH   6  12
ATOM     12  C   UNL     1      -2.155   5.571  -0.483  0.00  0.00    -0.031 A 
ATOM     13  C   UNL     1      -3.254   5.401   0.339  0.00  0.00    +0.008 A 
ATOM     14  C   UNL     1      -4.497   5.851  -0.064  0.00  0.00    +0.050 A 
ATOM     15  C   UNL     1      -4.647   6.463  -1.298  0.00  0.00    +0.166 A 
ATOM     16  C   UNL     1      -3.541   6.628  -2.128  0.00  0.00    +0.167 A 
ATOM     17  C   UNL     1      -2.297   6.181  -1.715  0.00  0.00    +0.054 A 
ATOM     18  O   UNL     1      -3.945   7.250  -3.274  0.00  0.00    -0.453 OA
ATOM     19  C   UNL     1      -5.376   7.096  -3.312  0.00  0.00    +0.466 C 
ATOM     20  O   UNL     1      -5.744   6.981  -1.924  0.00  0.00    -0.453 OA
ENDBRANCH   6  12
BRANCH   3  21
ATOM     21  C   UNL     1      -1.432   3.471   3.773  0.00  0.00    +0.075 A 
ATOM     22  C   UNL     1      -0.565   2.872   4.677  0.00  0.00    +0.027 A 
ATOM     23  C   UNL     1      -1.040   2.415   5.890  0.00  0.00    +0.002 A 
ATOM     24  C   UNL     1      -2.379   2.554   6.208  0.00  0.00    +0.003 A 
ATOM     25  C   UNL     1      -3.247   3.150   5.312  0.00  0.00    +0.040 A 
ATOM     26  C   UNL     1      -2.777   3.615   4.096  0.00  0.00    +0.145 A 
ATOM     27  F   UNL     1      -3.624   4.202   3.223  0.00  0.00    -0.204 F 
ENDBRANCH   3  21
BRANCH   2  28
ATOM     28  N   UNL     1      -0.128   5.920   3.558  0.00  0.00    -0.346 N 
ATOM     29  H   UNL     1       0.273   5.452   4.307  0.00  0.00    +0.143 HD
ATOM     30  H   UNL     1      -0.270   6.878   3.604  0.00  0.00    +0.143 HD
ENDBRANCH   2  28
BRANCH   1  31
ATOM     31  C   UNL     1       0.078   7.132   1.113  0.00  0.00    +0.339 C 
ATOM     32  O   UNL     1       0.510   7.697   2.102  0.00  0.00    -0.245 OA
BRANCH  31  34
ATOM     33  C   UNL     1       0.563   9.109  -0.102  0.00  0.00    +0.280 C 
ATOM     34  O   UNL     1       0.060   7.771  -0.076  0.00  0.00    -0.465 OA
ENDBRANCH  31  34
ENDBRANCH   1  31
TORSDOF 5
