REMARK  Name = ZINC39006611
REMARK  6 active torsions:
REMARK  status: ('A' for Active; 'I' for Inactive)
REMARK    1  A    between atoms: C_1  and  C_2
REMARK    2  A    between atoms: C_5  and  N_9
REMARK    3  A    between atoms: C_7  and  C_8
REMARK    4  A    between atoms: C_10  and  O_34
REMARK    5  A    between atoms: C_13  and  O_33
REMARK    6  A    between atoms: C_14  and  C_18
REMARK                            x       y       z     vdW  Elec       q    Type
REMARK                         _______ _______ _______ _____ _____    ______ ____
ROOT
ATOM      1  N   UNL     1       0.048  -4.085  -0.178  0.00  0.00    -0.225 N 
ATOM      2  C   UNL     1       0.128  -4.696   1.141  0.00  0.00    +0.338 C 
ATOM      3  N   UNL     1       0.591  -6.073   1.079  0.00  0.00    -0.204 NA
ATOM      4  C   UNL     1       0.542  -6.800   0.031  0.00  0.00    +0.200 C 
ATOM      5  C   UNL     1      -0.004  -6.307  -1.278  0.00  0.00    +0.183 C 
ATOM      6  C   UNL     1      -0.028  -4.805  -1.304  0.00  0.00    +0.237 C 
ATOM      7  O   UNL     1      -0.114  -4.232  -2.370  0.00  0.00    -0.274 OA
ENDROOT
BRANCH   5   8
ATOM      8  C   UNL     1      -1.429  -6.832  -1.462  0.00  0.00    +0.122 C 
ATOM      9  C   UNL     1      -1.942  -6.438  -2.826  0.00  0.00    +0.039 A 
ATOM     10  H   UNL     1      -0.356  -6.815  -4.123  0.00  0.00    +0.166 HD
ATOM     11  C   UNL     1      -3.189  -5.956  -3.034  0.00  0.00    -0.016 A 
ATOM     12  C   UNL     1      -3.316  -5.693  -4.450  0.00  0.00    +0.003 A 
ATOM     13  C   UNL     1      -4.360  -5.194  -5.234  0.00  0.00    +0.010 A 
ATOM     14  C   UNL     1      -4.122  -5.074  -6.581  0.00  0.00    +0.001 A 
ATOM     15  C   UNL     1      -2.908  -5.425  -7.149  0.00  0.00    +0.002 A 
ATOM     16  C   UNL     1      -1.857  -5.921  -6.396  0.00  0.00    +0.026 A 
ATOM     17  C   UNL     1      -2.070  -6.055  -5.026  0.00  0.00    +0.047 A 
ATOM     18  N   UNL     1      -1.267  -6.501  -4.015  0.00  0.00    -0.356 N 
ATOM     19  C   UNL     1      -4.200  -5.763  -1.932  0.00  0.00    +0.052 C 
ATOM     20  C   UNL     1      -3.722  -6.552  -0.705  0.00  0.00    +0.086 C 
ATOM     21  N   UNL     1      -2.309  -6.242  -0.440  0.00  0.00    -0.307 NA
ATOM     22  H   UNL     1      -2.038  -6.539   0.486  0.00  0.00    +0.123 HD
ENDBRANCH   5   8
BRANCH   1  27
ATOM     23  C   UNL     1       0.030   1.575  -0.561  0.00  0.00    +0.044 C 
ATOM     24  C   UNL     1       0.035   0.072  -0.459  0.00  0.00    -0.047 A 
ATOM     25  C   UNL     1       1.234  -0.616  -0.459  0.00  0.00    +0.005 A 
ATOM     26  C   UNL     1       1.242  -1.994  -0.366  0.00  0.00    +0.024 A 
ATOM     27  C   UNL     1       0.043  -2.689  -0.272  0.00  0.00    +0.041 A 
ATOM     28  C   UNL     1      -1.160  -1.995  -0.272  0.00  0.00    +0.027 A 
ATOM     29  C   UNL     1      -1.160  -0.617  -0.360  0.00  0.00    -0.046 A 
ATOM     30  C   UNL     1      -2.465   0.138  -0.355  0.00  0.00    +0.044 C 
ENDBRANCH   1  27
BRANCH   4  31
ATOM     31  O   UNL     1       1.001  -8.066   0.102  0.00  0.00    -0.495 OA
ATOM     32  H   UNL     1       1.337  -8.314   0.975  0.00  0.00    +0.293 HD
ENDBRANCH   4  31
BRANCH   2  33
ATOM     33  O   UNL     1      -1.167  -4.670   1.744  0.00  0.00    -0.356 OA
ATOM     34  H   UNL     1      -1.197  -5.061   2.628  0.00  0.00    +0.214 HD
ENDBRANCH   2  33
TORSDOF 4
