REMARK  Name = ZINC63374523
REMARK  12 active torsions:
REMARK  status: ('A' for Active; 'I' for Inactive)
REMARK    1  A    between atoms: C_1  and  C_2
REMARK    2  A    between atoms: C_2  and  C_3
REMARK    3  A    between atoms: C_2  and  O_4
REMARK    4  A    between atoms: O_4  and  C_5
REMARK    5  A    between atoms: C_8  and  C_13
REMARK    6  A    between atoms: C_10  and  O_11
REMARK    7  A    between atoms: O_11  and  C_12
REMARK    8  A    between atoms: N_20  and  C_35
REMARK    9  A    between atoms: C_23  and  C_34
REMARK   10  A    between atoms: C_35  and  C_36
REMARK   11  A    between atoms: C_36  and  C_37
REMARK   12  A    between atoms: C_37  and  O_38
REMARK                            x       y       z     vdW  Elec       q    Type
REMARK                         _______ _______ _______ _____ _____    ______ ____
ROOT
ATOM      1  C   UNL     1      -2.336  -5.229  -2.885  0.00  0.00    +0.065 C 
ATOM      2  C   UNL     1      -1.838  -5.073  -4.333  0.00  0.00    +0.121 C 
ATOM      3  N   UNL     1      -1.788  -6.401  -4.977  0.00  0.00    -0.283 N 
ATOM      4  C   UNL     1      -2.518  -6.592  -6.081  0.00  0.00    +0.234 C 
ATOM      5  O   UNL     1      -3.199  -5.668  -6.472  0.00  0.00    -0.274 OA
ATOM      6  C   UNL     1      -2.557  -7.859  -6.869  0.00  0.00    +0.203 C 
ATOM      7  N   UNL     1      -1.693  -8.883  -6.304  0.00  0.00    -0.291 N 
ATOM      8  C   UNL     1      -0.972  -8.709  -5.198  0.00  0.00    +0.242 C 
ATOM      9  O   UNL     1      -0.284  -9.634  -4.820  0.00  0.00    -0.273 OA
ATOM     10  C   UNL     1      -0.952  -7.452  -4.394  0.00  0.00    +0.135 C 
ATOM     11  C   UNL     1      -1.452  -7.730  -2.973  0.00  0.00    +0.139 C 
ATOM     12  C   UNL     1      -1.565  -6.376  -2.281  0.00  0.00    -0.027 C 
ATOM     13  C   UNL     1      -0.866  -6.472  -1.157  0.00  0.00    -0.000 A 
ATOM     14  C   UNL     1      -0.685  -5.540  -0.032  0.00  0.00    +0.010 A 
ATOM     15  C   UNL     1       0.135  -5.960   0.967  0.00  0.00    +0.001 A 
ATOM     16  C   UNL     1       0.786  -7.198   0.961  0.00  0.00    +0.002 A 
ATOM     17  C   UNL     1       0.668  -8.120  -0.027  0.00  0.00    +0.026 A 
ATOM     18  C   UNL     1      -0.176  -7.798  -1.129  0.00  0.00    +0.043 A 
ATOM     19  N   UNL     1      -0.495  -8.514  -2.193  0.00  0.00    -0.375 N 
ATOM     20  C   UNL     1       0.489  -6.945  -4.303  0.00  0.00    +0.044 C 
ATOM     21  H   UNL     1      -0.161  -9.395  -2.424  0.00  0.00    +0.160 HD
ENDROOT
BRANCH   1  25
ATOM     22  C   UNL     1      -1.580  -1.640  -0.687  0.00  0.00    +0.162 A 
ATOM     23  C   UNL     1      -0.532  -2.329  -1.276  0.00  0.00    +0.050 A 
ATOM     24  C   UNL     1      -0.780  -3.489  -1.986  0.00  0.00    +0.008 A 
ATOM     25  C   UNL     1      -2.072  -3.964  -2.110  0.00  0.00    -0.035 A 
ATOM     26  C   UNL     1      -3.122  -3.282  -1.525  0.00  0.00    +0.053 A 
ATOM     27  C   UNL     1      -2.880  -2.122  -0.807  0.00  0.00    +0.162 A 
BRANCH  27  28
ATOM     28  O   UNL     1      -3.912  -1.452  -0.226  0.00  0.00    -0.491 OA
ATOM     29  C   UNL     1      -5.219  -2.005  -0.391  0.00  0.00    +0.277 C 
ENDBRANCH  27  28
BRANCH  22  30
ATOM     30  O   UNL     1      -1.339  -0.499   0.012  0.00  0.00    -0.486 OA
BRANCH  30  32
ATOM     31  C   UNL     1      -0.011   1.505   0.263  0.00  0.00    +0.051 C 
ATOM     32  C   UNL     1       0.001  -0.002  -0.000  0.00  0.00    +0.167 C 
ATOM     33  C   UNL     1       0.815  -0.703   1.089  0.00  0.00    +0.051 C 
ENDBRANCH  30  32
ENDBRANCH  22  30
ENDBRANCH   1  25
BRANCH   7  34
ATOM     34  C   UNL     1      -1.613 -10.176  -6.987  0.00  0.00    +0.110 C 
BRANCH  34  35
ATOM     35  C   UNL     1      -0.486 -10.138  -8.021  0.00  0.00    +0.047 C 
BRANCH  35  36
ATOM     36  C   UNL     1      -0.402 -11.489  -8.735  0.00  0.00    +0.157 C 
BRANCH  36  37
ATOM     37  O   UNL     1       0.651 -11.453  -9.700  0.00  0.00    -0.395 OA
ATOM     38  H   UNL     1       0.762 -12.278 -10.192  0.00  0.00    +0.209 HD
ENDBRANCH  36  37
ENDBRANCH  35  36
ENDBRANCH  34  35
ENDBRANCH   7  34
TORSDOF 8
