REMARK  Name = ZINC04192251
REMARK  9 active torsions:
REMARK  status: ('A' for Active; 'I' for Inactive)
REMARK    1  A    between atoms: C_1  and  C_2
REMARK    2  A    between atoms: C_2  and  C_4
REMARK    3  A    between atoms: C_2  and  N_14
REMARK    4  A    between atoms: N_6  and  C_7
REMARK    5  A    between atoms: C_7  and  C_8
REMARK    6  A    between atoms: N_14  and  C_15
REMARK    7  A    between atoms: C_20  and  C_22
REMARK    8  A    between atoms: C_23  and  N_30
REMARK    9  A    between atoms: C_24  and  C_27
REMARK                            x       y       z     vdW  Elec       q    Type
REMARK                         _______ _______ _______ _____ _____    ______ ____
ROOT
ATOM      1  N   UNL     1      -3.584   1.857   0.087  0.00  0.00    -0.283 N 
ATOM      2  C   UNL     1      -4.374   1.760   1.174  0.00  0.00    +0.257 C 
ATOM      3  O   UNL     1      -4.198   0.861   1.976  0.00  0.00    -0.269 OA
ENDROOT
BRANCH   1   4
ATOM      4  C   UNL     1      -3.805   2.930  -0.885  0.00  0.00    +0.077 C 
ATOM      5  C   UNL     1      -2.881   2.737  -2.106  0.00  0.00    +0.022 C 
ATOM      6  C   UNL     1      -2.469   4.176  -2.502  0.00  0.00    +0.002 C 
ATOM      7  C   UNL     1      -2.298   4.873  -1.129  0.00  0.00    +0.002 C 
ATOM      8  C   UNL     1      -3.434   4.289  -0.265  0.00  0.00    +0.022 C 
ENDBRANCH   1   4
BRANCH   2   9
ATOM      9  C   UNL     1      -5.444   2.735   1.392  0.00  0.00    +0.115 A 
ATOM     10  C   UNL     1      -6.262   2.918   2.508  0.00  0.00    +0.076 A 
ATOM     11  C   UNL     1      -7.171   3.962   2.340  0.00  0.00    +0.155 A 
ATOM     12  N   UNL     1      -7.181   4.630   1.208  0.00  0.00    -0.203 NA
ATOM     13  S   UNL     1      -6.057   4.001   0.299  0.00  0.00    +0.019 S 
BRANCH  11  14
ATOM     14  C   UNL     1      -8.116   4.308   3.417  0.00  0.00    +0.262 C 
ATOM     15  O   UNL     1      -8.102   3.686   4.462  0.00  0.00    -0.269 OA
ATOM     16  N   UNL     1      -8.995   5.315   3.244  0.00  0.00    -0.324 N 
ATOM     17  H   UNL     1      -9.007   5.812   2.411  0.00  0.00    +0.145 HD
ATOM     18  H   UNL     1      -9.617   5.543   3.953  0.00  0.00    +0.145 HD
ENDBRANCH  11  14
BRANCH  10  19
ATOM     19  N   UNL     1      -6.177   2.148   3.661  0.00  0.00    -0.355 N 
ATOM     20  H   UNL     1      -5.521   1.436   3.721  0.00  0.00    +0.142 HD
ATOM     21  H   UNL     1      -6.773   2.322   4.406  0.00  0.00    +0.142 HD
ENDBRANCH  10  19
ENDBRANCH   2   9
BRANCH   1  23
ATOM     22  C   UNL     1      -2.748   0.128  -1.427  0.00  0.00    +0.038 C 
ATOM     23  C   UNL     1      -2.504   0.890  -0.123  0.00  0.00    +0.159 C 
BRANCH  23  24
ATOM     24  C   UNL     1      -1.187   1.617  -0.205  0.00  0.00    +0.233 C 
ATOM     25  O   UNL     1      -1.154   2.825  -0.099  0.00  0.00    -0.274 OA
ATOM     26  N   UNL     1      -0.046   0.926  -0.397  0.00  0.00    -0.311 N 
ATOM     27  H   UNL     1      -0.072  -0.040  -0.482  0.00  0.00    +0.149 HD
BRANCH  26  28
ATOM     28  C   UNL     1       1.234   1.634  -0.483  0.00  0.00    +0.135 C 
BRANCH  28  29
ATOM     29  C   UNL     1       2.361   0.625  -0.708  0.00  0.00    +0.135 C 
ATOM     30  C   UNL     1       3.712   1.360  -0.799  0.00  0.00    +0.035 C 
ATOM     31  C   UNL     1       4.559   0.740   0.339  0.00  0.00    +0.031 C 
ATOM     32  C   UNL     1       3.834  -0.607   0.587  0.00  0.00    +0.160 C 
ATOM     33  O   UNL     1       2.440  -0.277   0.410  0.00  0.00    -0.375 OA
ENDBRANCH  28  29
ENDBRANCH  26  28
ENDBRANCH  23  24
ENDBRANCH   1  23
TORSDOF 8
