REMARK  Name = ZINC63245244
REMARK  7 active torsions:
REMARK  status: ('A' for Active; 'I' for Inactive)
REMARK    1  A    between atoms: C_1  and  C_2
REMARK    2  A    between atoms: C_7  and  N_8
REMARK    3  A    between atoms: C_9  and  C_28
REMARK    4  A    between atoms: C_12  and  S_13
REMARK    5  A    between atoms: S_13  and  C_14
REMARK    6  A    between atoms: C_14  and  C_15
REMARK    7  A    between atoms: N_17  and  C_18
REMARK                            x       y       z     vdW  Elec       q    Type
REMARK                         _______ _______ _______ _____ _____    ______ ____
ROOT
ATOM      1  N   UNL     1       0.024  -0.002   2.413  0.00  0.00    -0.270 N 
ATOM      2  C   UNL     1      -1.079   0.400   3.148  0.00  0.00    +0.168 A 
ATOM      3  N   UNL     1      -0.619   1.026   4.222  0.00  0.00    -0.128 NA
ATOM      4  N   UNL     1       0.666   1.039   4.201  0.00  0.00    -0.122 NA
ATOM      5  C   UNL     1       1.112   0.419   3.119  0.00  0.00    +0.197 A 
ENDROOT
BRANCH   2   6
ATOM      6  C   UNL     1      -2.426   0.184   2.820  0.00  0.00    +0.025 C 
ATOM      7  C   UNL     1      -3.546   0.587   3.547  0.00  0.00    +0.006 A 
ATOM      8  C   UNL     1      -3.692   1.291   4.761  0.00  0.00    +0.010 A 
ATOM      9  C   UNL     1      -4.934   1.550   5.245  0.00  0.00    +0.001 A 
ATOM     10  C   UNL     1      -6.083   1.136   4.569  0.00  0.00    +0.002 A 
ATOM     11  C   UNL     1      -6.018   0.455   3.398  0.00  0.00    +0.026 A 
ATOM     12  C   UNL     1      -4.755   0.148   2.830  0.00  0.00    +0.043 A 
ATOM     13  N   UNL     1      -4.428  -0.489   1.723  0.00  0.00    -0.380 N 
ATOM     14  C   UNL     1      -2.967  -0.527   1.600  0.00  0.00    +0.152 C 
ATOM     15  H   UNL     1      -5.055  -0.870   1.089  0.00  0.00    +0.160 HD
ENDBRANCH   2   6
BRANCH   1  22
ATOM     16  C   UNL     1      -0.007   1.500  -0.004  0.00  0.00    +0.046 C 
ATOM     17  C   UNL     1       0.007  -0.007  -0.004  0.00  0.00    -0.026 A 
ATOM     18  C   UNL     1       0.011  -0.699  -1.200  0.00  0.00    +0.005 A 
ATOM     19  C   UNL     1       0.024  -2.081  -1.200  0.00  0.00    +0.000 A 
ATOM     20  C   UNL     1       0.034  -2.776  -0.004  0.00  0.00    +0.002 A 
ATOM     21  C   UNL     1       0.031  -2.090   1.195  0.00  0.00    +0.026 A 
ATOM     22  C   UNL     1       0.022  -0.701   1.198  0.00  0.00    +0.053 A 
ENDBRANCH   1  22
BRANCH   5  23
ATOM     23  S   UNL     1       2.800   0.185   2.672  0.00  0.00    -0.076 S 
BRANCH  23  24
ATOM     24  C   UNL     1       3.724   0.973   4.019  0.00  0.00    +0.173 C 
BRANCH  24  25
ATOM     25  C   UNL     1       5.202   0.843   3.758  0.00  0.00    +0.227 C 
ATOM     26  O   UNL     1       5.594   0.274   2.761  0.00  0.00    -0.275 OA
ATOM     27  N   UNL     1       6.089   1.358   4.632  0.00  0.00    -0.285 N 
ATOM     28  H   UNL     1       5.777   1.870   5.395  0.00  0.00    +0.155 HD
BRANCH  27  29
ATOM     29  C   UNL     1       7.462   1.153   4.440  0.00  0.00    +0.037 A 
ATOM     30  C   UNL     1       8.299   0.984   5.535  0.00  0.00    +0.027 A 
ATOM     31  C   UNL     1       9.652   0.783   5.346  0.00  0.00    +0.051 A 
ATOM     32  C   UNL     1      10.180   0.749   4.064  0.00  0.00    +0.162 A 
ATOM     33  C   UNL     1       9.344   0.916   2.966  0.00  0.00    +0.164 A 
ATOM     34  C   UNL     1       7.985   1.114   3.156  0.00  0.00    +0.072 A 
ATOM     35  O   UNL     1       9.842   0.878   1.699  0.00  0.00    -0.485 OA
ATOM     36  C   UNL     1      11.257   1.045   1.558  0.00  0.00    +0.270 C 
ATOM     37  C   UNL     1      11.951   0.151   2.594  0.00  0.00    +0.270 C 
ATOM     38  O   UNL     1      11.517   0.554   3.897  0.00  0.00    -0.485 OA
ENDBRANCH  27  29
ENDBRANCH  24  25
ENDBRANCH  23  24
ENDBRANCH   5  23
TORSDOF 6
