REMARK  Name = ZINC15479250
REMARK  9 active torsions:
REMARK  status: ('A' for Active; 'I' for Inactive)
REMARK    1  A    between atoms: C_1  and  C_2
REMARK    2  A    between atoms: C_2  and  N_51
REMARK    3  A    between atoms: C_3  and  C_4
REMARK    4  A    between atoms: C_3  and  N_51
REMARK    5  A    between atoms: N_6  and  C_7
REMARK    6  A    between atoms: C_12  and  C_13
REMARK    7  A    between atoms: C_17  and  C_18
REMARK    8  A    between atoms: C_17  and  N_51
REMARK    9  A    between atoms: N_23  and  C_24
REMARK                            x       y       z     vdW  Elec       q    Type
REMARK                         _______ _______ _______ _____ _____    ______ ____
ROOT
ATOM      1  N   UNL     1      -3.657  -4.329  -0.452  0.00  0.00    +0.391 N 
ATOM      2  H   UNL     1      -4.115  -3.946  -1.287  0.00  0.00    -0.080 HD
ENDROOT
BRANCH   1   4
ATOM      3  C   UNL     1      -4.658  -2.329   0.532  0.00  0.00    -0.017 C 
ATOM      4  C   UNL     1      -4.340  -3.809   0.751  0.00  0.00    -0.081 C 
ENDBRANCH   1   4
BRANCH   1   5
ATOM      5  C   UNL     1      -3.751  -5.804  -0.488  0.00  0.00    +0.020 C 
BRANCH   5   6
ATOM      6  C   UNL     1      -5.189  -6.194  -0.713  0.00  0.00    +0.201 C 
ATOM      7  O   UNL     1      -6.041  -5.338  -0.814  0.00  0.00    -0.278 OA
ATOM      8  N   UNL     1      -5.528  -7.496  -0.801  0.00  0.00    -0.287 N 
ATOM      9  H   UNL     1      -4.859  -8.182  -0.651  0.00  0.00    +0.155 HD
BRANCH   8  10
ATOM     10  C   UNL     1      -6.844  -7.857  -1.111  0.00  0.00    +0.045 A 
ATOM     11  C   UNL     1      -7.652  -6.988  -1.832  0.00  0.00    +0.024 A 
ATOM     12  C   UNL     1      -8.949  -7.349  -2.140  0.00  0.00    +0.002 A 
ATOM     13  C   UNL     1      -9.446  -8.570  -1.722  0.00  0.00    +0.001 A 
ATOM     14  C   UNL     1      -8.646  -9.435  -1.000  0.00  0.00    +0.014 A 
ATOM     15  C   UNL     1      -7.346  -9.082  -0.692  0.00  0.00    +0.076 A 
BRANCH  15  16
ATOM     16  C   UNL     1      -6.474 -10.025   0.096  0.00  0.00    +0.419 C 
ATOM     17  F   UNL     1      -7.197 -11.184   0.400  0.00  0.00    -0.166 F 
ATOM     18  F   UNL     1      -5.348 -10.363  -0.662  0.00  0.00    -0.166 F 
ATOM     19  F   UNL     1      -6.069  -9.403   1.282  0.00  0.00    -0.166 F 
ENDBRANCH  15  16
ENDBRANCH   8  10
ENDBRANCH   5   6
ENDBRANCH   1   5
BRANCH   1  20
ATOM     20  C   UNL     1      -2.239  -3.913  -0.448  0.00  0.00    +0.020 C 
BRANCH  20  21
ATOM     21  C   UNL     1      -1.705  -4.008  -1.854  0.00  0.00    +0.204 C 
ATOM     22  O   UNL     1      -2.452  -4.281  -2.769  0.00  0.00    -0.277 OA
ATOM     23  N   UNL     1      -0.397  -3.790  -2.094  0.00  0.00    -0.241 N 
ATOM     24  C   UNL     1       0.081  -3.875  -3.352  0.00  0.00    +0.310 C 
ATOM     25  O   UNL     1      -0.668  -4.149  -4.269  0.00  0.00    -0.252 OA
ATOM     26  N   UNL     1       1.389  -3.656  -3.592  0.00  0.00    -0.269 N 
ATOM     27  H   UNL     1       0.201  -3.571  -1.362  0.00  0.00    +0.159 HD
ATOM     28  H   UNL     1       1.998  -3.500  -2.853  0.00  0.00    +0.156 HD
BRANCH  26  29
ATOM     29  C   UNL     1       1.868  -3.655  -4.907  0.00  0.00    +0.035 A 
ATOM     30  C   UNL     1       1.332  -4.528  -5.844  0.00  0.00    +0.023 A 
ATOM     31  C   UNL     1       1.803  -4.520  -7.142  0.00  0.00    +0.002 A 
ATOM     32  C   UNL     1       2.816  -3.652  -7.506  0.00  0.00    +0.000 A 
ATOM     33  C   UNL     1       3.356  -2.785  -6.574  0.00  0.00    +0.002 A 
ATOM     34  C   UNL     1       2.885  -2.784  -5.275  0.00  0.00    +0.023 A 
ENDBRANCH  26  29
ENDBRANCH  20  21
ENDBRANCH   1  20
TORSDOF 8
