REMARK  Name = ZINC01754259
REMARK  6 active torsions:
REMARK  status: ('A' for Active; 'I' for Inactive)
REMARK    1  A    between atoms: C_5  and  N_7
REMARK    2  A    between atoms: N_10  and  N_11
REMARK    3  A    between atoms: C_12  and  C_14
REMARK    4  A    between atoms: C_14  and  N_15
REMARK    5  A    between atoms: N_18  and  C_19
REMARK    6  A    between atoms: C_23  and  N_25
REMARK                            x       y       z     vdW  Elec       q    Type
REMARK                         _______ _______ _______ _____ _____    ______ ____
ROOT
ATOM      1  N   UNL     1       3.036  10.368   0.567  0.00  0.00    -0.232 N 
ATOM      2  C   UNL     1       2.034   9.471   0.471  0.00  0.00    +0.246 C 
ATOM      3  O   UNL     1       0.882   9.838   0.557  0.00  0.00    -0.273 OA
ATOM      4  H   UNL     1       3.958  10.074   0.498  0.00  0.00    +0.173 HD
ENDROOT
BRANCH   1   8
ATOM      5  N   UNL     1       5.029  12.212   0.765  0.00  0.00    -0.266 N 
ATOM      6  C   UNL     1       3.748  12.620   0.861  0.00  0.00    +0.320 C 
ATOM      7  O   UNL     1       3.496  13.797   1.033  0.00  0.00    -0.251 OA
ATOM      8  N   UNL     1       2.746  11.724   0.765  0.00  0.00    -0.218 N 
ATOM      9  H   UNL     1       5.229  11.288   0.548  0.00  0.00    +0.157 HD
ATOM     10  H   UNL     1       1.824  12.017   0.834  0.00  0.00    +0.174 HD
BRANCH   5  15
ATOM     11  C   UNL     1       6.867  15.194   1.889  0.00  0.00    +0.002 A 
ATOM     12  C   UNL     1       8.132  14.922   1.402  0.00  0.00    +0.003 A 
ATOM     13  C   UNL     1       8.372  13.753   0.704  0.00  0.00    +0.040 A 
ATOM     14  C   UNL     1       7.345  12.851   0.491  0.00  0.00    +0.145 A 
ATOM     15  C   UNL     1       6.072  13.122   0.979  0.00  0.00    +0.070 A 
ATOM     16  C   UNL     1       5.835  14.300   1.675  0.00  0.00    +0.026 A 
ATOM     17  F   UNL     1       7.578  11.709  -0.192  0.00  0.00    -0.204 F 
ENDBRANCH   5  15
ENDBRANCH   1   8
BRANCH   2  18
ATOM     18  C   UNL     1       2.347   8.012   0.258  0.00  0.00    +0.203 C 
BRANCH  18  19
ATOM     19  N   UNL     1       1.097   7.250   0.189  0.00  0.00    -0.291 N 
ATOM     20  C   UNL     1       1.131   5.916   0.001  0.00  0.00    +0.304 C 
ATOM     21  O   UNL     1       2.198   5.345  -0.111  0.00  0.00    -0.252 OA
ATOM     22  N   UNL     1      -0.019   5.215  -0.063  0.00  0.00    -0.269 N 
ATOM     23  H   UNL     1       0.246   7.706   0.278  0.00  0.00    +0.151 HD
ATOM     24  H   UNL     1      -0.871   5.679  -0.051  0.00  0.00    +0.156 HD
BRANCH  22  25
ATOM     25  C   UNL     1       0.017   3.819  -0.146  0.00  0.00    +0.037 A 
ATOM     26  C   UNL     1       1.024   3.109   0.495  0.00  0.00    +0.023 A 
ATOM     27  C   UNL     1       1.057   1.731   0.410  0.00  0.00    +0.004 A 
ATOM     28  C   UNL     1       0.088   1.058  -0.311  0.00  0.00    +0.033 A 
ATOM     29  C   UNL     1      -0.913   1.762  -0.955  0.00  0.00    +0.128 A 
ATOM     30  C   UNL     1      -0.955   3.140  -0.870  0.00  0.00    +0.056 A 
BRANCH  29  31
ATOM     31  N   UNL     1      -1.944   1.038  -1.731  0.00  0.00    +0.056 N 
ATOM     32  O   UNL     1      -1.911  -0.177  -1.803  0.00  0.00    -0.126 OA
ATOM     33  O   UNL     1      -2.826   1.658  -2.299  0.00  0.00    -0.126 OA
ENDBRANCH  29  31
ENDBRANCH  22  25
ENDBRANCH  18  19
ENDBRANCH   2  18
TORSDOF 6
