REMARK  Name = ZINC49597291
REMARK  7 active torsions:
REMARK  status: ('A' for Active; 'I' for Inactive)
REMARK    1  A    between atoms: C_1  and  C_2
REMARK    2  A    between atoms: C_2  and  C_4
REMARK    3  A    between atoms: C_2  and  N_14
REMARK    4  A    between atoms: C_7  and  S_10
REMARK    5  A    between atoms: S_10  and  N_13
REMARK    6  A    between atoms: N_14  and  C_15
REMARK    7  A    between atoms: C_15  and  C_16
REMARK                            x       y       z     vdW  Elec       q    Type
REMARK                         _______ _______ _______ _____ _____    ______ ____
ROOT
ATOM      1  C   UNL     1      -0.019   1.526   0.010  0.00  0.00    +0.029 C 
ATOM      2  C   UNL     1       0.002  -0.004   0.002  0.00  0.00    +0.081 C 
ENDROOT
BRANCH   2   3
ATOM      3  C   UNL     1      -1.412  -0.526   0.013  0.00  0.00    -0.031 A 
ATOM      4  C   UNL     1      -2.123  -0.571   1.197  0.00  0.00    +0.007 A 
ATOM      5  C   UNL     1      -3.420  -1.049   1.207  0.00  0.00    +0.029 A 
ATOM      6  C   UNL     1      -4.006  -1.482   0.032  0.00  0.00    +0.105 A 
ATOM      7  C   UNL     1      -3.295  -1.436  -1.153  0.00  0.00    +0.029 A 
ATOM      8  C   UNL     1      -2.000  -0.954  -1.163  0.00  0.00    +0.007 A 
BRANCH   6   9
ATOM      9  S   UNL     1      -5.658  -2.093   0.045  0.00  0.00    +0.056 S 
ATOM     10  O   UNL     1      -5.785  -2.944  -1.086  0.00  0.00    -0.153 OA
ATOM     11  O   UNL     1      -5.915  -2.542   1.369  0.00  0.00    -0.153 OA
BRANCH   9  12
ATOM     12  N   UNL     1      -6.660  -0.801  -0.219  0.00  0.00    -0.204 NA
ATOM     13  H   UNL     1      -7.510  -0.930  -0.669  0.00  0.00    +0.144 HD
ATOM     14  H   UNL     1      -6.397   0.085   0.076  0.00  0.00    +0.144 HD
ENDBRANCH   9  12
ENDBRANCH   6   9
ENDBRANCH   2   3
BRANCH   2  15
ATOM     15  N   UNL     1       0.713  -0.491   1.192  0.00  0.00    -0.304 NA
ATOM     16  H   UNL     1       0.492   0.072   2.000  0.00  0.00    +0.123 HD
BRANCH  15  17
ATOM     17  C   UNL     1       2.162  -0.532   0.959  0.00  0.00    +0.135 C 
BRANCH  17  18
ATOM     18  C   UNL     1       2.856  -1.036   2.199  0.00  0.00    +0.037 A 
ATOM     19  C   UNL     1       3.540  -2.232   2.184  0.00  0.00    +0.093 A 
ATOM     20  C   UNL     1       4.176  -2.681   3.341  0.00  0.00    +0.259 A 
ATOM     21  O   UNL     1       4.784  -3.740   3.333  0.00  0.00    -0.267 OA
ATOM     22  N   UNL     1       4.119  -1.934   4.484  0.00  0.00    -0.264 N 
ATOM     23  C   UNL     1       4.691  -2.240   5.695  0.00  0.00    +0.104 A 
ATOM     24  C   UNL     1       4.563  -1.425   6.742  0.00  0.00    +0.067 A 
ATOM     25  S   UNL     1       3.578  -0.102   6.057  0.00  0.00    -0.059 S 
ATOM     26  C   UNL     1       3.419  -0.760   4.411  0.00  0.00    +0.158 A 
ATOM     27  N   UNL     1       2.824  -0.330   3.326  0.00  0.00    -0.338 N 
ATOM     28  H   UNL     1       2.348   0.516   3.346  0.00  0.00    +0.168 HD
ENDBRANCH  17  18
ENDBRANCH  15  17
ENDBRANCH   2  15
TORSDOF 6
