REMARK  Name = ZINC02114792
REMARK  7 active torsions:
REMARK  status: ('A' for Active; 'I' for Inactive)
REMARK    1  A    between atoms: C_1  and  N_55
REMARK    2  A    between atoms: C_8  and  O_32
REMARK    3  A    between atoms: C_10  and  C_12
REMARK    4  A    between atoms: N_19  and  C_22
REMARK    5  A    between atoms: C_20  and  O_21
REMARK    6  A    between atoms: C_26  and  C_28
REMARK    7  A    between atoms: O_32  and  C_33
REMARK                            x       y       z     vdW  Elec       q    Type
REMARK                         _______ _______ _______ _____ _____    ______ ____
ROOT
ATOM      1  C   UNL     1      -3.647   4.932   2.751  0.00  0.00    +0.068 A 
ATOM      2  C   UNL     1      -4.992   4.636   2.462  0.00  0.00    +0.259 A 
ATOM      3  O   UNL     1      -5.341   4.432   1.312  0.00  0.00    -0.267 OA
ATOM      4  N   UNL     1      -5.890   4.575   3.465  0.00  0.00    -0.274 N 
ATOM      5  H   UNL     1      -6.844   4.356   3.263  0.00  0.00    +0.173 HD
ATOM      6  C   UNL     1      -5.511   4.805   4.736  0.00  0.00    +0.336 A 
ATOM      7  O   UNL     1      -6.338   4.749   5.626  0.00  0.00    -0.246 OA
ATOM      8  N   UNL     1      -4.232   5.095   5.036  0.00  0.00    -0.233 N 
ATOM      9  C   UNL     1      -3.283   5.162   4.044  0.00  0.00    +0.208 A 
ENDROOT
BRANCH   1  19
ATOM     10  C   UNL     1      -3.134   7.322   1.201  0.00  0.00    -0.095 C 
ATOM     11  C   UNL     1      -2.176   5.926  -0.533  0.00  0.00    -0.073 C 
ATOM     12  C   UNL     1      -2.426   4.619  -1.287  0.00  0.00    +0.017 C 
ATOM     13  C   UNL     1      -2.367   3.455  -0.331  0.00  0.00    -0.040 A 
ATOM     14  C   UNL     1      -2.213   2.180  -0.854  0.00  0.00    +0.053 A 
ATOM     15  C   UNL     1      -2.160   1.078  -0.017  0.00  0.00    +0.170 A 
ATOM     16  C   UNL     1      -2.261   1.253   1.359  0.00  0.00    +0.208 A 
ATOM     17  C   UNL     1      -2.413   2.530   1.880  0.00  0.00    +0.167 A 
ATOM     18  C   UNL     1      -2.465   3.633   1.032  0.00  0.00    -0.008 A 
ATOM     19  C   UNL     1      -2.625   5.000   1.646  0.00  0.00    +0.007 C 
ATOM     20  O   UNL     1      -2.180   0.029   1.965  0.00  0.00    -0.449 OA
ATOM     21  C   UNL     1      -1.623  -0.851   0.971  0.00  0.00    +0.467 C 
ATOM     22  O   UNL     1      -2.017  -0.254  -0.278  0.00  0.00    -0.452 OA
ATOM     23  N   UNL     1      -3.088   5.958   0.629  0.00  0.00    +0.386 N 
ATOM     24  H   UNL     1      -4.032   5.693   0.323  0.00  0.00    -0.081 HD
BRANCH  17  25
ATOM     25  O   UNL     1      -2.510   2.705   3.225  0.00  0.00    -0.491 OA
ATOM     26  C   UNL     1      -1.292   2.908   3.943  0.00  0.00    +0.277 C 
ENDBRANCH  17  25
ENDBRANCH   1  19
BRANCH   8  27
ATOM     27  C   UNL     1      -3.865   5.330   6.367  0.00  0.00    +0.055 A 
ATOM     28  C   UNL     1      -3.458   4.274   7.173  0.00  0.00    +0.026 A 
ATOM     29  C   UNL     1      -3.091   4.510   8.484  0.00  0.00    +0.003 A 
ATOM     30  C   UNL     1      -3.141   5.793   8.997  0.00  0.00    +0.012 A 
ATOM     31  C   UNL     1      -3.552   6.845   8.199  0.00  0.00    +0.057 A 
ATOM     32  C   UNL     1      -3.914   6.617   6.886  0.00  0.00    +0.038 A 
BRANCH  31  33
ATOM     33  C   UNL     1      -3.605   8.241   8.763  0.00  0.00    +0.417 C 
ATOM     34  F   UNL     1      -4.869   8.473   9.316  0.00  0.00    -0.166 F 
ATOM     35  F   UNL     1      -2.629   8.381   9.755  0.00  0.00    -0.166 F 
ATOM     36  F   UNL     1      -3.367   9.166   7.740  0.00  0.00    -0.166 F 
ENDBRANCH  31  33
ENDBRANCH   8  27
BRANCH   9  37
ATOM     37  O   UNL     1      -2.001   5.454   4.349  0.00  0.00    -0.493 OA
ATOM     38  H   UNL     1      -1.858   5.676   5.279  0.00  0.00    +0.294 HD
ENDBRANCH   9  37
TORSDOF 5
