REMARK  Name = ZINC02849816
REMARK  5 active torsions:
REMARK  status: ('A' for Active; 'I' for Inactive)
REMARK    1  A    between atoms: C_3  and  N_8
REMARK    2  A    between atoms: N_8  and  S_9
REMARK    3  A    between atoms: S_9  and  C_12
REMARK    4  A    between atoms: C_15  and  O_21
REMARK    5  A    between atoms: C_16  and  C_18
REMARK                            x       y       z     vdW  Elec       q    Type
REMARK                         _______ _______ _______ _____ _____    ______ ____
ROOT
ATOM      1  C   UNL     1       2.074   1.759  -1.744  0.00  0.00    +0.109 A 
ATOM      2  C   UNL     1       2.681   0.556  -2.069  0.00  0.00    +0.032 A 
ATOM      3  C   UNL     1       3.126   0.323  -3.355  0.00  0.00    +0.048 A 
ATOM      4  C   UNL     1       2.978   1.299  -4.329  0.00  0.00    +0.129 A 
ATOM      5  C   UNL     1       2.370   2.519  -4.004  0.00  0.00    +0.080 A 
ATOM      6  C   UNL     1       1.919   2.739  -2.700  0.00  0.00    +0.045 A 
ENDROOT
BRANCH   5   7
ATOM      7  C   UNL     1       2.207   3.564  -5.032  0.00  0.00    +0.245 C 
ATOM      8  O   UNL     1       2.600   3.369  -6.166  0.00  0.00    -0.270 OA
ATOM      9  N   UNL     1       1.621   4.736  -4.715  0.00  0.00    -0.325 N 
ATOM     10  H   UNL     1       1.307   4.892  -3.810  0.00  0.00    +0.145 HD
ATOM     11  H   UNL     1       1.513   5.423  -5.391  0.00  0.00    +0.145 HD
ENDBRANCH   5   7
BRANCH   1  12
ATOM     12  S   UNL     1       1.506   2.038  -0.100  0.00  0.00    +0.072 S 
ATOM     13  O   UNL     1       1.415   3.447   0.064  0.00  0.00    -0.150 OA
ATOM     14  O   UNL     1       2.300   1.222   0.749  0.00  0.00    -0.150 OA
BRANCH  12  15
ATOM     15  N   UNL     1      -0.040   1.451  -0.010  0.00  0.00    -0.216 N 
ATOM     16  H   UNL     1      -0.779   2.055   0.162  0.00  0.00    +0.174 HD
BRANCH  15  19
ATOM     17  C   UNL     1      -0.195  -2.163   0.639  0.00  0.00    +0.003 A 
ATOM     18  C   UNL     1       0.044  -0.814   0.818  0.00  0.00    +0.024 A 
ATOM     19  C   UNL     1      -0.280   0.087  -0.188  0.00  0.00    +0.049 A 
ATOM     20  C   UNL     1      -0.849  -0.372  -1.370  0.00  0.00    +0.039 A 
ATOM     21  C   UNL     1      -1.080  -1.723  -1.545  0.00  0.00    +0.020 A 
ATOM     22  C   UNL     1      -0.756  -2.617  -0.540  0.00  0.00    +0.015 A 
ATOM     23 BR   UNL     1      -1.847  -2.349  -3.155  0.00  0.00    -0.050 Br
ENDBRANCH  15  19
ENDBRANCH  12  15
ENDBRANCH   1  12
BRANCH   4  24
ATOM     24  O   UNL     1       3.421   1.074  -5.592  0.00  0.00    -0.506 OA
ATOM     25  H   UNL     1       4.337   1.344  -5.742  0.00  0.00    +0.292 HD
ENDBRANCH   4  24
TORSDOF 5
