REMARK  Name = ZINC43707325
REMARK  12 active torsions:
REMARK  status: ('A' for Active; 'I' for Inactive)
REMARK    1  A    between atoms: C_4  and  C_7
REMARK    2  A    between atoms: N_9  and  C_27
REMARK    3  A    between atoms: C_10  and  C_13
REMARK    4  A    between atoms: C_13  and  C_15
REMARK    5  A    between atoms: C_13  and  O_26
REMARK    6  A    between atoms: C_15  and  C_17
REMARK    7  A    between atoms: C_15  and  O_25
REMARK    8  A    between atoms: C_17  and  C_19
REMARK    9  A    between atoms: C_17  and  O_24
REMARK   10  A    between atoms: C_19  and  C_21
REMARK   11  A    between atoms: C_19  and  O_23
REMARK   12  A    between atoms: C_21  and  O_22
REMARK                            x       y       z     vdW  Elec       q    Type
REMARK                         _______ _______ _______ _____ _____    ______ ____
ROOT
ATOM      1  C   UNL     1       3.790  -0.842   0.293  0.00  0.00    +0.124 C 
ATOM      2  N   UNL     1       4.999  -0.388   0.129  0.00  0.00    -0.171 NA
ATOM      3  N   UNL     1       6.060  -1.186  -0.235  0.00  0.00    -0.208 N 
ATOM      4  C   UNL     1       5.737  -2.617  -0.433  0.00  0.00    +0.192 C 
ATOM      5  S   UNL     1       3.937  -2.588  -0.051  0.00  0.00    -0.077 S 
ENDROOT
BRANCH   1   9
ATOM      6  C   UNL     1       0.309   1.323   1.403  0.00  0.00    +0.000 A 
ATOM      7  C   UNL     1       1.518   1.984   1.272  0.00  0.00    +0.001 A 
ATOM      8  C   UNL     1       2.653   1.286   0.911  0.00  0.00    +0.010 A 
ATOM      9  C   UNL     1       2.579  -0.088   0.680  0.00  0.00    +0.008 A 
ATOM     10  C   UNL     1       1.356  -0.748   0.815  0.00  0.00    +0.010 A 
ATOM     11  C   UNL     1       0.229  -0.039   1.175  0.00  0.00    +0.001 A 
ENDBRANCH   1   9
BRANCH   3  12
ATOM     12  C   UNL     1       7.348  -0.681  -0.406  0.00  0.00    +0.053 A 
ATOM     13  C   UNL     1       7.551   0.472  -1.155  0.00  0.00    +0.025 A 
ATOM     14  C   UNL     1       8.829   0.969  -1.322  0.00  0.00    +0.002 A 
ATOM     15  C   UNL     1       9.906   0.320  -0.745  0.00  0.00    +0.000 A 
ATOM     16  C   UNL     1       9.708  -0.828   0.000  0.00  0.00    +0.002 A 
ATOM     17  C   UNL     1       8.433  -1.327   0.177  0.00  0.00    +0.025 A 
ENDBRANCH   3  12
BRANCH   4  18
ATOM     18  C   UNL     1       6.000  -3.052  -1.876  0.00  0.00    +0.178 C 
BRANCH  18  19
ATOM     19  O   UNL     1       7.406  -3.032  -2.131  0.00  0.00    -0.386 OA
ATOM     20  H   UNL     1       7.912  -3.657  -1.594  0.00  0.00    +0.210 HD
ENDBRANCH  18  19
BRANCH  18  21
ATOM     21  C   UNL     1       5.464  -4.470  -2.086  0.00  0.00    +0.177 C 
BRANCH  21  22
ATOM     22  O   UNL     1       6.037  -5.345  -1.113  0.00  0.00    -0.386 OA
ATOM     23  H   UNL     1       7.002  -5.397  -1.151  0.00  0.00    +0.210 HD
ENDBRANCH  21  22
BRANCH  21  24
ATOM     24  C   UNL     1       5.836  -4.953  -3.489  0.00  0.00    +0.176 C 
BRANCH  24  25
ATOM     25  O   UNL     1       7.249  -4.846  -3.671  0.00  0.00    -0.386 OA
ATOM     26  H   UNL     1       7.767  -5.367  -3.043  0.00  0.00    +0.210 HD
ENDBRANCH  24  25
BRANCH  24  27
ATOM     27  C   UNL     1       5.410  -6.413  -3.656  0.00  0.00    +0.171 C 
BRANCH  27  28
ATOM     28  O   UNL     1       3.996  -6.520  -3.475  0.00  0.00    -0.387 OA
ATOM     29  H   UNL     1       3.479  -5.998  -4.103  0.00  0.00    +0.210 HD
ENDBRANCH  27  28
BRANCH  27  30
ATOM     30  C   UNL     1       5.782  -6.896  -5.059  0.00  0.00    +0.189 C 
BRANCH  30  31
ATOM     31  O   UNL     1       5.491  -8.290  -5.176  0.00  0.00    -0.392 OA
ATOM     32  H   UNL     1       5.702  -8.665  -6.042  0.00  0.00    +0.210 HD
ENDBRANCH  30  31
ENDBRANCH  27  30
ENDBRANCH  24  27
ENDBRANCH  21  24
ENDBRANCH  18  21
ENDBRANCH   4  18
TORSDOF 12
