REMARK  Name = ZINC45169368
REMARK  9 active torsions:
REMARK  status: ('A' for Active; 'I' for Inactive)
REMARK    1  A    between atoms: C_1  and  C_2
REMARK    2  A    between atoms: C_3  and  C_9
REMARK    3  A    between atoms: C_4  and  C_8
REMARK    4  A    between atoms: N_5  and  C_7
REMARK    5  A    between atoms: C_12  and  C_15
REMARK    6  A    between atoms: C_15  and  C_17
REMARK    7  A    between atoms: C_15  and  N_20
REMARK    8  A    between atoms: C_17  and  C_18
REMARK    9  A    between atoms: C_17  and  C_19
REMARK                            x       y       z     vdW  Elec       q    Type
REMARK                         _______ _______ _______ _____ _____    ______ ____
ROOT
ATOM      1  C   UNL     1      -0.005  -0.364  -2.551  0.00  0.00    +0.069 A 
ATOM      2  C   UNL     1       0.763  -0.837  -3.568  0.00  0.00    +0.139 A 
ATOM      3  N   UNL     1       0.446  -0.157  -4.678  0.00  0.00    -0.242 NA
ATOM      4  C   UNL     1      -0.482   0.718  -4.403  0.00  0.00    +0.093 A 
ATOM      5  N   UNL     1      -0.800   0.622  -3.087  0.00  0.00    -0.343 N 
ATOM      6  H   UNL     1      -1.462   1.150  -2.613  0.00  0.00    +0.167 HD
ENDROOT
BRANCH   1   9
ATOM      7  C   UNL     1      -0.018   1.503   0.010  0.00  0.00    +0.068 C 
ATOM      8  C   UNL     1       0.002  -0.004   0.002  0.00  0.00    +0.069 A 
ATOM      9  C   UNL     1       0.008  -0.825  -1.144  0.00  0.00    +0.043 A 
ATOM     10  C   UNL     1       0.028  -2.123  -0.719  0.00  0.00    +0.045 A 
ATOM     11  N   UNL     1       0.034  -2.111   0.630  0.00  0.00    -0.271 N 
ATOM     12  N   UNL     1       0.023  -0.777   1.056  0.00  0.00    -0.176 NA
ATOM     13  C   UNL     1       0.054  -3.289   1.500  0.00  0.00    +0.172 C 
ATOM     14  C   UNL     1       0.040  -3.347  -1.598  0.00  0.00    +0.066 C 
ENDBRANCH   1   9
BRANCH   4  15
ATOM     15  C   UNL     1      -1.104   1.675  -5.388  0.00  0.00    -0.005 C 
BRANCH  15  16
ATOM     16  N   UNL     1      -1.850   0.918  -6.402  0.00  0.00    +0.385 N 
ATOM     17  H   UNL     1      -2.266   1.558  -7.061  0.00  0.00    -0.089 HD
ATOM     18  H   UNL     1      -1.220   0.297  -6.888  0.00  0.00    -0.089 HD
ATOM     19  H   UNL     1      -2.575   0.378  -5.954  0.00  0.00    -0.089 HD
ENDBRANCH  15  16
BRANCH  15  20
ATOM     20  C   UNL     1      -0.005   2.493  -6.068  0.00  0.00    -0.025 C 
ATOM     21  C   UNL     1      -0.636   3.464  -7.067  0.00  0.00    +0.006 C 
ATOM     22  C   UNL     1       0.772   3.281  -5.011  0.00  0.00    +0.006 C 
ENDBRANCH  15  20
ENDBRANCH   4  15
TORSDOF 4
