REMARK  Name = ZINC25397046
REMARK  11 active torsions:
REMARK  status: ('A' for Active; 'I' for Inactive)
REMARK    1  A    between atoms: C_1  and  C_2
REMARK    2  A    between atoms: C_5  and  O_27
REMARK    3  A    between atoms: C_6  and  N_8
REMARK    4  A    between atoms: C_9  and  C_11
REMARK    5  A    between atoms: C_11  and  N_12
REMARK    6  A    between atoms: C_13  and  C_15
REMARK    7  A    between atoms: C_15  and  N_16
REMARK    8  A    between atoms: N_16  and  C_17
REMARK    9  A    between atoms: C_17  and  C_19
REMARK   10  A    between atoms: C_17  and  C_20
REMARK   11  A    between atoms: O_27  and  C_28
REMARK                            x       y       z     vdW  Elec       q    Type
REMARK                         _______ _______ _______ _____ _____    ______ ____
ROOT
ATOM      1  N   UNL     1      -0.279   1.288  -2.443  0.00  0.00    -0.308 N 
ATOM      2  C   UNL     1      -0.726   1.609  -1.213  0.00  0.00    +0.196 C 
ATOM      3  O   UNL     1      -1.716   2.299  -1.089  0.00  0.00    -0.278 OA
ATOM      4  H   UNL     1       0.619   0.663  -2.555  0.00  0.00    +0.149 HD
ENDROOT
BRANCH   1   5
ATOM      5  C   UNL     1      -0.988   1.771  -3.630  0.00  0.00    +0.200 C 
BRANCH   5   7
ATOM      6  N   UNL     1      -0.768   1.597  -6.088  0.00  0.00    -0.281 N 
ATOM      7  C   UNL     1      -0.290   1.275  -4.870  0.00  0.00    +0.234 C 
ATOM      8  O   UNL     1       0.703   0.586  -4.771  0.00  0.00    -0.274 OA
ATOM      9  H   UNL     1      -1.718   2.145  -6.178  0.00  0.00    +0.155 HD
BRANCH   6  15
ATOM     10  C   UNL     1       3.501   0.435  -8.233  0.00  0.00    +0.044 C 
ATOM     11  C   UNL     1       2.014   0.665  -8.308  0.00  0.00    -0.048 A 
ATOM     12  C   UNL     1       1.353   0.519  -9.514  0.00  0.00    +0.007 A 
ATOM     13  C   UNL     1      -0.011   0.729  -9.589  0.00  0.00    +0.048 A 
ATOM     14  C   UNL     1      -0.721   1.087  -8.454  0.00  0.00    +0.141 A 
ATOM     15  C   UNL     1      -0.056   1.235  -7.239  0.00  0.00    +0.076 A 
ATOM     16  C   UNL     1       1.314   1.028  -7.172  0.00  0.00    +0.030 A 
BRANCH  14  17
ATOM     17  O   UNL     1      -2.063   1.294  -8.526  0.00  0.00    -0.493 OA
ATOM     18  C   UNL     1      -2.677   1.124  -9.805  0.00  0.00    +0.277 C 
ENDBRANCH  14  17
ENDBRANCH   6  15
ENDBRANCH   5   7
ENDBRANCH   1   5
BRANCH   2  19
ATOM     19  C   UNL     1       0.004   1.112   0.008  0.00  0.00    +0.016 C 
BRANCH  19  20
ATOM     20  N   UNL     1      -0.678   1.596   1.216  0.00  0.00    +0.389 N 
ATOM     21  H   UNL     1      -0.686   2.696   1.217  0.00  0.00    -0.084 HD
ATOM     22  H   UNL     1      -1.712   1.221   1.229  0.00  0.00    -0.084 HD
BRANCH  20  23
ATOM     23  C   UNL     1       0.008   1.129   2.429  0.00  0.00    -0.042 C 
ATOM     24  C   UNL     1       1.151   2.088   2.770  0.00  0.00    -0.009 C 
BRANCH  23  25
ATOM     25  C   UNL     1      -0.971   1.088   3.575  0.00  0.00    -0.043 A 
ATOM     26  C   UNL     1      -2.140   1.824   3.512  0.00  0.00    +0.003 A 
ATOM     27  C   UNL     1      -3.037   1.786   4.563  0.00  0.00    +0.000 A 
ATOM     28  C   UNL     1      -2.767   1.012   5.676  0.00  0.00    +0.001 A 
ATOM     29  C   UNL     1      -1.599   0.276   5.740  0.00  0.00    +0.020 A 
ATOM     30  C   UNL     1      -0.703   0.310   4.686  0.00  0.00    +0.043 A 
ATOM     31 CL   UNL     1       0.761  -0.620   4.762  0.00  0.00    -0.083 Cl
ENDBRANCH  23  25
ENDBRANCH  20  23
ENDBRANCH  19  20
ENDBRANCH   2  19
TORSDOF 8
