REMARK  Name = ZINC03171297
REMARK  10 active torsions:
REMARK  status: ('A' for Active; 'I' for Inactive)
REMARK    1  A    between atoms: C_1  and  C_2
REMARK    2  A    between atoms: C_2  and  C_30
REMARK    3  A    between atoms: C_4  and  N_60
REMARK    4  A    between atoms: C_14  and  C_16
REMARK    5  A    between atoms: C_14  and  C_18
REMARK    6  A    between atoms: C_14  and  N_60
REMARK    7  A    between atoms: C_16  and  O_17
REMARK    8  A    between atoms: C_18  and  C_20
REMARK    9  A    between atoms: C_18  and  O_29
REMARK   10  A    between atoms: C_23  and  N_26
REMARK                            x       y       z     vdW  Elec       q    Type
REMARK                         _______ _______ _______ _____ _____    ______ ____
ROOT
ATOM      1  N   UNK A   1      -2.518  -2.714   0.490  0.00  0.00    -0.402 NA
ATOM      2  H   UNK A   1      -3.379  -2.379   0.043  0.00  0.00    +0.124 HD
ATOM      3  H   UNK A   1      -2.537  -2.478   1.489  0.00  0.00    +0.124 HD
ENDROOT
BRANCH   1   7
ATOM      4  C   UNK A   0       0.009   1.506   0.075  0.00  0.00    +0.011 C 
ATOM      5  C   UNK A   0       0.009  -0.023   0.035  0.00  0.00    -0.024 C 
ATOM      6  C   UNK A   0      -1.433  -0.536   0.006  0.00  0.00    +0.055 C 
ATOM      7  C   UNK A   0      -1.432  -2.038  -0.097  0.00  0.00    -0.010 C 
ATOM      8  C   UNK A   0      -0.439  -2.692  -0.720  0.00  0.00    +0.038 C 
ATOM      9  C   UNK A   0       0.649  -2.006  -1.300  0.00  0.00    +0.017 C 
ATOM     10  N   UNK A   0       1.589  -2.676  -1.901  0.00  0.00    -0.374 N 
ATOM     11  C   UNK A   0       1.610  -4.144  -1.851  0.00  0.00    +0.116 C 
ATOM     12  C   UNK A   0       1.682  -4.681  -3.289  0.00  0.00    +0.021 C 
ATOM     13  C   UNK A   0       2.886  -4.059  -4.000  0.00  0.00    +0.003 C 
ATOM     14  C   UNK A   0       2.715  -2.539  -4.062  0.00  0.00    +0.021 C 
ATOM     15  C   UNK A   0       2.652  -1.979  -2.637  0.00  0.00    +0.116 C 
ATOM     16  C   UNK A   0       0.733  -0.503  -1.228  0.00  0.00    +0.059 C 
ATOM     17  C   UNK A   0       0.723  -0.569   1.273  0.00  0.00    +0.011 C 
ENDBRANCH   1   7
BRANCH   1  18
ATOM     18  C   UNK A   1      -2.477  -4.212   0.364  0.00  0.00    +0.112 C 
BRANCH  18  19
ATOM     19  C   UNK A   1      -1.650  -4.803   1.508  0.00  0.00    +0.179 C 
BRANCH  19  20
ATOM     20  O   UNK A   1      -2.277  -4.497   2.755  0.00  0.00    -0.393 OA
ATOM     21  H   UNK A   1      -1.806  -4.841   3.527  0.00  0.00    +0.209 HD
ENDBRANCH  19  20
ENDBRANCH  18  19
BRANCH  18  22
ATOM     22  C   UNK A   1      -3.917  -4.717   0.462  0.00  0.00    +0.165 C 
BRANCH  22  23
ATOM     23  C   UNK A   1      -4.732  -4.136  -0.665  0.00  0.00    -0.017 A 
ATOM     24  C   UNK A   1      -5.219  -2.846  -0.571  0.00  0.00    +0.008 A 
ATOM     25  C   UNK A   1      -5.962  -2.311  -1.607  0.00  0.00    +0.033 A 
ATOM     26  C   UNK A   1      -6.226  -3.069  -2.732  0.00  0.00    +0.126 A 
ATOM     27  C   UNK A   1      -5.742  -4.361  -2.824  0.00  0.00    +0.033 A 
ATOM     28  C   UNK A   1      -4.995  -4.894  -1.790  0.00  0.00    +0.008 A 
BRANCH  26  29
ATOM     29  N   UNK A   1      -7.026  -2.498  -3.839  0.00  0.00    +0.056 N 
ATOM     30  O   UNK A   1      -7.259  -3.167  -4.830  0.00  0.00    -0.126 OA
ATOM     31  O   UNK A   1      -7.452  -1.360  -3.758  0.00  0.00    -0.126 OA
ENDBRANCH  26  29
ENDBRANCH  22  23
BRANCH  22  32
ATOM     32  O   UNK A   1      -4.479  -4.314   1.713  0.00  0.00    -0.385 OA
ATOM     33  H   UNK A   1      -4.503  -3.356   1.843  0.00  0.00    +0.210 HD
ENDBRANCH  22  32
ENDBRANCH  18  22
ENDBRANCH   1  18
TORSDOF 8
