REMARK  Name = ZINC22010443
REMARK  6 active torsions:
REMARK  status: ('A' for Active; 'I' for Inactive)
REMARK    1  A    between atoms: C_1  and  C_2
REMARK    2  A    between atoms: C_2  and  C_4
REMARK    3  A    between atoms: C_2  and  N_18
REMARK    4  A    between atoms: N_10  and  C_11
REMARK    5  A    between atoms: N_21  and  C_24
REMARK    6  A    between atoms: C_28  and  C_30
REMARK                            x       y       z     vdW  Elec       q    Type
REMARK                         _______ _______ _______ _____ _____    ______ ____
ROOT
ATOM      1  C   UNL     1       2.239  -0.264   3.330  0.00  0.00    -0.005 C 
ATOM      2  C   UNL     1       2.902  -0.528   1.977  0.00  0.00    -0.002 C 
ENDROOT
BRANCH   2   3
ATOM      3  C   UNL     1       4.353  -0.126   2.042  0.00  0.00    +0.123 A 
ATOM      4  N   UNL     1       4.684   1.153   2.019  0.00  0.00    -0.201 NA
ATOM      5  C   UNL     1       5.964   1.512   2.082  0.00  0.00    +0.217 A 
ATOM      6  N   UNL     1       6.910   0.583   2.156  0.00  0.00    -0.181 NA
ATOM      7  C   UNL     1       6.574  -0.703   2.173  0.00  0.00    +0.224 A 
ATOM      8  N   UNL     1       5.291  -1.054   2.115  0.00  0.00    -0.201 NA
ATOM      9  N   UNL     1       7.554  -1.673   2.250  0.00  0.00    -0.284 N 
ATOM     10  N   UNL     1       6.308   2.849   2.064  0.00  0.00    -0.327 N 
ATOM     11  H   UNL     1       7.273  -2.731   2.358  0.00  0.00    +0.155 HD
ATOM     12  H   UNL     1       7.367   3.145   2.115  0.00  0.00    +0.145 HD
ATOM     13  H   UNL     1       5.525   3.618   1.998  0.00  0.00    +0.145 HD
BRANCH   9  14
ATOM     14  C   UNL     1       8.903  -1.310   2.191  0.00  0.00    +0.034 A 
ATOM     15  C   UNL     1       9.311  -0.280   1.354  0.00  0.00    +0.023 A 
ATOM     16  C   UNL     1      10.644   0.080   1.303  0.00  0.00    +0.002 A 
ATOM     17  C   UNL     1      11.573  -0.592   2.075  0.00  0.00    +0.000 A 
ATOM     18  C   UNL     1      11.171  -1.622   2.906  0.00  0.00    +0.002 A 
ATOM     19  C   UNL     1       9.839  -1.983   2.966  0.00  0.00    +0.023 A 
ENDBRANCH   9  14
ENDBRANCH   2   3
BRANCH   2  20
ATOM     20  N   UNL     1       2.223   0.255   0.937  0.00  0.00    +0.388 N 
ATOM     21  C   UNL     1       2.901   0.111  -0.359  0.00  0.00    -0.059 C 
ATOM     22  C   UNL     1       2.212   1.002  -1.395  0.00  0.00    +0.086 C 
ATOM     23  N   UNL     1       0.796   0.623  -1.500  0.00  0.00    -0.333 N 
ATOM     24  C   UNL     1       0.118   0.768  -0.204  0.00  0.00    +0.086 C 
ATOM     25  C   UNL     1       0.807  -0.124   0.832  0.00  0.00    -0.059 C 
ATOM     26  H   UNL     1       2.270   1.315   1.228  0.00  0.00    -0.081 HD
BRANCH  23  27
ATOM     27  C   UNL     1       0.150   1.368  -2.489  0.00  0.00    +0.030 A 
ATOM     28  C   UNL     1       0.854   2.322  -3.213  0.00  0.00    +0.023 A 
ATOM     29  C   UNL     1       0.214   3.054  -4.193  0.00  0.00    +0.002 A 
ATOM     30  C   UNL     1      -1.130   2.845  -4.447  0.00  0.00    +0.012 A 
ATOM     31  C   UNL     1      -1.834   1.900  -3.725  0.00  0.00    +0.057 A 
ATOM     32  C   UNL     1      -1.199   1.161  -2.747  0.00  0.00    +0.035 A 
BRANCH  31  33
ATOM     33  C   UNL     1      -3.298   1.676  -4.006  0.00  0.00    +0.417 C 
ATOM     34  F   UNL     1      -4.063   2.524  -3.197  0.00  0.00    -0.166 F 
ATOM     35  F   UNL     1      -3.562   1.951  -5.352  0.00  0.00    -0.166 F 
ATOM     36  F   UNL     1      -3.627   0.345  -3.729  0.00  0.00    -0.166 F 
ENDBRANCH  31  33
ENDBRANCH  23  27
ENDBRANCH   2  20
TORSDOF 5
