REMARK  Name = ZINC44178210
REMARK  9 active torsions:
REMARK  status: ('A' for Active; 'I' for Inactive)
REMARK    1  A    between atoms: C_1  and  C_2
REMARK    2  A    between atoms: C_2  and  C_3
REMARK    3  A    between atoms: C_2  and  C_4
REMARK    4  A    between atoms: C_4  and  N_5
REMARK    5  A    between atoms: C_8  and  N_11
REMARK    6  A    between atoms: N_14  and  C_15
REMARK    7  A    between atoms: C_20  and  C_21
REMARK    8  A    between atoms: C_21  and  C_22
REMARK    9  A    between atoms: N_24  and  C_25
REMARK                            x       y       z     vdW  Elec       q    Type
REMARK                         _______ _______ _______ _____ _____    ______ ____
ROOT
ATOM      1  N   UNL     1      -2.092  -6.067   0.904  0.00  0.00    -0.296 N 
ATOM      2  C   UNL     1      -3.168  -6.837   1.162  0.00  0.00    +0.304 C 
ATOM      3  O   UNL     1      -4.219  -6.322   1.492  0.00  0.00    -0.253 OA
ATOM      4  N   UNL     1      -3.079  -8.177   1.053  0.00  0.00    -0.269 N 
ATOM      5  H   UNL     1      -1.254  -6.478   0.641  0.00  0.00    +0.151 HD
ATOM      6  H   UNL     1      -2.267  -8.584   0.713  0.00  0.00    +0.156 HD
ENDROOT
BRANCH   1  10
ATOM      7  N   UNL     1      -1.389  -1.999   0.054  0.00  0.00    +0.380 N 
ATOM      8  C   UNL     1      -0.895  -2.499   1.343  0.00  0.00    -0.077 C 
ATOM      9  C   UNL     1      -0.800  -4.026   1.300  0.00  0.00    +0.004 C 
ATOM     10  C   UNL     1      -2.188  -4.610   1.022  0.00  0.00    +0.071 C 
ATOM     11  C   UNL     1      -2.725  -4.025  -0.287  0.00  0.00    +0.004 C 
ATOM     12  C   UNL     1      -2.748  -2.498  -0.185  0.00  0.00    -0.077 C 
ATOM     13  H   UNL     1      -0.780  -2.319  -0.684  0.00  0.00    -0.082 HD
BRANCH   7  14
ATOM     14  C   UNL     1      -1.404  -0.530   0.074  0.00  0.00    -0.076 C 
BRANCH  14  16
ATOM     15  C   UNL     1       0.793  -0.383  -1.107  0.00  0.00    +0.005 C 
ATOM     16  C   UNL     1       0.031  -0.007   0.165  0.00  0.00    -0.034 C 
ATOM     17  C   UNL     1       0.009   1.516   0.316  0.00  0.00    +0.005 C 
ENDBRANCH  14  16
ENDBRANCH   7  14
ENDBRANCH   1  10
BRANCH   4  18
ATOM     18  C   UNL     1      -4.160  -8.983   1.431  0.00  0.00    +0.038 A 
ATOM     19  C   UNL     1      -5.086  -8.516   2.354  0.00  0.00    +0.023 A 
ATOM     20  C   UNL     1      -6.151  -9.314   2.724  0.00  0.00    +0.002 A 
ATOM     21  C   UNL     1      -6.296 -10.575   2.176  0.00  0.00    +0.000 A 
ATOM     22  C   UNL     1      -5.375 -11.043   1.258  0.00  0.00    +0.006 A 
ATOM     23  C   UNL     1      -4.310 -10.248   0.878  0.00  0.00    -0.017 A 
BRANCH  23  24
ATOM     24  C   UNL     1      -3.310 -10.756  -0.128  0.00  0.00    +0.132 C 
BRANCH  24  25
ATOM     25  C   UNL     1      -2.138 -11.369   0.594  0.00  0.00    +0.217 C 
ATOM     26  O   UNL     1      -2.117 -11.391   1.806  0.00  0.00    -0.275 OA
ATOM     27  N   UNL     1      -1.113 -11.892  -0.108  0.00  0.00    -0.318 N 
ATOM     28  C   UNL     1       0.026 -12.488   0.594  0.00  0.00    +0.128 C 
ATOM     29  H   UNL     1      -1.130 -11.874  -1.077  0.00  0.00    +0.148 HD
ENDBRANCH  24  25
ENDBRANCH  23  24
ENDBRANCH   4  18
TORSDOF 6
