REMARK  Name = ZINC06261882
REMARK  9 active torsions:
REMARK  status: ('A' for Active; 'I' for Inactive)
REMARK    1  A    between atoms: C_4  and  N_7
REMARK    2  A    between atoms: N_7  and  C_8
REMARK    3  A    between atoms: C_8  and  N_10
REMARK    4  A    between atoms: N_10  and  C_11
REMARK    5  A    between atoms: C_11  and  C_12
REMARK    6  A    between atoms: C_12  and  N_13
REMARK    7  A    between atoms: N_16  and  C_19
REMARK    8  A    between atoms: C_19  and  N_21
REMARK    9  A    between atoms: N_21  and  C_22
REMARK                            x       y       z     vdW  Elec       q    Type
REMARK                         _______ _______ _______ _____ _____    ______ ____
ROOT
ATOM      1  N   UNL     1       5.971  -4.976  -4.980  0.00  0.00    +0.383 N 
ATOM      2  C   UNL     1       7.075  -4.998  -4.012  0.00  0.00    -0.059 C 
ATOM      3  C   UNL     1       7.665  -6.410  -3.943  0.00  0.00    +0.088 C 
ATOM      4  N   UNL     1       8.041  -6.825  -5.304  0.00  0.00    -0.316 N 
ATOM      5  C   UNL     1       7.042  -6.682  -6.373  0.00  0.00    +0.088 C 
ATOM      6  C   UNL     1       6.481  -5.257  -6.327  0.00  0.00    -0.059 C 
ATOM      7  H   UNL     1       5.291  -5.677  -4.726  0.00  0.00    -0.082 HD
ENDROOT
BRANCH   4   8
ATOM      8  C   UNL     1       9.268  -7.321  -5.563  0.00  0.00    +0.133 C 
ATOM      9  S   UNL     1      10.456  -7.352  -4.331  0.00  0.00    -0.019 S 
BRANCH   8  10
ATOM     10  N   UNL     1       9.558  -7.792  -6.792  0.00  0.00    -0.324 N 
ATOM     11  H   UNL     1       8.910  -7.709  -7.509  0.00  0.00    +0.148 HD
BRANCH  10  12
ATOM     12  C   UNL     1      10.852  -8.430  -7.044  0.00  0.00    +0.072 C 
ATOM     13  C   UNL     1      11.895  -7.358  -7.370  0.00  0.00    +0.022 C 
ATOM     14  C   UNL     1      13.246  -8.025  -7.633  0.00  0.00    +0.002 C 
ATOM     15  C   UNL     1      13.118  -8.987  -8.816  0.00  0.00    +0.000 C 
ATOM     16  C   UNL     1      12.076 -10.059  -8.491  0.00  0.00    +0.002 C 
ATOM     17  C   UNL     1      10.724  -9.393  -8.227  0.00  0.00    +0.022 C 
ENDBRANCH  10  12
ENDBRANCH   8  10
ENDBRANCH   4   8
BRANCH   1  18
ATOM     18  C   UNL     1       5.334  -3.652  -4.965  0.00  0.00    -0.060 C 
BRANCH  18  19
ATOM     19  C   UNL     1       4.693  -3.410  -3.597  0.00  0.00    +0.084 C 
BRANCH  19  20
ATOM     20  N   UNL     1       4.059  -2.089  -3.582  0.00  0.00    -0.328 N 
ATOM     21  H   UNL     1       4.094  -1.526  -4.371  0.00  0.00    +0.148 HD
BRANCH  20  22
ATOM     22  C   UNL     1       3.427  -1.657  -2.473  0.00  0.00    +0.130 C 
ATOM     23  S   UNL     1       3.365  -2.652  -1.081  0.00  0.00    -0.019 S 
BRANCH  22  24
ATOM     24  N   UNL     1       2.843  -0.443  -2.459  0.00  0.00    -0.324 N 
ATOM     25  H   UNL     1       2.878   0.121  -3.248  0.00  0.00    +0.148 HD
BRANCH  24  29
ATOM     26  C   UNL     1      -0.016   1.519   0.026  0.00  0.00    +0.000 C 
ATOM     27  C   UNL     1       1.420   2.046   0.019  0.00  0.00    +0.002 C 
ATOM     28  C   UNL     1       2.138   1.556  -1.240  0.00  0.00    +0.022 C 
ATOM     29  C   UNL     1       2.156   0.026  -1.254  0.00  0.00    +0.072 C 
ATOM     30  C   UNL     1       0.720  -0.501  -1.247  0.00  0.00    +0.022 C 
ATOM     31  C   UNL     1       0.003  -0.011   0.013  0.00  0.00    +0.002 C 
ENDBRANCH  24  29
ENDBRANCH  22  24
ENDBRANCH  20  22
ENDBRANCH  19  20
ENDBRANCH  18  19
ENDBRANCH   1  18
TORSDOF 9
