REMARK  Name = ZINC13141795
REMARK  10 active torsions:
REMARK  status: ('A' for Active; 'I' for Inactive)
REMARK    1  A    between atoms: C_1  and  C_2
REMARK    2  A    between atoms: C_4  and  C_35
REMARK    3  A    between atoms: C_5  and  C_9
REMARK    4  A    between atoms: C_6  and  C_8
REMARK    5  A    between atoms: C_15  and  C_17
REMARK    6  A    between atoms: C_17  and  C_18
REMARK    7  A    between atoms: C_21  and  O_33
REMARK    8  A    between atoms: C_22  and  S_24
REMARK    9  A    between atoms: S_24  and  N_27
REMARK   10  A    between atoms: O_33  and  C_34
REMARK                            x       y       z     vdW  Elec       q    Type
REMARK                         _______ _______ _______ _____ _____    ______ ____
ROOT
ATOM      1  C   UNL     1       0.965   1.603   0.424  0.00  0.00    +0.081 A 
ATOM      2  C   UNL     1       0.080   0.595   0.686  0.00  0.00    +0.076 A 
ATOM      3  S   UNL     1      -1.438   1.524   0.866  0.00  0.00    -0.060 S 
ATOM      4  C   UNL     1      -0.740   3.146   0.586  0.00  0.00    +0.165 A 
ATOM      5  N   UNL     1       0.530   2.854   0.382  0.00  0.00    -0.225 NA
ATOM      6  N   UNL     1      -1.370   4.384   0.580  0.00  0.00    -0.264 N 
ATOM      7  C   UNL     1      -2.695   4.468   0.816  0.00  0.00    +0.223 C 
ATOM      8  O   UNL     1      -3.337   3.462   1.033  0.00  0.00    -0.275 OA
ATOM      9  H   UNL     1      -0.857   5.189   0.406  0.00  0.00    +0.157 HD
ENDROOT
BRANCH   1  14
ATOM     10  C   UNL     1       6.528   0.425  -0.485  0.00  0.00    +0.044 C 
ATOM     11  C   UNL     1       5.072   0.734  -0.247  0.00  0.00    -0.050 A 
ATOM     12  C   UNL     1       4.370   1.496  -1.163  0.00  0.00    +0.007 A 
ATOM     13  C   UNL     1       3.037   1.782  -0.951  0.00  0.00    -0.041 A 
ATOM     14  C   UNL     1       2.397   1.300   0.190  0.00  0.00    +0.007 A 
ATOM     15  C   UNL     1       3.111   0.537   1.113  0.00  0.00    -0.041 A 
ATOM     16  C   UNL     1       4.442   0.253   0.887  0.00  0.00    +0.007 A 
ATOM     17  C   UNL     1       2.428   0.018   2.352  0.00  0.00    +0.044 C 
ATOM     18  C   UNL     1       2.274   2.612  -1.950  0.00  0.00    +0.044 C 
ENDBRANCH   1  14
BRANCH   7  19
ATOM     19  C   UNL     1      -3.378   5.811   0.809  0.00  0.00    +0.131 C 
BRANCH  19  20
ATOM     20  C   UNL     1      -4.846   5.630   1.097  0.00  0.00    -0.037 A 
ATOM     21  C   UNL     1      -5.735   5.437   0.055  0.00  0.00    +0.008 A 
ATOM     22  C   UNL     1      -7.080   5.264   0.317  0.00  0.00    +0.048 A 
ATOM     23  C   UNL     1      -7.541   5.296   1.625  0.00  0.00    +0.146 A 
ATOM     24  C   UNL     1      -6.648   5.496   2.668  0.00  0.00    +0.147 A 
ATOM     25  C   UNL     1      -5.302   5.662   2.401  0.00  0.00    +0.036 A 
BRANCH  24  26
ATOM     26  S   UNL     1      -7.229   5.537   4.331  0.00  0.00    +0.064 S 
ATOM     27  O   UNL     1      -8.060   4.397   4.499  0.00  0.00    -0.153 OA
ATOM     28  O   UNL     1      -6.095   5.780   5.151  0.00  0.00    -0.153 OA
BRANCH  26  29
ATOM     29  N   UNL     1      -8.210   6.863   4.474  0.00  0.00    -0.172 NA
ATOM     30  C   UNL     1      -7.665   8.169   4.876  0.00  0.00    +0.137 C 
ATOM     31  C   UNL     1      -8.148   9.222   3.865  0.00  0.00    +0.177 C 
ATOM     32  O   UNL     1      -9.570   9.138   3.745  0.00  0.00    -0.377 OA
ATOM     33  C   UNL     1     -10.042   7.888   3.236  0.00  0.00    +0.177 C 
ATOM     34  C   UNL     1      -9.655   6.769   4.209  0.00  0.00    +0.137 C 
ENDBRANCH  26  29
ENDBRANCH  24  26
BRANCH  23  35
ATOM     35  O   UNL     1      -8.865   5.132   1.885  0.00  0.00    -0.493 OA
ATOM     36  C   UNL     1      -9.726   4.931   0.762  0.00  0.00    +0.277 C 
ENDBRANCH  23  35
ENDBRANCH  19  20
ENDBRANCH   7  19
TORSDOF 6
