REMARK  Name = ZINC67233020
REMARK  11 active torsions:
REMARK  status: ('A' for Active; 'I' for Inactive)
REMARK    1  A    between atoms: C_1  and  C_2
REMARK    2  A    between atoms: C_5  and  C_33
REMARK    3  A    between atoms: N_8  and  C_10
REMARK    4  A    between atoms: C_10  and  C_11
REMARK    5  A    between atoms: C_11  and  C_13
REMARK    6  A    between atoms: C_11  and  N_14
REMARK    7  A    between atoms: C_15  and  C_17
REMARK    8  A    between atoms: C_17  and  C_18
REMARK    9  A    between atoms: C_18  and  C_19
REMARK   10  A    between atoms: C_19  and  C_20
REMARK   11  A    between atoms: C_20  and  C_21
REMARK                            x       y       z     vdW  Elec       q    Type
REMARK                         _______ _______ _______ _____ _____    ______ ____
ROOT
ATOM      1  N   UNL     1       0.411  -0.520   3.556  0.00  0.00    -0.315 N 
ATOM      2  C   UNL     1      -0.569   0.073   4.266  0.00  0.00    +0.213 C 
ATOM      3  O   UNL     1      -1.267  -0.587   5.006  0.00  0.00    -0.276 OA
ATOM      4  H   UNL     1       0.969   0.009   2.965  0.00  0.00    +0.149 HD
ENDROOT
BRANCH   1   5
ATOM      5  C   UNL     1       0.633  -1.963   3.678  0.00  0.00    +0.053 C 
ATOM      6  C   UNL     1       1.571  -2.237   4.855  0.00  0.00    +0.026 C 
BRANCH   5   7
ATOM      7  C   UNL     1       1.265  -2.492   2.389  0.00  0.00    -0.057 C 
BRANCH   7  13
ATOM      8  C   UNL     1       0.953  -2.466  -2.497  0.00  0.00    +0.005 C 
ATOM      9  C   UNL     1       0.244  -2.073  -1.198  0.00  0.00    -0.031 C 
ATOM     10  C   UNL     1      -1.121  -2.764  -1.131  0.00  0.00    +0.003 C 
ATOM     11  C   UNL     1      -1.787  -2.428   0.206  0.00  0.00    -0.031 C 
ATOM     12  C   UNL     1      -0.865  -2.853   1.350  0.00  0.00    -0.076 C 
ATOM     13  N   UNL     1       0.413  -2.139   1.245  0.00  0.00    +0.381 N 
ATOM     14  C   UNL     1       1.092  -2.511  -0.002  0.00  0.00    -0.076 C 
ATOM     15  C   UNL     1      -2.040  -0.921   0.286  0.00  0.00    +0.005 C 
ATOM     16  H   UNL     1       0.242  -1.145   1.250  0.00  0.00    -0.082 HD
ENDBRANCH   7  13
ENDBRANCH   5   7
ENDBRANCH   1   5
BRANCH   2  17
ATOM     17  C   UNL     1      -0.797   1.558   4.141  0.00  0.00    +0.096 C 
BRANCH  17  18
ATOM     18  C   UNL     1      -1.960   1.973   5.045  0.00  0.00    +0.009 C 
BRANCH  18  19
ATOM     19  C   UNL     1      -2.191   3.480   4.918  0.00  0.00    +0.002 C 
BRANCH  19  20
ATOM     20  C   UNL     1      -3.354   3.895   5.823  0.00  0.00    +0.016 C 
BRANCH  20  21
ATOM     21  C   UNL     1      -3.586   5.402   5.696  0.00  0.00    +0.069 C 
ATOM     22  C   UNL     1      -4.704   5.859   6.597  0.00  0.00    +0.108 C 
ATOM     23  C   UNL     1      -5.340   7.146   5.986  0.00  0.00    +0.105 C 
ATOM     24  C   UNL     1      -5.827   6.737   4.598  0.00  0.00    +0.093 C 
ATOM     25  S   UNL     1      -4.286   5.834   4.035  0.00  0.00    -0.154 S 
ATOM     26  N   UNL     1      -6.268   7.473   7.046  0.00  0.00    -0.294 N 
ATOM     27  C   UNL     1      -5.660   7.066   8.200  0.00  0.00    +0.300 C 
ATOM     28  O   UNL     1      -6.029   7.400   9.310  0.00  0.00    -0.253 OA
ATOM     29  N   UNL     1      -4.588   6.261   7.968  0.00  0.00    -0.294 N 
ATOM     30  H   UNL     1      -7.138   7.892   6.956  0.00  0.00    +0.151 HD
ATOM     31  H   UNL     1      -3.897   6.010   8.601  0.00  0.00    +0.151 HD
ENDBRANCH  20  21
ENDBRANCH  19  20
ENDBRANCH  18  19
ENDBRANCH  17  18
ENDBRANCH   2  17
TORSDOF 8
