REMARK  Name = ZINC19672566
REMARK  6 active torsions:
REMARK  status: ('A' for Active; 'I' for Inactive)
REMARK    1  A    between atoms: C_1  and  C_2
REMARK    2  A    between atoms: C_2  and  C_3
REMARK    3  A    between atoms: C_3  and  N_4
REMARK    4  A    between atoms: C_5  and  S_7
REMARK    5  A    between atoms: S_7  and  C_8
REMARK    6  A    between atoms: C_8  and  C_9
REMARK                            x       y       z     vdW  Elec       q    Type
REMARK                         _______ _______ _______ _____ _____    ______ ____
ROOT
ATOM      1  C   UNL     1      -4.387  -6.392   0.010  0.00  0.00    +0.121 A 
ATOM      2  N   UNL     1      -5.621  -6.960   0.013  0.00  0.00    -0.310 N 
ATOM      3  H   UNL     1      -6.406  -6.390   0.019  0.00  0.00    +0.170 HD
ATOM      4  C   UNL     1      -5.777  -8.297   0.007  0.00  0.00    +0.260 A 
ATOM      5  O   UNL     1      -6.891  -8.793   0.010  0.00  0.00    -0.267 OA
ATOM      6  C   UNL     1      -4.609  -9.127  -0.003  0.00  0.00    +0.075 A 
ATOM      7  C   UNL     1      -4.540 -10.596  -0.010  0.00  0.00    -0.023 A 
ATOM      8  C   UNL     1      -3.314 -11.147  -0.018  0.00  0.00    -0.004 A 
ATOM      9  S   UNL     1      -2.191  -9.768  -0.018  0.00  0.00    -0.073 S 
ATOM     10  C   UNL     1      -3.381  -8.453  -0.005  0.00  0.00    +0.116 A 
ATOM     11  N   UNL     1      -3.305  -7.124  -0.005  0.00  0.00    -0.226 NA
ATOM     12  C   UNL     1      -3.367 -12.651  -0.020  0.00  0.00    +0.043 C 
ATOM     13  C   UNL     1      -4.808 -12.989   0.422  0.00  0.00    +0.010 C 
ATOM     14  C   UNL     1      -5.574 -11.725  -0.015  0.00  0.00    +0.037 C 
ENDROOT
BRANCH   1  15
ATOM     15  C   UNL     1      -4.264  -4.891   0.017  0.00  0.00    +0.151 C 
BRANCH  15  16
ATOM     16  S   UNL     1      -2.510  -4.428   0.002  0.00  0.00    -0.085 S 
BRANCH  16  18
ATOM     17  N   UNL     1      -1.413  -1.998   0.005  0.00  0.00    -0.368 N 
ATOM     18  C   UNL     1      -2.534  -2.666   0.012  0.00  0.00    +0.126 C 
ATOM     19  N   UNL     1      -3.735  -1.994   0.027  0.00  0.00    -0.339 N 
ATOM     20  H   UNL     1      -3.748  -1.024   0.032  0.00  0.00    +0.144 HD
ATOM     21  H   UNL     1      -4.568  -2.491   0.032  0.00  0.00    +0.144 HD
ATOM     22  H   UNL     1      -0.567  -2.472  -0.006  0.00  0.00    +0.161 HD
BRANCH  17  23
ATOM     23  C   UNL     1      -1.433  -0.534   0.013  0.00  0.00    +0.114 C 
BRANCH  23  25
ATOM     24  C   UNL     1      -0.019   1.526   0.010  0.00  0.00    +0.005 C 
ATOM     25  C   UNL     1       0.002  -0.004   0.002  0.00  0.00    +0.018 C 
ENDBRANCH  23  25
ENDBRANCH  17  23
ENDBRANCH  16  18
ENDBRANCH  15  16
ENDBRANCH   1  15
TORSDOF 5
