REMARK  Name = ZINC01256346
REMARK  7 active torsions:
REMARK  status: ('A' for Active; 'I' for Inactive)
REMARK    1  A    between atoms: C_4  and  C_7
REMARK    2  A    between atoms: C_7  and  C_8
REMARK    3  A    between atoms: C_8  and  C_9
REMARK    4  A    between atoms: C_11  and  C_28
REMARK    5  A    between atoms: C_11  and  C_32
REMARK    6  A    between atoms: N_17  and  C_20
REMARK    7  A    between atoms: C_20  and  C_21
REMARK                            x       y       z     vdW  Elec       q    Type
REMARK                         _______ _______ _______ _____ _____    ______ ____
ROOT
ATOM      1  C   UNL     1       5.452  -1.522   1.518  0.00  0.00    +0.075 C 
ATOM      2  N   UNL     1       6.652  -0.875   1.522  0.00  0.00    -0.310 N 
ATOM      3  C   UNL     1       7.835  -1.594   2.022  0.00  0.00    +0.258 C 
ATOM      4  C   UNL     1       7.749  -3.017   1.531  0.00  0.00    +0.098 A 
ATOM      5  C   UNL     1       8.900  -3.795   1.363  0.00  0.00    +0.262 A 
ATOM      6  N   UNL     1       8.779  -5.066   0.928  0.00  0.00    -0.275 N 
ATOM      7  C   UNL     1       7.570  -5.592   0.664  0.00  0.00    +0.331 A 
ATOM      8  O   UNL     1       7.492  -6.744   0.283  0.00  0.00    -0.246 OA
ATOM      9  N   UNL     1       6.443  -4.871   0.814  0.00  0.00    -0.275 N 
ATOM     10  C   UNL     1       6.511  -3.561   1.242  0.00  0.00    +0.128 A 
ATOM     11  N   UNL     1       5.397  -2.818   1.365  0.00  0.00    -0.333 N 
ATOM     12  O   UNL     1      10.000  -3.329   1.607  0.00  0.00    -0.267 OA
ATOM     13  H   UNL     1       4.532  -3.255   1.337  0.00  0.00    +0.168 HD
ATOM     14  H   UNL     1       9.574  -5.608   0.803  0.00  0.00    +0.173 HD
ATOM     15  H   UNL     1       6.724   0.037   1.202  0.00  0.00    +0.149 HD
ENDROOT
BRANCH   3  16
ATOM     16  C   UNL     1       9.107  -0.936   1.485  0.00  0.00    +0.424 C 
ATOM     17  F   UNL     1       9.024   0.450   1.658  0.00  0.00    -0.168 F 
ATOM     18  F   UNL     1      10.216  -1.427   2.182  0.00  0.00    -0.168 F 
ATOM     19  F   UNL     1       9.244  -1.228   0.124  0.00  0.00    -0.168 F 
ENDBRANCH   3  16
BRANCH   3  20
ATOM     20  C   UNL     1       7.845  -1.573   3.552  0.00  0.00    +0.424 C 
ATOM     21  F   UNL     1       6.688  -2.195   4.035  0.00  0.00    -0.168 F 
ATOM     22  F   UNL     1       8.972  -2.258   4.020  0.00  0.00    -0.168 F 
ATOM     23  F   UNL     1       7.885  -0.249   4.000  0.00  0.00    -0.168 F 
ENDBRANCH   3  20
BRANCH   1  24
ATOM     24  C   UNL     1       4.179  -0.736   1.696  0.00  0.00    +0.074 C 
BRANCH  24  25
ATOM     25  C   UNL     1       3.654  -0.298   0.328  0.00  0.00    +0.042 C 
BRANCH  25  29
ATOM     26  C   UNL     1       0.044   1.931   0.832  0.00  0.00    +0.000 A 
ATOM     27  C   UNL     1       1.264   2.581   0.831  0.00  0.00    +0.000 A 
ATOM     28  C   UNL     1       2.432   1.860   0.668  0.00  0.00    +0.003 A 
ATOM     29  C   UNL     1       2.380   0.488   0.506  0.00  0.00    -0.047 A 
ATOM     30  C   UNL     1       1.161  -0.163   0.508  0.00  0.00    +0.003 A 
ATOM     31  C   UNL     1      -0.007   0.559   0.670  0.00  0.00    +0.000 A 
ENDBRANCH  25  29
ENDBRANCH  24  25
ENDBRANCH   1  24
BRANCH   9  32
ATOM     32  C   UNL     1       5.142  -5.478   0.521  0.00  0.00    +0.163 C 
BRANCH  32  33
ATOM     33  C   UNL     1       4.595  -6.122   1.769  0.00  0.00    -0.028 A 
ATOM     34  C   UNL     1       4.894  -7.442   2.053  0.00  0.00    +0.005 A 
ATOM     35  C   UNL     1       4.393  -8.033   3.197  0.00  0.00    +0.000 A 
ATOM     36  C   UNL     1       3.594  -7.304   4.059  0.00  0.00    +0.000 A 
ATOM     37  C   UNL     1       3.296  -5.984   3.775  0.00  0.00    +0.000 A 
ATOM     38  C   UNL     1       3.801  -5.392   2.633  0.00  0.00    +0.005 A 
ENDBRANCH  32  33
ENDBRANCH   9  32
TORSDOF 7
