REMARK  Name = ZINC01033957
REMARK  5 active torsions:
REMARK  status: ('A' for Active; 'I' for Inactive)
REMARK    1  A    between atoms: C_4  and  S_7
REMARK    2  A    between atoms: S_7  and  C_10
REMARK    3  A    between atoms: C_13  and  S_15
REMARK    4  A    between atoms: S_15  and  N_18
REMARK    5  A    between atoms: C_23  and  N_60
REMARK                            x       y       z     vdW  Elec       q    Type
REMARK                         _______ _______ _______ _____ _____    ______ ____
ROOT
ATOM      1  N   UNL     1      -1.898   7.649  -2.746  0.00  0.00    -0.180 NA
ATOM      2  C   UNL     1      -2.326   6.252  -2.579  0.00  0.00    +0.091 C 
ATOM      3  C   UNL     1      -1.797   5.738  -1.235  0.00  0.00    -0.060 C 
ATOM      4  C   UNL     1      -0.018   7.387  -1.216  0.00  0.00    -0.060 C 
ATOM      5  C   UNL     1      -0.474   7.968  -2.558  0.00  0.00    +0.091 C 
ATOM      6  N   UNL     1      -0.332   5.942  -1.193  0.00  0.00    +0.389 N 
ATOM      7  H   UNL     1       0.090   5.496  -2.016  0.00  0.00    -0.080 HD
ENDROOT
BRANCH   6   8
ATOM      8  C   UNL     1       0.227   5.323   0.027  0.00  0.00    -0.005 C 
ATOM      9  C   UNL     1      -0.596   5.671   1.243  0.00  0.00    -0.049 A 
ATOM     10  C   UNL     1      -0.900   6.875   1.842  0.00  0.00    +0.003 A 
ATOM     11  C   UNL     1      -1.699   6.905   2.971  0.00  0.00    +0.000 A 
ATOM     12  C   UNL     1      -2.187   5.727   3.507  0.00  0.00    +0.001 A 
ATOM     13  C   UNL     1      -1.889   4.518   2.914  0.00  0.00    +0.009 A 
ATOM     14  C   UNL     1      -1.087   4.480   1.772  0.00  0.00    -0.016 A 
ATOM     15  C   UNL     1      -0.616   3.342   0.945  0.00  0.00    -0.016 A 
ATOM     16  C   UNL     1       0.169   3.821  -0.101  0.00  0.00    -0.049 A 
ATOM     17  C   UNL     1       0.724   2.947  -1.011  0.00  0.00    +0.003 A 
ATOM     18  C   UNL     1       0.502   1.586  -0.889  0.00  0.00    +0.000 A 
ATOM     19  C   UNL     1      -0.276   1.101   0.146  0.00  0.00    +0.001 A 
ATOM     20  C   UNL     1      -0.835   1.968   1.062  0.00  0.00    +0.009 A 
ENDBRANCH   6   8
BRANCH   1  21
ATOM     21  S   UNL     1      -2.990   8.832  -3.135  0.00  0.00    +0.067 S 
ATOM     22  O   UNL     1      -2.253   9.876  -3.756  0.00  0.00    -0.152 OA
ATOM     23  O   UNL     1      -4.080   8.183  -3.776  0.00  0.00    -0.152 OA
BRANCH  21  27
ATOM     24  C   UNL     1      -4.894  10.151   0.656  0.00  0.00    +0.133 A 
ATOM     25  C   UNL     1      -3.797  10.859   0.287  0.00  0.00    +0.037 A 
ATOM     26  C   UNL     1      -3.140  10.517  -0.880  0.00  0.00    +0.038 A 
ATOM     27  C   UNL     1      -3.611   9.485  -1.621  0.00  0.00    +0.144 A 
ATOM     28  S   UNL     1      -5.030   8.964  -0.671  0.00  0.00    -0.050 S 
BRANCH  24  29
ATOM     29  S   UNL     1      -5.921  10.355   2.072  0.00  0.00    +0.031 S 
ATOM     30  O   UNL     1      -6.546   9.100   2.305  0.00  0.00    -0.164 OA
ATOM     31  O   UNL     1      -5.131  11.007   3.057  0.00  0.00    -0.164 OA
BRANCH  29  35
ATOM     32  C   UNL     1      -9.213  13.247   0.934  0.00  0.00    +0.000 A 
ATOM     33  C   UNL     1      -9.390  11.889   0.746  0.00  0.00    +0.002 A 
ATOM     34  C   UNL     1      -8.385  11.006   1.094  0.00  0.00    +0.027 A 
ATOM     35  C   UNL     1      -7.202  11.481   1.629  0.00  0.00    +0.094 A 
ATOM     36  C   UNL     1      -7.027  12.838   1.822  0.00  0.00    +0.027 A 
ATOM     37  C   UNL     1      -8.030  13.722   1.470  0.00  0.00    +0.002 A 
ENDBRANCH  29  35
ENDBRANCH  24  29
ENDBRANCH  21  27
ENDBRANCH   1  21
TORSDOF 5
