REMARK  Name = ZINC09359505
REMARK  6 active torsions:
REMARK  status: ('A' for Active; 'I' for Inactive)
REMARK    1  A    between atoms: C_1  and  C_2
REMARK    2  A    between atoms: C_16  and  C_18
REMARK    3  A    between atoms: C_18  and  C_19
REMARK    4  A    between atoms: C_19  and  C_20
REMARK    5  A    between atoms: N_25  and  C_28
REMARK    6  A    between atoms: C_32  and  N_34
REMARK                            x       y       z     vdW  Elec       q    Type
REMARK                         _______ _______ _______ _____ _____    ______ ____
ROOT
ATOM      1  C   UNL     1      -3.486  -7.835  -1.796  0.00  0.00    +0.047 C 
ATOM      2  C   UNL     1      -3.662  -6.352  -1.995  0.00  0.00    -0.011 A 
ATOM      3  C   UNL     1      -3.895  -5.850  -3.260  0.00  0.00    +0.046 A 
ATOM      4  C   UNL     1      -4.058  -4.489  -3.451  0.00  0.00    +0.020 A 
ATOM      5  C   UNL     1      -3.985  -3.629  -2.369  0.00  0.00    +0.006 A 
ATOM      6  C   UNL     1      -3.753  -4.125  -1.106  0.00  0.00    -0.027 A 
ATOM      7  C   UNL     1      -3.588  -5.492  -0.902  0.00  0.00    +0.040 A 
ATOM      8  N   UNL     1      -3.366  -5.755   0.451  0.00  0.00    -0.286 N 
ATOM      9  C   UNL     1      -3.370  -4.633   1.194  0.00  0.00    +0.211 C 
ATOM     10  O   UNL     1      -3.204  -4.559   2.393  0.00  0.00    -0.277 OA
ATOM     11  C   UNL     1      -3.620  -3.485   0.248  0.00  0.00    +0.050 C 
ATOM     12  C   UNL     1      -2.639  -2.399   0.334  0.00  0.00    +0.088 C 
ATOM     13  C   UNL     1      -3.406  -1.210  -0.372  0.00  0.00    +0.073 C 
ATOM     14  C   UNL     1      -4.733  -1.345   0.370  0.00  0.00    -0.057 C 
ATOM     15  C   UNL     1      -2.434  -0.134   0.031  0.00  0.00    +0.228 C 
ATOM     16  O   UNL     1      -2.691   1.017   0.314  0.00  0.00    -0.275 OA
ATOM     17  N   UNL     1      -1.202  -0.723   0.010  0.00  0.00    -0.210 N 
ATOM     18  C   UNL     1      -1.268  -2.094   0.003  0.00  0.00    +0.229 C 
ATOM     19  O   UNL     1      -0.372  -2.877  -0.229  0.00  0.00    -0.275 OA
ATOM     20 CL   UNL     1      -3.985  -6.930  -4.616  0.00  0.00    -0.083 Cl
ATOM     21  H   UNL     1      -3.226  -6.644   0.813  0.00  0.00    +0.155 HD
ATOM     22  N   UNL     1      -4.894  -2.803   0.613  0.00  0.00    +0.394 N 
ATOM     23  H   UNL     1      -5.103  -2.969   1.605  0.00  0.00    -0.083 HD
ATOM     24  H   UNL     1      -5.660  -3.169   0.036  0.00  0.00    -0.083 HD
ENDROOT
BRANCH  17  25
ATOM     25  C   UNL     1       0.002  -0.004   0.002  0.00  0.00    +0.046 A 
ATOM     26  C   UNL     1       1.215  -0.679  -0.013  0.00  0.00    +0.024 A 
ATOM     27  C   UNL     1       2.399   0.032  -0.021  0.00  0.00    +0.004 A 
ATOM     28  C   UNL     1       2.377   1.415  -0.013  0.00  0.00    +0.033 A 
ATOM     29  C   UNL     1       1.171   2.089   0.002  0.00  0.00    +0.128 A 
ATOM     30  C   UNL     1      -0.017   1.384   0.010  0.00  0.00    +0.056 A 
BRANCH  29  31
ATOM     31  N   UNL     1       1.152   3.569   0.010  0.00  0.00    +0.056 N 
ATOM     32  O   UNL     1       0.089   4.165   0.024  0.00  0.00    -0.126 OA
ATOM     33  O   UNL     1       2.199   4.192   0.004  0.00  0.00    -0.126 OA
ENDBRANCH  29  31
ENDBRANCH  17  25
BRANCH  14  34
ATOM     34  C   UNL     1      -4.679  -0.586   1.698  0.00  0.00    -0.006 C 
BRANCH  34  35
ATOM     35  C   UNL     1      -6.038  -0.681   2.396  0.00  0.00    +0.094 C 
BRANCH  35  36
ATOM     36  C   UNL     1      -5.984   0.066   3.703  0.00  0.00    +0.210 C 
ATOM     37  O   UNL     1      -4.961   0.620   4.044  0.00  0.00    -0.276 OA
ATOM     38  N   UNL     1      -7.074   0.118   4.494  0.00  0.00    -0.329 N 
ATOM     39  H   UNL     1      -7.893  -0.325   4.222  0.00  0.00    +0.145 HD
ATOM     40  H   UNL     1      -7.040   0.600   5.336  0.00  0.00    +0.145 HD
ENDBRANCH  35  36
ENDBRANCH  34  35
ENDBRANCH  14  34
TORSDOF 5
