REMARK  Name = ZINC58407517
REMARK  10 active torsions:
REMARK  status: ('A' for Active; 'I' for Inactive)
REMARK    1  A    between atoms: C_1  and  C_2
REMARK    2  A    between atoms: N_5  and  C_11
REMARK    3  A    between atoms: C_7  and  C_10
REMARK    4  A    between atoms: C_11  and  C_12
REMARK    5  A    between atoms: C_11  and  C_13
REMARK    6  A    between atoms: C_11  and  C_14
REMARK    7  A    between atoms: C_14  and  N_15
REMARK    8  A    between atoms: N_15  and  C_16
REMARK    9  A    between atoms: C_16  and  C_17
REMARK   10  A    between atoms: C_22  and  O_23
REMARK                            x       y       z     vdW  Elec       q    Type
REMARK                         _______ _______ _______ _____ _____    ______ ____
ROOT
ATOM      1  N   UNL     1       0.151  -4.560  -2.249  0.00  0.00    +0.383 N 
ATOM      2  H   UNL     1      -0.284  -4.203  -1.411  0.00  0.00    -0.085 HD
ATOM      3  H   UNL     1      -0.393  -4.287  -3.053  0.00  0.00    -0.085 HD
ENDROOT
BRANCH   1   4
ATOM      4  C   UNL     1       1.509  -4.013  -2.367  0.00  0.00    -0.060 C 
BRANCH   4   5
ATOM      5  C   UNL     1       1.439  -2.486  -2.440  0.00  0.00    +0.001 C 
ATOM      6  C   UNL     1       0.614  -2.071  -3.660  0.00  0.00    +0.025 C 
ATOM      7  C   UNL     1       2.853  -1.916  -2.563  0.00  0.00    +0.025 C 
BRANCH   5  11
ATOM      8  C   UNL     1      -0.019   1.526   0.010  0.00  0.00    +0.039 C 
ATOM      9  C   UNL     1       0.002  -0.004   0.002  0.00  0.00    +0.130 C 
ATOM     10  C   UNL     1       0.720  -0.499  -1.256  0.00  0.00    +0.116 C 
ATOM     11  N   UNL     1       0.805  -1.966  -1.221  0.00  0.00    -0.294 NA
ATOM     12  C   UNL     1       1.523  -2.417  -0.020  0.00  0.00    +0.116 C 
ATOM     13  C   UNL     1       0.797  -1.904   1.226  0.00  0.00    +0.130 C 
ATOM     14  O   UNL     1       0.695  -0.479   1.159  0.00  0.00    -0.371 OA
ATOM     15  C   UNL     1      -0.605  -2.513   1.288  0.00  0.00    +0.039 C 
ENDBRANCH   5  11
ENDBRANCH   4   5
ENDBRANCH   1   4
BRANCH   1  16
ATOM     16  C   UNL     1       0.219  -6.026  -2.178  0.00  0.00    -0.043 C 
BRANCH  16  17
ATOM     17  C   UNL     1      -1.174  -6.588  -2.057  0.00  0.00    -0.022 A 
ATOM     18  C   UNL     1      -1.660  -6.973  -0.822  0.00  0.00    +0.020 A 
ATOM     19  C   UNL     1      -2.938  -7.489  -0.711  0.00  0.00    +0.018 A 
ATOM     20  C   UNL     1      -3.734  -7.620  -1.835  0.00  0.00    +0.019 A 
ATOM     21  C   UNL     1      -3.253  -7.236  -3.072  0.00  0.00    +0.046 A 
ATOM     22  C   UNL     1      -1.972  -6.714  -3.185  0.00  0.00    +0.118 A 
ATOM     23 BR   UNL     1      -3.600  -8.015   0.981  0.00  0.00    -0.050 Br
BRANCH  22  24
ATOM     24  O   UNL     1      -1.499  -6.331  -4.400  0.00  0.00    -0.507 OA
ATOM     25  H   UNL     1      -1.045  -7.034  -4.885  0.00  0.00    +0.292 HD
ENDBRANCH  22  24
ENDBRANCH  16  17
ENDBRANCH   1  16
TORSDOF 6
