REMARK  Name = ZINC05247542
REMARK  11 active torsions:
REMARK  status: ('A' for Active; 'I' for Inactive)
REMARK    1  A    between atoms: C_1  and  C_2
REMARK    2  A    between atoms: C_2  and  O_3
REMARK    3  A    between atoms: O_3  and  C_4
REMARK    4  A    between atoms: C_4  and  C_6
REMARK    5  A    between atoms: C_10  and  O_34
REMARK    6  A    between atoms: C_11  and  C_33
REMARK    7  A    between atoms: C_13  and  O_32
REMARK    8  A    between atoms: C_21  and  O_31
REMARK    9  A    between atoms: C_22  and  C_29
REMARK   10  A    between atoms: C_25  and  O_28
REMARK   11  A    between atoms: C_29  and  O_30
REMARK                            x       y       z     vdW  Elec       q    Type
REMARK                         _______ _______ _______ _____ _____    ______ ____
ROOT
ATOM      1  C   UNL     1      -0.117   6.141  -1.990  0.00  0.00    +0.107 C 
ATOM      2  C   UNL     1       0.809   6.010  -3.216  0.00  0.00    +0.018 C 
ATOM      3  C   UNL     1       2.256   6.016  -2.674  0.00  0.00    +0.036 C 
ATOM      4  C   UNL     1       2.104   5.521  -1.204  0.00  0.00    +0.075 C 
ATOM      5  C   UNL     1       0.811   6.230  -0.771  0.00  0.00    +0.012 C 
ATOM      6  C   UNL     1       0.200   5.624   0.472  0.00  0.00    +0.042 C 
ATOM      7  C   UNL     1      -0.021   4.125   0.292  0.00  0.00    +0.119 C 
ATOM      8  C   UNL     1       1.333   3.453   0.018  0.00  0.00    +0.034 C 
ATOM      9  C   UNL     1       1.910   4.002  -1.278  0.00  0.00    +0.028 C 
ATOM     10  C   UNL     1       3.263   3.371  -1.611  0.00  0.00    +0.009 C 
ATOM     11  C   UNL     1       3.271   1.878  -1.264  0.00  0.00    +0.036 C 
ATOM     12  C   UNL     1       1.832   1.379  -1.295  0.00  0.00    +0.076 C 
ATOM     13  C   UNL     1       1.105   1.949  -0.075  0.00  0.00    +0.028 C 
ATOM     14  C   UNL     1      -0.377   1.594  -0.180  0.00  0.00    +0.015 C 
ATOM     15  C   UNL     1      -0.501   0.064  -0.142  0.00  0.00    +0.032 C 
ATOM     16  C   UNL     1       0.271  -0.554  -1.308  0.00  0.00    +0.117 C 
ATOM     17  C   UNL     1       1.747  -0.144  -1.249  0.00  0.00    +0.066 C 
ATOM     18  C   UNL     1       1.116   7.706  -0.510  0.00  0.00    +0.015 C 
ENDROOT
BRANCH   1  19
ATOM     19  C   UNL     1      -0.952   7.391  -2.100  0.00  0.00    +0.311 C 
ATOM     20  O   UNL     1      -0.564   8.319  -2.769  0.00  0.00    -0.251 OA
BRANCH  19  21
ATOM     21  O   UNL     1      -2.127   7.472  -1.456  0.00  0.00    -0.465 OA
BRANCH  21  23
ATOM     22  C   UNL     1      -4.178   8.613  -0.807  0.00  0.00    +0.048 C 
ATOM     23  C   UNL     1      -2.877   8.706  -1.608  0.00  0.00    +0.229 C 
ENDBRANCH  21  23
ENDBRANCH  19  21
ENDBRANCH   1  19
BRANCH  16  24
ATOM     24  O   UNL     1       0.173  -1.978  -1.237  0.00  0.00    -0.392 OA
ATOM     25  H   UNL     1      -0.733  -2.312  -1.283  0.00  0.00    +0.210 HD
ENDBRANCH  16  24
BRANCH  12  26
ATOM     26  O   UNL     1       1.195   1.850  -2.485  0.00  0.00    -0.388 OA
ATOM     27  H   UNL     1       1.590   1.516  -3.301  0.00  0.00    +0.210 HD
ENDBRANCH  12  26
BRANCH   7  28
ATOM     28  O   UNL     1      -0.594   3.579   1.481  0.00  0.00    -0.391 OA
ATOM     29  H   UNL     1      -1.452   3.958   1.714  0.00  0.00    +0.210 HD
ENDBRANCH   7  28
BRANCH   4  30
ATOM     30  O   UNL     1       3.219   5.891  -0.391  0.00  0.00    -0.388 OA
ATOM     31  H   UNL     1       3.140   5.616   0.533  0.00  0.00    +0.210 HD
ENDBRANCH   4  30
BRANCH  13  32
ATOM     32  C   UNL     1       1.679   1.302   1.187  0.00  0.00    +0.166 C 
BRANCH  32  33
ATOM     33  O   UNL     1       0.954   1.760   2.329  0.00  0.00    -0.394 OA
ATOM     34  H   UNL     1       1.264   1.389   3.167  0.00  0.00    +0.209 HD
ENDBRANCH  32  33
ENDBRANCH  13  32
TORSDOF 9
