REMARK  Name = ZINC03875021
REMARK  6 active torsions:
REMARK  status: ('A' for Active; 'I' for Inactive)
REMARK    1  A    between atoms: C_1  and  C_2
REMARK    2  A    between atoms: C_9  and  O_20
REMARK    3  A    between atoms: C_12  and  C_14
REMARK    4  A    between atoms: C_23  and  O_33
REMARK    5  A    between atoms: C_24  and  C_31
REMARK    6  A    between atoms: C_27  and  O_30
REMARK                            x       y       z     vdW  Elec       q    Type
REMARK                         _______ _______ _______ _____ _____    ______ ____
ROOT
ATOM      1  C   UNL     1      -2.655   3.307  -1.322  0.00  0.00    +0.014 C 
ATOM      2  C   UNL     1      -1.415   2.848  -0.540  0.00  0.00    +0.004 C 
ATOM      3  C   UNL     1      -0.251   3.820  -0.688  0.00  0.00    +0.010 C 
ATOM      4  C   UNL     1      -0.508   5.131   0.035  0.00  0.00    +0.005 C 
ATOM      5  C   UNL     1      -0.808   4.944   1.516  0.00  0.00    +0.011 C 
ATOM      6  C   UNL     1      -1.786   3.839   1.792  0.00  0.00    +0.025 C 
ATOM      7  C   UNL     1      -1.737   2.600   0.943  0.00  0.00    +0.075 C 
ATOM      8  C   UNL     1      -0.786   1.506   1.433  0.00  0.00    +0.036 C 
ATOM      9  C   UNL     1      -0.069   0.961   0.178  0.00  0.00    +0.011 C 
ATOM     10  C   UNL     1      -0.933   1.444  -1.009  0.00  0.00    +0.027 C 
ATOM     11  C   UNL     1      -1.967   3.498   3.266  0.00  0.00    +0.009 C 
ATOM     12  C   UNL     1      -0.656   3.489   4.040  0.00  0.00    +0.036 C 
ATOM     13  C   UNL     1       0.065   4.819   3.844  0.00  0.00    +0.081 C 
ATOM     14  C   UNL     1       0.449   4.985   2.372  0.00  0.00    +0.058 C 
ATOM     15  C   UNL     1       1.111   6.365   2.208  0.00  0.00    +0.020 C 
ATOM     16  C   UNL     1       2.348   6.477   3.096  0.00  0.00    +0.032 C 
ATOM     17  C   UNL     1       1.985   6.244   4.561  0.00  0.00    +0.117 C 
ATOM     18  C   UNL     1       1.302   4.888   4.734  0.00  0.00    +0.067 C 
ENDROOT
BRANCH  10  19
ATOM     19  C   UNL     1      -0.122   1.512  -2.278  0.00  0.00    -0.022 C 
ATOM     20  C   UNL     1       1.205   1.491  -2.371  0.00  0.00    +0.094 C 
ATOM     21  C   UNL     1       1.598   1.576  -3.780  0.00  0.00    +0.332 C 
ATOM     22  O   UNL     1       2.744   1.579  -4.186  0.00  0.00    -0.246 OA
ATOM     23  O   UNL     1       0.502   1.651  -4.559  0.00  0.00    -0.457 OA
ATOM     24  C   UNL     1      -0.661   1.611  -3.686  0.00  0.00    +0.264 C 
ENDBRANCH  10  19
BRANCH   7  25
ATOM     25  O   UNL     1      -3.066   2.028   0.977  0.00  0.00    -0.388 OA
ATOM     26  H   UNL     1      -3.384   1.825   1.868  0.00  0.00    +0.210 HD
ENDBRANCH   7  25
BRANCH  17  27
ATOM     27  O   UNL     1       3.175   6.280   5.357  0.00  0.00    -0.392 OA
ATOM     28  H   UNL     1       3.654   7.119   5.311  0.00  0.00    +0.210 HD
ENDBRANCH  17  27
BRANCH  14  29
ATOM     29  C   UNL     1       1.443   3.934   1.964  0.00  0.00    +0.233 C 
ATOM     30  O   UNL     1       2.370   4.225   1.248  0.00  0.00    -0.300 OA
ENDBRANCH  14  29
BRANCH  13  31
ATOM     31  O   UNL     1      -0.824   5.883   4.212  0.00  0.00    -0.388 OA
ATOM     32  H   UNL     1      -1.123   5.845   5.131  0.00  0.00    +0.210 HD
ENDBRANCH  13  31
TORSDOF 5
