REMARK  Name = ZINC08972077
REMARK  4 active torsions:
REMARK  status: ('A' for Active; 'I' for Inactive)
REMARK    1  A    between atoms: C_16  and  C_18
REMARK    2  A    between atoms: C_18  and  C_19
REMARK    3  A    between atoms: N_24  and  C_27
REMARK    4  A    between atoms: C_27  and  C_28
REMARK                            x       y       z     vdW  Elec       q    Type
REMARK                         _______ _______ _______ _____ _____    ______ ____
ROOT
ATOM      1  C   UNL     1      -4.012  -4.788  -1.203  0.00  0.00    +0.002 A 
ATOM      2  C   UNL     1      -4.090  -3.415  -1.050  0.00  0.00    +0.004 A 
ATOM      3  C   UNL     1      -4.853  -2.666  -1.918  0.00  0.00    -0.026 A 
ATOM      4  C   UNL     1      -5.551  -3.277  -2.956  0.00  0.00    +0.054 A 
ATOM      5  C   UNL     1      -5.466  -4.660  -3.104  0.00  0.00    +0.062 A 
ATOM      6  C   UNL     1      -4.700  -5.406  -2.230  0.00  0.00    +0.022 A 
ATOM      7 CL   UNL     1      -6.327  -5.448  -4.389  0.00  0.00    -0.082 Cl
ATOM      8  N   UNL     1      -6.247  -2.321  -3.699  0.00  0.00    -0.285 N 
ATOM      9  C   UNL     1      -6.064  -1.075  -3.221  0.00  0.00    +0.211 C 
ATOM     10  O   UNL     1      -6.544  -0.052  -3.663  0.00  0.00    -0.277 OA
ATOM     11  C   UNL     1      -5.149  -1.198  -2.034  0.00  0.00    +0.050 C 
ATOM     12  C   UNL     1      -3.867  -0.379  -2.228  0.00  0.00    +0.088 C 
ATOM     13  C   UNL     1      -4.118   0.954  -1.468  0.00  0.00    +0.073 C 
ATOM     14  C   UNL     1      -5.545   0.822  -0.897  0.00  0.00    -0.049 C 
ATOM     15  C   UNL     1      -3.112   0.906  -0.340  0.00  0.00    +0.224 C 
ATOM     16  O   UNL     1      -2.975   1.758   0.512  0.00  0.00    -0.275 OA
ATOM     17  N   UNL     1      -2.395  -0.220  -0.430  0.00  0.00    -0.239 N 
ATOM     18  C   UNL     1      -2.736  -1.014  -1.452  0.00  0.00    +0.225 C 
ATOM     19  O   UNL     1      -2.218  -2.079  -1.714  0.00  0.00    -0.275 OA
ATOM     20  H   UNL     1      -6.799  -2.530  -4.469  0.00  0.00    +0.155 HD
ATOM     21  N   UNL     1      -5.775  -0.625  -0.840  0.00  0.00    +0.394 N 
ATOM     22  H   UNL     1      -5.348  -1.018   0.007  0.00  0.00    -0.083 HD
ATOM     23  H   UNL     1      -6.783  -0.824  -0.839  0.00  0.00    -0.083 HD
ENDROOT
BRANCH  14  24
ATOM     24  C   UNL     1      -5.623   1.455   0.493  0.00  0.00    +0.080 C 
BRANCH  24  25
ATOM     25  C   UNL     1      -7.049   1.426   0.980  0.00  0.00    +0.209 C 
ATOM     26  O   UNL     1      -7.918   0.947   0.283  0.00  0.00    -0.276 OA
ATOM     27  N   UNL     1      -7.358   1.933   2.190  0.00  0.00    -0.329 N 
ATOM     28  H   UNL     1      -6.663   2.317   2.747  0.00  0.00    +0.145 HD
ATOM     29  H   UNL     1      -8.276   1.914   2.503  0.00  0.00    +0.145 HD
ENDBRANCH  24  25
ENDBRANCH  14  24
BRANCH  17  30
ATOM     30  C   UNL     1      -1.329  -0.558   0.515  0.00  0.00    +0.148 C 
BRANCH  30  31
ATOM     31  C   UNL     1       0.002  -0.004   0.002  0.00  0.00    +0.136 C 
ATOM     32  C   UNL     1       1.152  -0.389   0.959  0.00  0.00    +0.035 C 
ATOM     33  C   UNL     1       2.073   0.852   0.957  0.00  0.00    +0.031 C 
ATOM     34  C   UNL     1       1.370   1.839  -0.001  0.00  0.00    +0.160 C 
ATOM     35  O   UNL     1      -0.018   1.440   0.010  0.00  0.00    -0.375 OA
ENDBRANCH  30  31
ENDBRANCH  17  30
TORSDOF 4
