REMARK  Name = ZINC61821373
REMARK  4 active torsions:
REMARK  status: ('A' for Active; 'I' for Inactive)
REMARK    1  A    between atoms: N_9  and  C_12
REMARK    2  A    between atoms: C_12  and  CA_13
REMARK    3  A    between atoms: CA_13  and  C_15
REMARK    4  A    between atoms: CA_13  and  N_18
REMARK                            x       y       z     vdW  Elec       q    Type
REMARK                         _______ _______ _______ _____ _____    ______ ____
ROOT
ATOM      1  C   UNL     1       0.739   1.069   1.772  0.00  0.00    +0.000 C 
ATOM      2  C   UNL     1       2.188   1.536   1.620  0.00  0.00    +0.001 C 
ATOM      3  C   UNL     1       2.659   1.279   0.187  0.00  0.00    +0.007 C 
ATOM      4  C   UNL     1       2.568  -0.216  -0.120  0.00  0.00    -0.033 C 
ATOM      5  C   UNL     1       1.119  -0.683   0.033  0.00  0.00    +0.007 C 
ATOM      6  C   UNL     1       0.649  -0.427   1.466  0.00  0.00    +0.001 C 
ATOM      7  C   UNL     1       3.041  -0.476  -1.553  0.00  0.00    -0.012 C 
ATOM      8  C   UNL     1       3.021  -1.982  -1.825  0.00  0.00    -0.078 C 
ATOM      9  N   UNL     1       3.914  -2.665  -0.881  0.00  0.00    +0.379 N 
ATOM     10  C   UNL     1       3.425  -2.480   0.491  0.00  0.00    -0.078 C 
ATOM     11  C   UNL     1       3.460  -0.993   0.852  0.00  0.00    -0.012 C 
ATOM     12  H   UNL     1       4.843  -2.280  -0.960  0.00  0.00    -0.082 HD
ENDROOT
BRANCH   9  13
ATOM     13  C   UNL     1       3.952  -4.099  -1.196  0.00  0.00    -0.084 C 
BRANCH  13  14
ATOM     14  CA  UNL     1       4.606  -4.303  -2.564  0.00  0.00    +0.023 C 
BRANCH  14  15
ATOM     15  N   UNL     1       5.936  -3.679  -2.568  0.00  0.00    +0.386 N 
ATOM     16  H1  UNL     1       6.477  -4.034  -1.795  0.00  0.00    -0.089 HD
ATOM     17  H2  UNL     1       6.406  -3.894  -3.435  0.00  0.00    -0.089 HD
ATOM     18  H3  UNL     1       5.838  -2.678  -2.479  0.00  0.00    -0.089 HD
ENDBRANCH  14  15
BRANCH  14  19
ATOM     19  C   UNL     1       4.744  -5.779  -2.840  0.00  0.00    +0.340 C 
ATOM     20  O   UNL     1       3.752  -6.452  -3.060  0.00  0.00    -0.248 OA
ATOM     21  OXT UNL     1       5.847  -6.298  -2.842  0.00  0.00    -0.248 OA
ENDBRANCH  14  19
ENDBRANCH  13  14
ENDBRANCH   9  13
TORSDOF 4
