REMARK  Name = ZINC08955605
REMARK  10 active torsions:
REMARK  status: ('A' for Active; 'I' for Inactive)
REMARK    1  A    between atoms: C_1  and  O_2
REMARK    2  A    between atoms: O_2  and  C_3
REMARK    3  A    between atoms: C_6  and  C_9
REMARK    4  A    between atoms: N_11  and  C_12
REMARK    5  A    between atoms: C_12  and  C_13
REMARK    6  A    between atoms: C_12  and  C_17
REMARK    7  A    between atoms: C_12  and  N_60
REMARK    8  A    between atoms: C_21  and  C_22
REMARK    9  A    between atoms: C_21  and  N_60
REMARK   10  A    between atoms: C_22  and  C_23
REMARK                            x       y       z     vdW  Elec       q    Type
REMARK                         _______ _______ _______ _____ _____    ______ ____
ROOT
ATOM      1  C   UNL     1       1.221   1.677  -0.024  0.00  0.00    +0.193 C 
ENDROOT
BRANCH   1   4
ATOM      2  C   UNL     1      -0.227  -0.234  -0.455  0.00  0.00    +0.243 C 
ATOM      3  O   UNL     1       0.731  -0.820  -0.922  0.00  0.00    -0.270 OA
ATOM      4  N   UNL     1      -0.073   0.998   0.069  0.00  0.00    -0.307 N 
ATOM      5  H   UNL     1      -0.819   1.434   0.511  0.00  0.00    +0.148 HD
BRANCH   2   9
ATOM      6  C   UNL     1      -4.055  -2.073  -0.472  0.00  0.00    +0.120 A 
ATOM      7  C   UNL     1      -2.961  -2.744  -1.007  0.00  0.00    +0.046 A 
ATOM      8  C   UNL     1      -1.718  -2.151  -1.003  0.00  0.00    +0.016 A 
ATOM      9  C   UNL     1      -1.557  -0.873  -0.461  0.00  0.00    +0.037 A 
ATOM     10  C   UNL     1      -2.658  -0.205   0.081  0.00  0.00    +0.016 A 
ATOM     11  C   UNL     1      -3.899  -0.802   0.069  0.00  0.00    +0.046 A 
BRANCH   6  13
ATOM     12  C   UNL     1      -6.358  -1.916   0.089  0.00  0.00    +0.277 C 
ATOM     13  O   UNL     1      -5.278  -2.661  -0.477  0.00  0.00    -0.495 OA
ENDBRANCH   6  13
ENDBRANCH   2   9
ENDBRANCH   1   4
BRANCH   1  14
ATOM     14  C   UNL     1       1.449   2.148  -1.462  0.00  0.00    +0.404 C 
ATOM     15  F   UNL     1       0.360   2.922  -1.877  0.00  0.00    -0.170 F 
ATOM     16  F   UNL     1       2.617   2.916  -1.522  0.00  0.00    -0.170 F 
ATOM     17  F   UNL     1       1.578   1.036  -2.301  0.00  0.00    -0.170 F 
ENDBRANCH   1  14
BRANCH   1  18
ATOM     18  C   UNL     1       1.232   2.885   0.916  0.00  0.00    +0.404 C 
ATOM     19  F   UNL     1       1.177   2.445   2.243  0.00  0.00    -0.170 F 
ATOM     20  F   UNL     1       2.405   3.620   0.717  0.00  0.00    -0.170 F 
ATOM     21  F   UNL     1       0.123   3.695   0.647  0.00  0.00    -0.170 F 
ENDBRANCH   1  18
BRANCH   1  22
ATOM     22  N   UNL     1       2.290   0.737   0.365  0.00  0.00    +0.405 N 
ATOM     23  H   UNL     1       2.350  -0.013  -0.334  0.00  0.00    -0.082 HD
ATOM     24  H   UNL     1       2.068   0.333   1.282  0.00  0.00    -0.082 HD
BRANCH  22  25
ATOM     25  C   UNL     1       3.586   1.437   0.441  0.00  0.00    -0.078 C 
BRANCH  25  26
ATOM     26  C   UNL     1       4.690   0.418   0.730  0.00  0.00    -0.012 C 
BRANCH  26  27
ATOM     27  C   UNL     1       6.038   1.137   0.811  0.00  0.00    -0.030 C 
ATOM     28  C   UNL     1       6.325   1.835  -0.519  0.00  0.00    +0.010 C 
ATOM     29  C   UNL     1       7.673   2.553  -0.438  0.00  0.00    -0.010 C 
ATOM     30  C   UNL     1       8.777   1.535  -0.148  0.00  0.00    +0.007 C 
ATOM     31  C   UNL     1       8.491   0.836   1.182  0.00  0.00    -0.010 C 
ATOM     32  C   UNL     1       7.142   0.118   1.101  0.00  0.00    +0.010 C 
ATOM     33  C   UNL     1       8.448   1.875   2.305  0.00  0.00    +0.007 C 
ATOM     34  C   UNL     1       7.344   2.894   2.015  0.00  0.00    -0.010 C 
ATOM     35  C   UNL     1       7.631   3.592   0.684  0.00  0.00    +0.007 C 
ATOM     36  C   UNL     1       5.996   2.176   1.934  0.00  0.00    +0.010 C 
ENDBRANCH  26  27
ENDBRANCH  25  26
ENDBRANCH  22  25
ENDBRANCH   1  22
TORSDOF 9
