REMARK  Name = ZINC08780825
REMARK  8 active torsions:
REMARK  status: ('A' for Active; 'I' for Inactive)
REMARK    1  A    between atoms: C_1  and  C_2
REMARK    2  A    between atoms: C_1  and  S_6
REMARK    3  A    between atoms: N_3  and  O_4
REMARK    4  A    between atoms: S_6  and  C_7
REMARK    5  A    between atoms: C_9  and  S_12
REMARK    6  A    between atoms: S_12  and  C_13
REMARK    7  A    between atoms: C_13  and  C_14
REMARK    8  A    between atoms: N_15  and  O_16
REMARK                            x       y       z     vdW  Elec       q    Type
REMARK                         _______ _______ _______ _____ _____    ______ ____
ROOT
ATOM      1  C   UNL     1       1.493   3.882   0.030  0.00  0.00    +0.198 A 
ATOM      2  N   UNL     1       2.543   4.680   0.030  0.00  0.00    -0.206 NA
ATOM      3  C   UNL     1       2.322   5.985   0.041  0.00  0.00    +0.156 A 
ATOM      4  S   UNL     1       0.644   6.073   0.051  0.00  0.00    +0.041 S 
ATOM      5  N   UNL     1       0.298   4.433   0.035  0.00  0.00    -0.182 NA
ENDROOT
BRANCH   1   6
ATOM      6  S   UNL     1       1.684   2.130   0.017  0.00  0.00    -0.078 S 
BRANCH   6   7
ATOM      7  C   UNL     1      -0.018   1.503   0.014  0.00  0.00    +0.152 C 
BRANCH   7   8
ATOM      8  C   UNL     1       0.002  -0.004   0.002  0.00  0.00    +0.142 C 
ATOM      9  N   UNL     1      -1.103  -0.666   0.106  0.00  0.00    -0.076 NA
ATOM     10  N   UNL     1       1.198  -0.676  -0.120  0.00  0.00    -0.343 N 
ATOM     11  H   UNL     1       2.028  -0.179  -0.198  0.00  0.00    +0.144 HD
ATOM     12  H   UNL     1       1.211  -1.646  -0.127  0.00  0.00    +0.144 HD
BRANCH   9  13
ATOM     13  O   UNL     1      -2.341   0.021   0.122  0.00  0.00    -0.408 OA
ATOM     14  H   UNL     1      -3.111  -0.557   0.203  0.00  0.00    +0.328 HD
ENDBRANCH   9  13
ENDBRANCH   7   8
ENDBRANCH   6   7
ENDBRANCH   1   6
BRANCH   3  15
ATOM     15  S   UNL     1       3.494   7.301   0.044  0.00  0.00    -0.090 S 
BRANCH  15  16
ATOM     16  C   UNL     1       2.471   8.799   0.060  0.00  0.00    +0.151 C 
BRANCH  16  17
ATOM     17  C   UNL     1       3.361  10.015   0.065  0.00  0.00    +0.142 C 
ATOM     18  N   UNL     1       4.646   9.875   0.057  0.00  0.00    -0.076 NA
ATOM     19  N   UNL     1       2.806  11.275   0.077  0.00  0.00    -0.343 N 
ATOM     20  H   UNL     1       1.842  11.380   0.083  0.00  0.00    +0.144 HD
ATOM     21  H   UNL     1       3.379  12.057   0.080  0.00  0.00    +0.144 HD
BRANCH  18  22
ATOM     22  O   UNL     1       5.482  11.017   0.061  0.00  0.00    -0.408 OA
ATOM     23  H   UNL     1       6.427  10.812   0.055  0.00  0.00    +0.328 HD
ENDBRANCH  18  22
ENDBRANCH  16  17
ENDBRANCH  15  16
ENDBRANCH   3  15
TORSDOF 8
