REMARK  Name = ZINC11026277
REMARK  4 active torsions:
REMARK  status: ('A' for Active; 'I' for Inactive)
REMARK    1  A    between atoms: C_5  and  C_7
REMARK    2  A    between atoms: C_7  and  S_8
REMARK    3  A    between atoms: S_8  and  C_9
REMARK    4  A    between atoms: C_15  and  C_19
REMARK                            x       y       z     vdW  Elec       q    Type
REMARK                         _______ _______ _______ _____ _____    ______ ____
ROOT
ATOM      1  C   UNL     1       1.275  -4.553   1.506  0.00  0.00    +0.174 C 
ATOM      2  N   UNL     1       1.278  -5.210   0.359  0.00  0.00    -0.192 NA
ATOM      3  C   UNL     1       1.297  -6.531   0.578  0.00  0.00    +0.215 C 
ATOM      4  N   UNL     1       1.309  -7.558  -0.262  0.00  0.00    -0.330 N 
ATOM      5  C   UNL     1       1.328  -8.834   0.093  0.00  0.00    +0.027 C 
ATOM      6  C   UNL     1       1.337  -9.200   1.426  0.00  0.00    +0.041 C 
ATOM      7  C   UNL     1       1.326  -8.093   2.462  0.00  0.00    +0.162 C 
ATOM      8  N   UNL     1       1.306  -6.722   1.938  0.00  0.00    -0.208 N 
ATOM      9  N   UNL     1       1.297  -5.457   2.533  0.00  0.00    -0.239 N 
ATOM     10  C   UNL     1       1.352 -10.526   1.825  0.00  0.00    +0.163 C 
ATOM     11  O   UNL     1       1.362 -10.798   3.011  0.00  0.00    -0.292 OA
ATOM     12  C   UNL     1       1.356 -11.637   0.806  0.00  0.00    +0.080 C 
ATOM     13  C   UNL     1       0.642 -11.155  -0.460  0.00  0.00    +0.014 C 
ATOM     14  C   UNL     1       1.343  -9.898  -0.979  0.00  0.00    +0.054 C 
ATOM     15  H   UNL     1       1.303  -7.359  -1.212  0.00  0.00    +0.168 HD
ATOM     16  H   UNL     1       1.303  -5.260   3.482  0.00  0.00    +0.172 HD
ENDROOT
BRANCH   7  17
ATOM     17  C   UNL     1       0.111  -8.277   3.335  0.00  0.00    -0.021 A 
ATOM     18  C   UNL     1      -1.129  -7.856   2.891  0.00  0.00    +0.008 A 
ATOM     19  C   UNL     1      -2.243  -8.025   3.690  0.00  0.00    +0.038 A 
ATOM     20  C   UNL     1      -2.118  -8.616   4.936  0.00  0.00    +0.123 A 
ATOM     21  C   UNL     1      -0.876  -9.038   5.379  0.00  0.00    +0.038 A 
ATOM     22  C   UNL     1       0.236  -8.873   4.576  0.00  0.00    +0.008 A 
ATOM     23  F   UNL     1      -3.208  -8.782   5.718  0.00  0.00    -0.205 F 
ENDBRANCH   7  17
BRANCH   1  24
ATOM     24  S   UNL     1       1.253  -2.800   1.685  0.00  0.00    -0.084 S 
BRANCH  24  25
ATOM     25  C   UNL     1       1.228  -2.186  -0.022  0.00  0.00    +0.115 C 
BRANCH  25  30
ATOM     26  C   UNL     1      -0.017   1.378   0.010  0.00  0.00    +0.000 A 
ATOM     27  C   UNL     1       1.171   2.087   0.002  0.00  0.00    +0.003 A 
ATOM     28  C   UNL     1       2.377   1.414  -0.013  0.00  0.00    +0.038 A 
ATOM     29  C   UNL     1       2.397   0.029  -0.021  0.00  0.00    +0.127 A 
ATOM     30  C   UNL     1       1.208  -0.679  -0.013  0.00  0.00    -0.002 A 
ATOM     31  C   UNL     1       0.002  -0.004   0.002  0.00  0.00    +0.007 A 
ATOM     32  F   UNL     1       3.577  -0.630  -0.036  0.00  0.00    -0.205 F 
ENDBRANCH  25  30
ENDBRANCH  24  25
ENDBRANCH   1  24
TORSDOF 4
