REMARK  Name = ZINC38688776
REMARK  6 active torsions:
REMARK  status: ('A' for Active; 'I' for Inactive)
REMARK    1  A    between atoms: C_6  and  N_7
REMARK    2  A    between atoms: C_11  and  N_12
REMARK    3  A    between atoms: N_12  and  C_13
REMARK    4  A    between atoms: C_13  and  C_14
REMARK    5  A    between atoms: C_14  and  C_15
REMARK    6  A    between atoms: C_18  and  O_24
REMARK                            x       y       z     vdW  Elec       q    Type
REMARK                         _______ _______ _______ _____ _____    ______ ____
ROOT
ATOM      1  N   UNL     1      -1.205  -0.720  -0.004  0.00  0.00    -0.190 N 
ATOM      2  C   UNL     1      -1.171  -2.064  -0.122  0.00  0.00    +0.265 C 
ATOM      3  O   UNL     1      -0.115  -2.651  -0.264  0.00  0.00    -0.269 OA
ATOM      4  C   UNL     1      -2.446  -2.800  -0.073  0.00  0.00    +0.113 C 
ATOM      5  C   UNL     1      -2.489  -4.178  -0.186  0.00  0.00    +0.085 C 
ATOM      6  C   UNL     1      -3.674  -2.005   0.103  0.00  0.00    +0.258 C 
ATOM      7  O   UNL     1      -4.765  -2.542   0.154  0.00  0.00    -0.270 OA
ATOM      8  N   UNL     1      -3.556  -0.665   0.208  0.00  0.00    -0.235 N 
ATOM      9  C   UNL     1      -2.361  -0.061   0.160  0.00  0.00    +0.320 C 
ATOM     10  O   UNL     1      -2.323   1.149   0.265  0.00  0.00    -0.251 OA
ATOM     11  H   UNL     1      -4.355  -0.127   0.324  0.00  0.00    +0.159 HD
ENDROOT
BRANCH   1  17
ATOM     12  C   UNL     1       0.475   0.623   1.098  0.00  0.00    +0.025 A 
ATOM     13  C   UNL     1       1.658   1.334   1.052  0.00  0.00    +0.017 A 
ATOM     14  C   UNL     1       2.365   1.428  -0.133  0.00  0.00    +0.018 A 
ATOM     15  C   UNL     1       1.889   0.809  -1.276  0.00  0.00    +0.017 A 
ATOM     16  C   UNL     1       0.707   0.097  -1.236  0.00  0.00    +0.025 A 
ATOM     17  C   UNL     1      -0.005   0.002  -0.047  0.00  0.00    +0.046 A 
ATOM     18 BR   UNL     1       3.984   2.403  -0.192  0.00  0.00    -0.050 Br
ENDBRANCH   1  17
BRANCH   5  19
ATOM     19  N   UNL     1      -3.676  -4.810  -0.275  0.00  0.00    -0.349 N 
ATOM     20  H   UNL     1      -4.496  -4.296  -0.339  0.00  0.00    +0.146 HD
BRANCH  19  21
ATOM     21  C   UNL     1      -3.727  -6.274  -0.273  0.00  0.00    +0.105 C 
BRANCH  21  22
ATOM     22  C   UNL     1      -5.183  -6.733  -0.383  0.00  0.00    +0.052 C 
BRANCH  22  23
ATOM     23  C   UNL     1      -5.236  -8.239  -0.381  0.00  0.00    -0.040 C 
ATOM     24  C   UNL     1      -5.446  -9.044   0.685  0.00  0.00    +0.002 A 
ATOM     25  C   UNL     1      -5.678  -8.771   2.108  0.00  0.00    +0.055 A 
ATOM     26  C   UNL     1      -5.860  -9.805   2.964  0.00  0.00    +0.118 A 
ATOM     27  C   UNL     1      -5.835 -11.145   2.539  0.00  0.00    +0.047 A 
ATOM     28  C   UNL     1      -5.628 -11.496   1.252  0.00  0.00    +0.029 A 
ATOM     29  C   UNL     1      -5.420 -10.456   0.239  0.00  0.00    +0.043 A 
ATOM     30  N   UNL     1      -5.202 -10.521  -1.051  0.00  0.00    -0.380 N 
ATOM     31  C   UNL     1      -5.072  -9.156  -1.573  0.00  0.00    +0.144 C 
ATOM     32  H   UNL     1      -5.141 -11.336  -1.574  0.00  0.00    +0.160 HD
BRANCH  26  33
ATOM     33  O   UNL     1      -6.074  -9.538   4.280  0.00  0.00    -0.507 OA
ATOM     34  H   UNL     1      -7.006  -9.430   4.513  0.00  0.00    +0.292 HD
ENDBRANCH  26  33
ENDBRANCH  22  23
ENDBRANCH  21  22
ENDBRANCH  19  21
ENDBRANCH   5  19
TORSDOF 6
