REMARK  Name = ZINC04534001
REMARK  14 active torsions:
REMARK  status: ('A' for Active; 'I' for Inactive)
REMARK    1  A    between atoms: CB_1  and  CA_2
REMARK    2  A    between atoms: CA_2  and  C_4
REMARK    3  A    between atoms: CA_2  and  N_12
REMARK    4  A    between atoms: N_6  and  CA_7
REMARK    5  A    between atoms: CA_7  and  CB_9
REMARK    6  A    between atoms: CA_7  and  C_10
REMARK    7  A    between atoms: C_13  and  CA_15
REMARK    8  A    between atoms: CA_15  and  CB_17
REMARK    9  A    between atoms: CA_15  and  N_21
REMARK   10  A    between atoms: CB_17  and  CG_18
REMARK   11  A    between atoms: CG_18  and  CD_19
REMARK   12  A    between atoms: CD_19  and  CE_20
REMARK   13  A    between atoms: CE_20  and  NZ_48
REMARK   14  A    between atoms: C_22  and  C_24
REMARK                            x       y       z     vdW  Elec       q    Type
REMARK                         _______ _______ _______ _____ _____    ______ ____
ROOT
ATOM      1  N   LYS A   1       1.143   1.898   0.001  0.00  0.00    -0.303 N 
ATOM      2  C   LYS A   1      -0.014   1.209   0.009  0.00  0.00    +0.234 C 
ATOM      3  O   LYS A   1       0.002  -0.004   0.002  0.00  0.00    -0.274 OA
ATOM      4  H   LYS A   1       1.130   2.868   0.007  0.00  0.00    +0.149 HD
ENDROOT
BRANCH   1   6
ATOM      5  CB  LYS A   1       2.819   0.817   1.417  0.00  0.00    +0.038 C 
ATOM      6  CA  LYS A   1       2.422   1.183  -0.015  0.00  0.00    +0.156 C 
BRANCH   6   7
ATOM      7  C   LYS A   1       3.483   2.065  -0.621  0.00  0.00    +0.234 C 
ATOM      8  O   LYS A   1       3.200   3.181  -1.002  0.00  0.00    -0.274 OA
ATOM      9  N   LYS A   1       4.748   1.613  -0.739  0.00  0.00    -0.301 N 
ATOM     10  H   LYS A   1       4.974   0.721  -0.434  0.00  0.00    +0.150 HD
BRANCH   9  11
ATOM     11  CA  LYS A   1       5.779   2.471  -1.328  0.00  0.00    +0.183 C 
ATOM     12  CB  LYS A   1       6.362   3.383  -0.247  0.00  0.00    +0.040 C 
BRANCH  11  13
ATOM     13  C   LYS A   1       6.875   1.613  -1.906  0.00  0.00    +0.376 C 
ATOM     14  O   LYS A   1       6.802   0.409  -1.834  0.00  0.00    -0.244 OA
ATOM     15  OXT LYS A   1       7.933   2.186  -2.502  0.00  0.00    -0.244 OA
ENDBRANCH  11  13
ENDBRANCH   9  11
ENDBRANCH   6   7
ENDBRANCH   1   6
BRANCH   2  16
ATOM     16  CA  LYS A   1      -1.330   1.944   0.019  0.00  0.00    +0.159 C 
BRANCH  16  17
ATOM     17  N   LYS A   1      -2.387   1.047   0.491  0.00  0.00    -0.304 N 
ATOM     18  C   UNK A   0      -2.656  -0.090  -0.179  0.00  0.00    +0.211 C 
ATOM     19  O   UNK A   0      -2.022  -0.371  -1.175  0.00  0.00    -0.276 OA
ATOM     20  C   UNK A   0      -3.744  -1.013   0.307  0.00  0.00    +0.109 C 
ATOM     21  H   LYS A   1      -2.894   1.272   1.287  0.00  0.00    +0.149 HD
ENDBRANCH  16  17
BRANCH  16  22
ATOM     22  CB  LYS A   1      -1.659   2.420  -1.398  0.00  0.00    +0.032 C 
BRANCH  22  23
ATOM     23  CG  LYS A   1      -2.929   3.272  -1.367  0.00  0.00    +0.000 C 
BRANCH  23  24
ATOM     24  CD  LYS A   1      -3.259   3.748  -2.783  0.00  0.00    -0.019 C 
BRANCH  24  25
ATOM     25  CE  LYS A   1      -4.529   4.600  -2.753  0.00  0.00    -0.086 C 
BRANCH  25  28
ATOM     26  HZ1 LYS A   1      -4.933   4.275  -4.745  0.00  0.00    -0.090 HD
ATOM     27  HZ2 LYS A   1      -5.681   5.622  -4.119  0.00  0.00    -0.090 HD
ATOM     28  NZ  LYS A   1      -4.824   5.070  -4.117  0.00  0.00    +0.378 N 
ATOM     29  HZ3 LYS A   1      -4.048   5.655  -4.449  0.00  0.00    -0.090 HD
ENDBRANCH  25  28
ENDBRANCH  24  25
ENDBRANCH  23  24
ENDBRANCH  22  23
ENDBRANCH  16  22
ENDBRANCH   2  16
TORSDOF 11
