REMARK  Name = ZINC65406643
REMARK  8 active torsions:
REMARK  status: ('A' for Active; 'I' for Inactive)
REMARK    1  A    between atoms: C_1  and  O_2
REMARK    2  A    between atoms: O_2  and  C_3
REMARK    3  A    between atoms: C_7  and  O_11
REMARK    4  A    between atoms: C_8  and  O_9
REMARK    5  A    between atoms: O_9  and  C_10
REMARK    6  A    between atoms: O_11  and  C_12
REMARK    7  A    between atoms: C_13  and  C_19
REMARK    8  A    between atoms: C_22  and  N_25
REMARK                            x       y       z     vdW  Elec       q    Type
REMARK                         _______ _______ _______ _____ _____    ______ ____
ROOT
ATOM      1  C   UNL     1      -0.853  -1.437  -0.321  0.00  0.00    +0.167 A 
ATOM      2  C   UNL     1      -1.763  -0.438  -0.009  0.00  0.00    +0.073 A 
ATOM      3  C   UNL     1      -3.115  -0.736   0.086  0.00  0.00    +0.044 A 
ATOM      4  C   UNL     1      -3.558  -2.034  -0.134  0.00  0.00    +0.023 A 
ATOM      5  C   UNL     1      -2.650  -3.033  -0.447  0.00  0.00    +0.170 A 
ATOM      6  C   UNL     1      -1.296  -2.735  -0.546  0.00  0.00    +0.204 A 
ATOM      7  C   UNL     1      -5.027  -2.352  -0.032  0.00  0.00    +0.036 C 
ATOM      8  C   UNL     1      -5.665  -1.481   1.051  0.00  0.00    +0.104 C 
ATOM      9  C   UNL     1      -5.262  -0.044   0.856  0.00  0.00    +0.218 C 
ATOM     10  O   UNL     1      -6.052   0.840   1.111  0.00  0.00    -0.275 OA
ATOM     11  N   UNL     1      -4.035   0.271   0.401  0.00  0.00    -0.285 N 
ATOM     12  H   UNL     1      -3.787   1.202   0.292  0.00  0.00    +0.155 HD
ENDROOT
BRANCH   7  13
ATOM     13  C   UNL     1      -5.704  -2.072  -1.375  0.00  0.00    -0.003 C 
ATOM     14  C   UNL     1      -7.166  -2.518  -1.312  0.00  0.00    +0.002 C 
ATOM     15  C   UNL     1      -7.843  -2.238  -2.656  0.00  0.00    -0.016 C 
ATOM     16  C   UNL     1      -7.121  -3.012  -3.761  0.00  0.00    -0.075 C 
ATOM     17  C   UNL     1      -5.659  -2.566  -3.824  0.00  0.00    -0.016 C 
ATOM     18  C   UNL     1      -4.982  -2.846  -2.481  0.00  0.00    +0.002 C 
BRANCH  16  19
ATOM     19  N   UNL     1      -7.771  -2.743  -5.051  0.00  0.00    +0.380 N 
ATOM     20  H   UNL     1      -7.728  -1.754  -5.250  0.00  0.00    -0.090 HD
ATOM     21  H   UNL     1      -7.295  -3.253  -5.780  0.00  0.00    -0.090 HD
ATOM     22  H   UNL     1      -8.735  -3.037  -5.010  0.00  0.00    -0.090 HD
ENDBRANCH  16  19
ENDBRANCH   7  13
BRANCH   1  24
ATOM     23  C   UNL     1       0.856   0.210  -0.170  0.00  0.00    +0.277 C 
ATOM     24  O   UNL     1       0.472  -1.145  -0.413  0.00  0.00    -0.491 OA
ENDBRANCH   1  24
BRANCH   6  25
ATOM     25  O   UNL     1      -0.404  -3.714  -0.858  0.00  0.00    -0.488 OA
ATOM     26  C   UNL     1       0.267  -4.351   0.231  0.00  0.00    +0.277 C 
ENDBRANCH   6  25
BRANCH   5  27
ATOM     27  O   UNL     1      -3.084  -4.304  -0.661  0.00  0.00    -0.491 OA
ATOM     28  C   UNL     1      -3.255  -5.134   0.490  0.00  0.00    +0.277 C 
ENDBRANCH   5  27
TORSDOF 5
