REMARK  Name = ZINC36017387
REMARK  14 active torsions:
REMARK  status: ('A' for Active; 'I' for Inactive)
REMARK    1  A    between atoms: C_1  and  C_2
REMARK    2  A    between atoms: C_2  and  C_3
REMARK    3  A    between atoms: C_3  and  N_4
REMARK    4  A    between atoms: N_11  and  C_14
REMARK    5  A    between atoms: C_14  and  C_15
REMARK    6  A    between atoms: C_16  and  C_33
REMARK    7  A    between atoms: C_17  and  C_25
REMARK    8  A    between atoms: N_22  and  C_23
REMARK    9  A    between atoms: C_23  and  C_24
REMARK   10  A    between atoms: C_27  and  C_32
REMARK   11  A    between atoms: C_30  and  C_31
REMARK   12  A    between atoms: C_33  and  O_35
REMARK   13  A    between atoms: O_35  and  C_36
REMARK   14  A    between atoms: C_36  and  C_37
REMARK                            x       y       z     vdW  Elec       q    Type
REMARK                         _______ _______ _______ _____ _____    ______ ____
ROOT
ATOM      1  C   UNL     1      -4.739  -7.550   3.342  0.00  0.00    +0.010 C 
ATOM      2  C   UNL     1      -5.422  -8.662   3.689  0.00  0.00    +0.076 C 
ATOM      3  C   UNL     1      -6.889  -8.734   3.319  0.00  0.00    +0.144 C 
ATOM      4  N   UNL     1      -7.455  -7.577   2.605  0.00  0.00    -0.288 N 
ATOM      5  C   UNL     1      -6.644  -6.536   2.328  0.00  0.00    +0.307 C 
ATOM      6  O   UNL     1      -7.102  -5.576   1.739  0.00  0.00    -0.252 OA
ATOM      7  N   UNL     1      -5.354  -6.523   2.684  0.00  0.00    -0.261 N 
ATOM      8  H   UNL     1      -8.388  -7.564   2.341  0.00  0.00    +0.151 HD
ENDROOT
BRANCH   3   9
ATOM      9  C   UNL     1      -7.680  -8.929   4.587  0.00  0.00    -0.019 A 
ATOM     10  C   UNL     1      -7.805  -7.889   5.490  0.00  0.00    +0.009 A 
ATOM     11  C   UNL     1      -8.530  -8.067   6.653  0.00  0.00    -0.050 A 
ATOM     12  C   UNL     1      -9.130  -9.285   6.914  0.00  0.00    +0.003 A 
ATOM     13  C   UNL     1      -9.005 -10.324   6.011  0.00  0.00    +0.004 A 
ATOM     14  C   UNL     1      -8.284 -10.145   4.845  0.00  0.00    -0.045 A 
ATOM     15  C   UNL     1      -8.152 -11.276   3.858  0.00  0.00    +0.044 C 
ATOM     16  C   UNL     1      -8.666  -6.934   7.637  0.00  0.00    +0.044 C 
ENDBRANCH   3   9
BRANCH   7  17
ATOM     17  C   UNL     1      -4.554  -5.343   2.344  0.00  0.00    +0.111 C 
ATOM     18  C   UNL     1      -4.024  -5.482   0.916  0.00  0.00    +0.025 C 
ENDBRANCH   7  17
BRANCH   2  19
ATOM     19  C   UNL     1      -4.788  -9.725   4.375  0.00  0.00    +0.339 C 
ATOM     20  O   UNL     1      -3.647  -9.595   4.777  0.00  0.00    -0.245 OA
BRANCH  19  21
ATOM     21  O   UNL     1      -5.449 -10.883   4.584  0.00  0.00    -0.462 OA
BRANCH  21  22
ATOM     22  C   UNL     1      -4.791 -11.871   5.379  0.00  0.00    +0.229 C 
ATOM     23  C   UNL     1      -5.632 -13.149   5.404  0.00  0.00    +0.048 C 
ENDBRANCH  21  22
ENDBRANCH  19  21
ENDBRANCH   2  19
BRANCH   1  24
ATOM     24  C   UNL     1      -3.278  -7.438   3.691  0.00  0.00    -0.026 C 
BRANCH  24  32
ATOM     25  N   UNL     1      -2.988  -8.303   8.995  0.00  0.00    -0.299 N 
ATOM     26  C   UNL     1      -2.133  -7.302   8.705  0.00  0.00    +0.302 C 
ATOM     27  O   UNL     1      -1.058  -7.238   9.268  0.00  0.00    -0.253 OA
ATOM     28  N   UNL     1      -2.471  -6.371   7.790  0.00  0.00    -0.287 N 
ATOM     29  C   UNL     1      -1.466  -5.364   7.395  0.00  0.00    +0.107 C 
ATOM     30  C   UNL     1      -1.498  -5.116   5.876  0.00  0.00    +0.000 C 
ATOM     31  C   UNL     1      -1.700  -6.431   5.156  0.00  0.00    -0.077 C 
ATOM     32  N   UNL     1      -3.126  -6.633   4.911  0.00  0.00    +0.384 N 
ATOM     33  C   UNL     1      -3.825  -7.274   5.958  0.00  0.00    -0.059 C 
ATOM     34  C   UNL     1      -3.805  -6.398   7.226  0.00  0.00    +0.091 C 
ATOM     35  H   UNL     1      -3.873  -8.314   8.600  0.00  0.00    +0.150 HD
ATOM     36  H   UNL     1      -3.552  -5.732   4.748  0.00  0.00    -0.081 HD
BRANCH  25  37
ATOM     37  C   UNL     1      -2.579  -9.373   9.908  0.00  0.00    +0.105 C 
BRANCH  37  39
ATOM     38  C   UNL     1      -3.299 -11.492  11.019  0.00  0.00    +0.005 C 
ATOM     39  C   UNL     1      -3.725 -10.374  10.066  0.00  0.00    +0.015 C 
ENDBRANCH  37  39
ENDBRANCH  25  37
ENDBRANCH  24  32
ENDBRANCH   1  24
TORSDOF 9
