REMARK  Name = ZINC09580616
REMARK  8 active torsions:
REMARK  status: ('A' for Active; 'I' for Inactive)
REMARK    1  A    between atoms: C_1  and  C_2
REMARK    2  A    between atoms: C_5  and  S_8
REMARK    3  A    between atoms: S_8  and  N_11
REMARK    4  A    between atoms: C_17  and  C_18
REMARK    5  A    between atoms: C_17  and  N_62
REMARK    6  A    between atoms: N_20  and  C_21
REMARK    7  A    between atoms: C_21  and  C_23
REMARK    8  A    between atoms: C_21  and  C_29
REMARK                            x       y       z     vdW  Elec       q    Type
REMARK                         _______ _______ _______ _____ _____    ______ ____
ROOT
ATOM      1  N   UNL     1       2.114  -0.219   1.221  0.00  0.00    -0.178 NA
ATOM      2  C   UNL     1       0.701  -0.525   1.283  0.00  0.00    +0.107 C 
ATOM      3  C   UNL     1       0.002  -0.004   0.002  0.00  0.00    -0.001 C 
ATOM      4  C   UNL     1      -0.018   1.471   0.010  0.00  0.00    -0.077 C 
ATOM      5  C   UNL     1       1.803   2.255   1.351  0.00  0.00    -0.061 C 
ATOM      6  C   UNL     1       2.683   1.048   1.727  0.00  0.00    +0.091 C 
ATOM      7  N   UNL     1       1.322   2.076  -0.011  0.00  0.00    +0.386 N 
ATOM      8  H   UNL     1       1.963   1.451  -0.513  0.00  0.00    -0.081 HD
ENDROOT
BRANCH   1   9
ATOM      9  S   UNL     1       3.138  -1.336   0.554  0.00  0.00    +0.061 S 
ATOM     10  O   UNL     1       4.426  -1.083   1.099  0.00  0.00    -0.153 OA
ATOM     11  O   UNL     1       2.495  -2.598   0.673  0.00  0.00    -0.153 OA
BRANCH   9  16
ATOM     12  C   UNL     1       3.493  -0.132  -5.347  0.00  0.00    +0.044 C 
ATOM     13  C   UNL     1       3.404  -0.433  -3.873  0.00  0.00    -0.050 A 
ATOM     14  C   UNL     1       4.291   0.158  -2.993  0.00  0.00    +0.005 A 
ATOM     15  C   UNL     1       4.210  -0.118  -1.641  0.00  0.00    +0.029 A 
ATOM     16  C   UNL     1       3.241  -0.985  -1.169  0.00  0.00    +0.105 A 
ATOM     17  C   UNL     1       2.357  -1.579  -2.050  0.00  0.00    +0.029 A 
ATOM     18  C   UNL     1       2.436  -1.300  -3.402  0.00  0.00    +0.005 A 
ENDBRANCH   9  16
ENDBRANCH   1   9
BRANCH   7  19
ATOM     19  C   UNL     1       1.278   3.380  -0.708  0.00  0.00    +0.019 C 
BRANCH  19  20
ATOM     20  C   UNL     1       0.428   4.358   0.061  0.00  0.00    +0.197 C 
ATOM     21  O   UNL     1      -0.103   4.017   1.097  0.00  0.00    -0.278 OA
ATOM     22  N   UNL     1       0.258   5.612  -0.403  0.00  0.00    -0.306 N 
ATOM     23  H   UNL     1       0.682   5.885  -1.231  0.00  0.00    +0.150 HD
BRANCH  22  24
ATOM     24  C   UNL     1      -0.569   6.563   0.345  0.00  0.00    +0.140 C 
BRANCH  24  25
ATOM     25  C   UNL     1      -0.137   7.969   0.017  0.00  0.00    -0.022 A 
ATOM     26  C   UNL     1       0.204   8.303  -1.280  0.00  0.00    +0.006 A 
ATOM     27  C   UNL     1       0.596   9.594  -1.582  0.00  0.00    +0.000 A 
ATOM     28  C   UNL     1       0.655  10.549  -0.584  0.00  0.00    +0.000 A 
ATOM     29  C   UNL     1       0.319  10.214   0.714  0.00  0.00    +0.000 A 
ATOM     30  C   UNL     1      -0.077   8.924   1.015  0.00  0.00    +0.006 A 
ENDBRANCH  24  25
BRANCH  24  31
ATOM     31  C   UNL     1      -2.015   6.380  -0.037  0.00  0.00    +0.014 A 
ATOM     32  C   UNL     1      -3.117   6.407   0.753  0.00  0.00    +0.013 A 
ATOM     33  C   UNL     1      -4.359   6.215   0.178  0.00  0.00    +0.008 A 
ATOM     34  C   UNL     1      -4.438   5.995  -1.157  0.00  0.00    +0.045 A 
ATOM     35  S   UNL     1      -2.722   6.063  -1.646  0.00  0.00    -0.099 S 
ENDBRANCH  24  31
ENDBRANCH  22  24
ENDBRANCH  19  20
ENDBRANCH   7  19
TORSDOF 7
