REMARK  Name = ZINC59880575
REMARK  11 active torsions:
REMARK  status: ('A' for Active; 'I' for Inactive)
REMARK    1  A    between atoms: C_1  and  C_2
REMARK    2  A    between atoms: C_2  and  C_4
REMARK    3  A    between atoms: C_2  and  S_13
REMARK    4  A    between atoms: N_6  and  N_7
REMARK    5  A    between atoms: C_8  and  C_10
REMARK    6  A    between atoms: C_10  and  C_11
REMARK    7  A    between atoms: C_10  and  C_12
REMARK    8  A    between atoms: S_13  and  C_14
REMARK    9  A    between atoms: N_19  and  N_20
REMARK   10  A    between atoms: C_21  and  C_22
REMARK   11  A    between atoms: C_27  and  O_28
REMARK                            x       y       z     vdW  Elec       q    Type
REMARK                         _______ _______ _______ _____ _____    ______ ____
ROOT
ATOM      1  C   UNL     1      -0.189  -0.057  -2.809  0.00  0.00    +0.211 A 
ATOM      2  N   UNL     1       0.035  -0.270  -4.110  0.00  0.00    -0.186 NA
ATOM      3  C   UNL     1      -0.939   0.261  -4.820  0.00  0.00    +0.232 A 
ATOM      4  N   UNL     1      -1.815   0.831  -3.965  0.00  0.00    -0.245 N 
ATOM      5  N   UNL     1      -1.312   0.608  -2.673  0.00  0.00    -0.144 NA
ATOM      6  N   UNL     1      -1.046   0.238  -6.198  0.00  0.00    -0.205 N 
ATOM      7  H   UNL     1      -1.804   0.659  -6.633  0.00  0.00    +0.177 HD
ATOM      8  H   UNL     1      -2.632   1.300  -4.198  0.00  0.00    +0.192 HD
ENDROOT
BRANCH   6   9
ATOM      9  N   UNL     1      -0.059  -0.393  -6.967  0.00  0.00    -0.187 NA
ATOM     10  C   UNL     1      -0.159  -0.415  -8.261  0.00  0.00    +0.142 C 
BRANCH  10  11
ATOM     11  C   UNL     1       0.879  -1.079  -9.070  0.00  0.00    +0.037 A 
ATOM     12  C   UNL     1       0.778  -1.099 -10.463  0.00  0.00    +0.033 A 
ATOM     13  C   UNL     1       1.754  -1.722 -11.214  0.00  0.00    +0.042 A 
ATOM     14  C   UNL     1       2.833  -2.328 -10.592  0.00  0.00    +0.023 A 
ATOM     15  C   UNL     1       2.943  -2.314  -9.214  0.00  0.00    +0.047 A 
ATOM     16  C   UNL     1       1.976  -1.688  -8.446  0.00  0.00    +0.126 A 
ATOM     17 CL   UNL     1       1.627  -1.747 -12.945  0.00  0.00    -0.084 Cl
BRANCH  16  18
ATOM     18  O   UNL     1       2.086  -1.670  -7.092  0.00  0.00    -0.506 OA
ATOM     19  H   UNL     1       1.669  -2.424  -6.653  0.00  0.00    +0.292 HD
ENDBRANCH  16  18
ENDBRANCH  10  11
ENDBRANCH   6   9
BRANCH   1  20
ATOM     20  S   UNL     1       0.851  -0.589  -1.490  0.00  0.00    -0.072 S 
BRANCH  20  22
ATOM     21  C   UNL     1      -0.019   1.526   0.010  0.00  0.00    +0.029 C 
ATOM     22  C   UNL     1       0.002  -0.004   0.002  0.00  0.00    +0.138 C 
BRANCH  22  23
ATOM     23  C   UNL     1       0.731  -0.503   1.223  0.00  0.00    +0.242 C 
ATOM     24  O   UNL     1       1.911  -0.775   1.156  0.00  0.00    -0.273 OA
ATOM     25  N   UNL     1       0.071  -0.647   2.389  0.00  0.00    -0.233 N 
ATOM     26  H   UNL     1      -0.872  -0.430   2.443  0.00  0.00    +0.173 HD
BRANCH  25  27
ATOM     27  N   UNL     1       0.749  -1.111   3.525  0.00  0.00    -0.234 N 
ATOM     28  C   UNL     1       0.090  -1.256   4.691  0.00  0.00    +0.232 C 
ATOM     29  O   UNL     1      -1.090  -0.984   4.758  0.00  0.00    -0.274 OA
ATOM     30  H   UNL     1       1.693  -1.329   3.471  0.00  0.00    +0.173 HD
BRANCH  28  31
ATOM     31  C   UNL     1       0.819  -1.755   5.912  0.00  0.00    +0.070 C 
ATOM     32  C   UNL     1       1.963  -0.797   6.250  0.00  0.00    +0.017 C 
ATOM     33  C   UNL     1      -0.152  -1.826   7.092  0.00  0.00    +0.017 C 
ENDBRANCH  28  31
ENDBRANCH  25  27
ENDBRANCH  22  23
ENDBRANCH  20  22
ENDBRANCH   1  20
TORSDOF 8
