REMARK  Name = ZINC09275546
REMARK  11 active torsions:
REMARK  status: ('A' for Active; 'I' for Inactive)
REMARK    1  A    between atoms: C_1  and  C_2
REMARK    2  A    between atoms: C_2  and  N_56
REMARK    3  A    between atoms: C_3  and  C_4
REMARK    4  A    between atoms: C_3  and  N_56
REMARK    5  A    between atoms: C_5  and  C_6
REMARK    6  A    between atoms: C_5  and  N_56
REMARK    7  A    between atoms: C_6  and  N_7
REMARK    8  A    between atoms: C_8  and  C_24
REMARK    9  A    between atoms: C_11  and  C_12
REMARK   10  A    between atoms: C_11  and  O_19
REMARK   11  A    between atoms: C_27  and  N_30
REMARK                            x       y       z     vdW  Elec       q    Type
REMARK                         _______ _______ _______ _____ _____    ______ ____
ROOT
ATOM      1  N   UNL     1      -0.968   3.486   5.145  0.00  0.00    -0.285 N 
ATOM      2  C   UNL     1      -0.101   4.004   6.207  0.00  0.00    +0.144 C 
ATOM      3  C   UNL     1      -0.998   4.733   7.181  0.00  0.00    +0.071 C 
ATOM      4  C   UNL     1      -0.614   5.380   8.337  0.00  0.00    +0.133 C 
ATOM      5  C   UNL     1      -2.302   4.617   6.672  0.00  0.00    +0.249 C 
ATOM      6  O   UNL     1      -3.309   5.077   7.178  0.00  0.00    -0.282 OA
ATOM      7  C   UNL     1      -2.238   3.841   5.404  0.00  0.00    +0.288 C 
ATOM      8  O   UNL     1      -3.193   3.566   4.707  0.00  0.00    -0.266 OA
ENDROOT
BRANCH   4   9
ATOM      9  C   UNL     1      -1.602   6.146   9.116  0.00  0.00    +0.017 A 
ATOM     10  C   UNL     1      -2.441   7.065   8.476  0.00  0.00    +0.012 A 
ATOM     11  C   UNL     1      -3.366   7.775   9.211  0.00  0.00    +0.016 A 
ATOM     12  C   UNL     1      -3.460   7.588  10.580  0.00  0.00    +0.018 A 
ATOM     13  C   UNL     1      -2.629   6.684  11.221  0.00  0.00    +0.016 A 
ATOM     14  C   UNL     1      -1.702   5.963  10.499  0.00  0.00    +0.012 A 
ATOM     15 BR   UNL     1      -4.727   8.573  11.580  0.00  0.00    -0.050 Br
ENDBRANCH   4   9
BRANCH   2  16
ATOM     16  C   UNL     1       0.912   4.957   5.627  0.00  0.00    -0.022 A 
ATOM     17  C   UNL     1       0.539   5.841   4.632  0.00  0.00    +0.008 A 
ATOM     18  C   UNL     1       1.467   6.719   4.104  0.00  0.00    +0.033 A 
ATOM     19  C   UNL     1       2.771   6.704   4.562  0.00  0.00    +0.126 A 
ATOM     20  C   UNL     1       3.146   5.816   5.553  0.00  0.00    +0.033 A 
ATOM     21  C   UNL     1       2.216   4.942   6.085  0.00  0.00    +0.008 A 
BRANCH  19  22
ATOM     22  N   UNL     1       3.766   7.641   3.992  0.00  0.00    +0.056 N 
ATOM     23  O   UNL     1       4.915   7.628   4.396  0.00  0.00    -0.126 OA
ATOM     24  O   UNL     1       3.436   8.423   3.119  0.00  0.00    -0.126 OA
ENDBRANCH  19  22
ENDBRANCH   2  16
BRANCH   4  25
ATOM     25  O   UNL     1       0.668   5.312   8.755  0.00  0.00    -0.506 OA
ATOM     26  H   UNL     1       0.771   5.833   9.602  0.00  0.00    +0.292 HD
ENDBRANCH   4  25
BRANCH   1  27
ATOM     27  C   UNL     1      -0.521   2.711   3.985  0.00  0.00    +0.090 C 
BRANCH  27  28
ATOM     28  C   UNL     1      -0.549   1.219   4.326  0.00  0.00    -0.060 C 
BRANCH  28  29
ATOM     29  N   UNL     1      -0.076   0.453   3.154  0.00  0.00    +0.380 N 
ATOM     30  H   UNL     1       0.823   0.840   2.844  0.00  0.00    -0.082 HD
BRANCH  29  32
ATOM     31  C   UNL     1      -2.426   0.057   2.497  0.00  0.00    -0.017 C 
ATOM     32  C   UNL     1      -1.053   0.563   2.051  0.00  0.00    -0.082 C 
ENDBRANCH  29  32
BRANCH  29  33
ATOM     33  C   UNL     1       0.113  -0.966   3.522  0.00  0.00    -0.082 C 
ATOM     34  C   UNL     1       1.021  -1.625   2.481  0.00  0.00    -0.017 C 
ENDBRANCH  29  33
ENDBRANCH  28  29
ENDBRANCH  27  28
ENDBRANCH   1  27
TORSDOF 9
