REMARK  Name = ZINC45410496
REMARK  7 active torsions:
REMARK  status: ('A' for Active; 'I' for Inactive)
REMARK    1  A    between atoms: C_1  and  C_2
REMARK    2  A    between atoms: C_2  and  C_3
REMARK    3  A    between atoms: C_2  and  N_4
REMARK    4  A    between atoms: C_5  and  C_7
REMARK    5  A    between atoms: C_7  and  N_8
REMARK    6  A    between atoms: N_16  and  C_17
REMARK    7  A    between atoms: N_20  and  C_23
REMARK                            x       y       z     vdW  Elec       q    Type
REMARK                         _______ _______ _______ _____ _____    ______ ____
ROOT
ATOM      1  N   UNL     1      -0.153  -1.197   4.708  0.00  0.00    -0.291 NA
ATOM      2  C   UNL     1      -0.619   0.142   5.092  0.00  0.00    +0.104 C 
ATOM      3  C   UNL     1      -1.719   0.012   6.151  0.00  0.00    +0.124 C 
ATOM      4  N   UNL     1      -1.207  -0.809   7.258  0.00  0.00    -0.283 N 
ATOM      5  C   UNL     1      -0.598  -2.109   6.937  0.00  0.00    +0.124 C 
ATOM      6  C   UNL     1       0.458  -1.895   5.848  0.00  0.00    +0.104 C 
ATOM      7  C   UNL     1      -1.294  -0.383   8.534  0.00  0.00    +0.302 C 
ATOM      8  O   UNL     1      -1.714   0.733   8.774  0.00  0.00    -0.253 OA
ATOM      9  N   UNL     1      -0.916  -1.192   9.543  0.00  0.00    -0.297 N 
ATOM     10  H   UNL     1      -0.515  -2.054   9.349  0.00  0.00    +0.151 HD
ENDROOT
BRANCH   9  11
ATOM     11  C   UNL     1      -1.112  -0.772  10.932  0.00  0.00    +0.071 C 
ATOM     12  C   UNL     1       0.077   0.083  11.381  0.00  0.00    +0.004 C 
ATOM     13  C   UNL     1      -0.096   0.452  12.856  0.00  0.00    -0.077 C 
ATOM     14  N   UNL     1      -0.155  -0.770  13.667  0.00  0.00    +0.382 N 
ATOM     15  C   UNL     1      -1.333  -1.560  13.291  0.00  0.00    -0.077 C 
ATOM     16  C   UNL     1      -1.209  -2.007  11.832  0.00  0.00    +0.004 C 
ATOM     17  H   UNL     1       0.679  -1.317  13.511  0.00  0.00    -0.081 HD
BRANCH  14  18
ATOM     18  C   UNL     1      -0.242  -0.409  15.088  0.00  0.00    -0.069 C 
ATOM     19  C   UNL     1       0.967  -0.724  15.972  0.00  0.00    -0.017 C 
ATOM     20  C   UNL     1      -0.314  -1.552  16.103  0.00  0.00    -0.017 C 
ENDBRANCH  14  18
ENDBRANCH   9  11
BRANCH   1  21
ATOM     21  C   UNL     1       0.778  -1.125   3.575  0.00  0.00    +0.180 C 
BRANCH  21  23
ATOM     22  N   UNL     1       0.704  -0.482   1.187  0.00  0.00    -0.312 N 
ATOM     23  C   UNL     1       0.046  -0.629   2.354  0.00  0.00    +0.227 C 
ATOM     24  O   UNL     1      -1.135  -0.361   2.422  0.00  0.00    -0.274 OA
ATOM     25  H   UNL     1       1.649  -0.696   1.132  0.00  0.00    +0.149 HD
BRANCH  22  27
ATOM     26  C   UNL     1      -0.034   1.530   0.009  0.00  0.00    +0.027 C 
ATOM     27  C   UNL     1      -0.007   0.000   0.001  0.00  0.00    +0.067 C 
ATOM     28  C   UNL     1       0.710  -0.490  -1.259  0.00  0.00    +0.027 C 
ENDBRANCH  22  27
ENDBRANCH  21  23
ENDBRANCH   1  21
TORSDOF 5
