REMARK  Name = ZINC00925020
REMARK  10 active torsions:
REMARK  status: ('A' for Active; 'I' for Inactive)
REMARK    1  A    between atoms: C_1  and  C_2
REMARK    2  A    between atoms: C_7  and  C_14
REMARK    3  A    between atoms: C_14  and  N_15
REMARK    4  A    between atoms: N_15  and  C_16
REMARK    5  A    between atoms: N_15  and  S_25
REMARK    6  A    between atoms: C_16  and  C_17
REMARK    7  A    between atoms: C_20  and  O_23
REMARK    8  A    between atoms: O_23  and  C_24
REMARK    9  A    between atoms: S_25  and  C_28
REMARK   10  A    between atoms: C_29  and  C_37
REMARK                            x       y       z     vdW  Elec       q    Type
REMARK                         _______ _______ _______ _____ _____    ______ ____
ROOT
ATOM      1  N   UNL     1       1.275  -1.839  -1.831  0.00  0.00    -0.168 NA
ENDROOT
BRANCH   1   2
ATOM      2  S   UNL     1      -0.269  -1.709  -2.415  0.00  0.00    +0.064 S 
ATOM      3  O   UNL     1      -0.902  -0.683  -1.663  0.00  0.00    -0.153 OA
ATOM      4  O   UNL     1      -0.165  -1.663  -3.831  0.00  0.00    -0.153 OA
BRANCH   2   5
ATOM      5  C   UNL     1      -1.104  -3.210  -2.020  0.00  0.00    +0.136 A 
ATOM      6  C   UNL     1      -1.857  -3.291  -0.898  0.00  0.00    -0.022 A 
ATOM      7  C   UNL     1      -2.532  -4.462  -0.555  0.00  0.00    +0.007 A 
ATOM      8  C   UNL     1      -2.464  -5.572  -1.329  0.00  0.00    +0.031 A 
ATOM      9  C   UNL     1      -1.693  -5.560  -2.520  0.00  0.00    +0.102 A 
ATOM     10  C   UNL     1      -0.991  -4.332  -2.882  0.00  0.00    +0.126 A 
ATOM     11  N   UNL     1      -0.314  -4.460  -4.021  0.00  0.00    -0.189 NA
ATOM     12  S   UNL     1      -0.567  -5.925  -4.518  0.00  0.00    +0.117 S 
ATOM     13  N   UNL     1      -1.496  -6.530  -3.411  0.00  0.00    -0.191 NA
ATOM     14  C   UNL     1      -1.970  -2.086   0.001  0.00  0.00    +0.046 C 
ENDBRANCH   2   5
ENDBRANCH   1   2
BRANCH   1  15
ATOM     15  C   UNL     1       1.556  -1.528  -0.427  0.00  0.00    +0.150 C 
BRANCH  15  22
ATOM     16  C   UNL     1       2.633   6.330   0.419  0.00  0.00    +0.044 C 
ATOM     17  C   UNL     1       2.204   4.890   0.302  0.00  0.00    -0.048 A 
ATOM     18  C   UNL     1       0.869   4.554   0.480  0.00  0.00    +0.004 A 
ATOM     19  C   UNL     1       0.460   3.255   0.384  0.00  0.00    +0.010 A 
ATOM     20  C   UNL     1       1.393   2.254   0.093  0.00  0.00    -0.001 A 
ATOM     21  C   UNL     1       0.989   0.852  -0.023  0.00  0.00    +0.020 A 
ATOM     22  C   UNL     1       1.938  -0.076  -0.301  0.00  0.00    +0.033 A 
ATOM     23  C   UNL     1       3.284   0.315  -0.473  0.00  0.00    +0.254 A 
ATOM     24  O   UNL     1       4.121  -0.535  -0.723  0.00  0.00    -0.268 OA
ATOM     25  N   UNL     1       3.665   1.600  -0.369  0.00  0.00    -0.322 N 
ATOM     26  H   UNL     1       4.627   1.841  -0.497  0.00  0.00    +0.169 HD
ATOM     27  C   UNL     1       2.748   2.590  -0.088  0.00  0.00    +0.049 A 
ATOM     28  C   UNL     1       3.142   3.920   0.021  0.00  0.00    +0.029 A 
ENDBRANCH  15  22
ENDBRANCH   1  15
BRANCH   1  29
ATOM     29  C   UNL     1       2.360  -2.266  -2.718  0.00  0.00    +0.145 C 
BRANCH  29  30
ATOM     30  C   UNL     1       2.898  -3.593  -2.250  0.00  0.00    -0.031 A 
ATOM     31  C   UNL     1       3.942  -3.634  -1.343  0.00  0.00    +0.008 A 
ATOM     32  C   UNL     1       4.433  -4.850  -0.909  0.00  0.00    +0.046 A 
ATOM     33  C   UNL     1       3.887  -6.030  -1.392  0.00  0.00    +0.120 A 
ATOM     34  C   UNL     1       2.844  -5.987  -2.306  0.00  0.00    +0.046 A 
ATOM     35  C   UNL     1       2.353  -4.768  -2.733  0.00  0.00    +0.008 A 
BRANCH  33  36
ATOM     36  O   UNL     1       4.372  -7.228  -0.970  0.00  0.00    -0.495 OA
ATOM     37  C   UNL     1       5.447  -7.197  -0.028  0.00  0.00    +0.277 C 
ENDBRANCH  33  36
ENDBRANCH  29  30
ENDBRANCH   1  29
TORSDOF 7
