REMARK  Name = ZINC10584533
REMARK  8 active torsions:
REMARK  status: ('A' for Active; 'I' for Inactive)
REMARK    1  A    between atoms: C_1  and  C_2
REMARK    2  A    between atoms: C_2  and  O_3
REMARK    3  A    between atoms: O_3  and  C_4
REMARK    4  A    between atoms: C_7  and  N_10
REMARK    5  A    between atoms: C_12  and  N_17
REMARK    6  A    between atoms: C_25  and  C_26
REMARK    7  A    between atoms: C_25  and  C_32
REMARK    8  A    between atoms: C_25  and  N_71
REMARK                            x       y       z     vdW  Elec       q    Type
REMARK                         _______ _______ _______ _____ _____    ______ ____
ROOT
ATOM      1  N   UNL     1       2.772   3.198  -0.533  0.00  0.00    -0.294 N 
ATOM      2  C   UNL     1       2.253   2.641   0.580  0.00  0.00    +0.302 C 
ATOM      3  O   UNL     1       1.358   1.823   0.490  0.00  0.00    -0.253 OA
ATOM      4  N   UNL     1       2.728   2.991   1.792  0.00  0.00    -0.289 N 
ATOM      5  C   UNL     1       2.256   2.317   3.011  0.00  0.00    +0.091 C 
ATOM      6  C   UNL     1       3.483   1.853   3.811  0.00  0.00    -0.058 C 
ATOM      7  C   UNL     1       4.891   3.534   2.776  0.00  0.00    -0.058 C 
ATOM      8  C   UNL     1       3.726   4.062   1.932  0.00  0.00    +0.091 C 
ATOM      9  H   UNL     1       3.536   3.792  -0.467  0.00  0.00    +0.151 HD
ATOM     10  N   UNL     1       4.356   3.022   4.056  0.00  0.00    +0.389 N 
ATOM     11  H   UNL     1       3.805   3.761   4.506  0.00  0.00    -0.080 HD
ENDROOT
BRANCH   1  14
ATOM     12  N   UNL     1       3.051   4.478  -3.430  0.00  0.00    -0.270 N 
ATOM     13  C   UNL     1       3.218   3.094  -2.970  0.00  0.00    +0.136 C 
ATOM     14  C   UNL     1       2.181   2.907  -1.841  0.00  0.00    +0.101 C 
ATOM     15  C   UNL     1       1.114   3.962  -2.214  0.00  0.00    +0.120 C 
ATOM     16  C   UNL     1       1.876   4.989  -3.024  0.00  0.00    +0.222 C 
ATOM     17  O   UNL     1       1.483   6.109  -3.271  0.00  0.00    -0.275 OA
BRANCH  12  21
ATOM     18  C   UNL     1       5.860   6.558  -5.704  0.00  0.00    +0.121 A 
ATOM     19  C   UNL     1       6.162   5.295  -5.214  0.00  0.00    +0.047 A 
ATOM     20  C   UNL     1       5.232   4.606  -4.461  0.00  0.00    +0.027 A 
ATOM     21  C   UNL     1       3.995   5.177  -4.194  0.00  0.00    +0.037 A 
ATOM     22  C   UNL     1       3.692   6.438  -4.688  0.00  0.00    +0.027 A 
ATOM     23  C   UNL     1       4.625   7.129  -5.437  0.00  0.00    +0.047 A 
BRANCH  18  24
ATOM     24  O   UNL     1       6.776   7.236  -6.445  0.00  0.00    -0.492 OA
BRANCH  24  26
ATOM     25  C   UNL     1       7.549   9.134  -7.726  0.00  0.00    +0.048 C 
ATOM     26  C   UNL     1       6.399   8.531  -6.917  0.00  0.00    +0.225 C 
ENDBRANCH  24  26
ENDBRANCH  18  24
ENDBRANCH  12  21
ENDBRANCH   1  14
BRANCH  10  27
ATOM     27  C   UNL     1       5.469   2.641   4.951  0.00  0.00    -0.007 C 
BRANCH  27  28
ATOM     28  C   UNL     1       6.366   3.835   5.152  0.00  0.00    -0.057 A 
ATOM     29  C   UNL     1       5.815   5.080   5.391  0.00  0.00    +0.002 A 
ATOM     30  C   UNL     1       6.638   6.175   5.580  0.00  0.00    +0.000 A 
ATOM     31  C   UNL     1       8.011   6.026   5.519  0.00  0.00    +0.000 A 
ATOM     32  C   UNL     1       8.562   4.782   5.274  0.00  0.00    +0.000 A 
ATOM     33  C   UNL     1       7.739   3.687   5.090  0.00  0.00    +0.002 A 
ENDBRANCH  27  28
BRANCH  27  34
ATOM     34  C   UNL     1       4.901   2.211   6.278  0.00  0.00    -0.057 A 
ATOM     35  C   UNL     1       3.777   2.836   6.785  0.00  0.00    +0.002 A 
ATOM     36  C   UNL     1       3.253   2.439   8.000  0.00  0.00    +0.000 A 
ATOM     37  C   UNL     1       3.858   1.421   8.714  0.00  0.00    +0.000 A 
ATOM     38  C   UNL     1       4.985   0.799   8.211  0.00  0.00    +0.000 A 
ATOM     39  C   UNL     1       5.506   1.194   6.993  0.00  0.00    +0.002 A 
ENDBRANCH  27  34
ENDBRANCH  10  27
TORSDOF 7
