REMARK  Name = ZINC64623043
REMARK  4 active torsions:
REMARK  status: ('A' for Active; 'I' for Inactive)
REMARK    1  A    between atoms: C_1  and  O_2
REMARK    2  A    between atoms: O_2  and  C_3
REMARK    3  A    between atoms: C_6  and  C_9
REMARK    4  A    between atoms: N_26  and  C_27
REMARK                            x       y       z     vdW  Elec       q    Type
REMARK                         _______ _______ _______ _____ _____    ______ ____
ROOT
ATOM      1  C   UNL     1       1.992  -2.291  -5.192  0.00  0.00    +0.134 C 
ATOM      2  C   UNL     1       3.432  -2.242  -4.668  0.00  0.00    +0.131 C 
ATOM      3  C   UNL     1       4.198  -3.337  -5.399  0.00  0.00    -0.035 C 
ATOM      4  C   UNL     1       5.232  -2.745  -5.984  0.00  0.00    -0.001 A 
ATOM      5  C   UNL     1       6.355  -3.284  -6.767  0.00  0.00    +0.010 A 
ATOM      6  C   UNL     1       7.249  -2.375  -7.237  0.00  0.00    +0.001 A 
ATOM      7  C   UNL     1       7.139  -1.000  -7.010  0.00  0.00    +0.002 A 
ATOM      8  C   UNL     1       6.142  -0.417  -6.298  0.00  0.00    +0.026 A 
ATOM      9  C   UNL     1       5.143  -1.272  -5.748  0.00  0.00    +0.043 A 
ATOM     10  N   UNL     1       4.091  -0.979  -5.004  0.00  0.00    -0.375 N 
ATOM     11  C   UNL     1       3.723  -4.769  -5.441  0.00  0.00    +0.052 C 
ATOM     12  C   UNL     1       2.249  -4.734  -5.887  0.00  0.00    +0.114 C 
ATOM     13  N   UNL     1       1.539  -3.690  -5.140  0.00  0.00    -0.276 N 
ATOM     14  C   UNL     1       0.462  -4.016  -4.398  0.00  0.00    +0.307 C 
ATOM     15  O   UNL     1      -0.212  -3.142  -3.889  0.00  0.00    -0.252 OA
ATOM     16  N   UNL     1       0.133  -5.311  -4.221  0.00  0.00    -0.268 N 
ATOM     17  H   UNL     1       0.715  -6.010  -4.556  0.00  0.00    +0.156 HD
ATOM     18  H   UNL     1       3.797  -0.096  -4.731  0.00  0.00    +0.160 HD
ENDROOT
BRANCH  16  19
ATOM     19  C   UNL     1      -1.050  -5.646  -3.552  0.00  0.00    +0.049 A 
ATOM     20  C   UNL     1      -1.566  -4.797  -2.582  0.00  0.00    +0.024 A 
ATOM     21  C   UNL     1      -2.734  -5.131  -1.924  0.00  0.00    +0.002 A 
ATOM     22  C   UNL     1      -3.389  -6.310  -2.230  0.00  0.00    +0.001 A 
ATOM     23  C   UNL     1      -2.879  -7.158  -3.195  0.00  0.00    +0.017 A 
ATOM     24  C   UNL     1      -1.714  -6.827  -3.861  0.00  0.00    +0.039 A 
ATOM     25 BR   UNL     1      -1.019  -7.984  -5.186  0.00  0.00    -0.048 Br
ENDBRANCH  16  19
BRANCH   1  29
ATOM     26  C   UNL     1      -0.525   0.136  -2.735  0.00  0.00    +0.120 A 
ATOM     27  C   UNL     1      -0.651   0.179  -4.116  0.00  0.00    +0.046 A 
ATOM     28  C   UNL     1       0.164  -0.606  -4.908  0.00  0.00    +0.009 A 
ATOM     29  C   UNL     1       1.105  -1.435  -4.326  0.00  0.00    -0.024 A 
ATOM     30  C   UNL     1       1.232  -1.480  -2.950  0.00  0.00    +0.009 A 
ATOM     31  C   UNL     1       0.424  -0.693  -2.154  0.00  0.00    +0.046 A 
BRANCH  26  33
ATOM     32  C   UNL     1      -2.280   1.736  -2.622  0.00  0.00    +0.277 C 
ATOM     33  O   UNL     1      -1.325   0.908  -1.954  0.00  0.00    -0.495 OA
ENDBRANCH  26  33
ENDBRANCH   1  29
TORSDOF 3
