REMARK  Name = ZINC03869766
REMARK  11 active torsions:
REMARK  status: ('A' for Active; 'I' for Inactive)
REMARK    1  A    between atoms: C_3  and  O_37
REMARK    2  A    between atoms: C_6  and  C_7
REMARK    3  A    between atoms: C_8  and  O_20
REMARK    4  A    between atoms: C_12  and  O_19
REMARK    5  A    between atoms: C_14  and  O_18
REMARK    6  A    between atoms: O_20  and  C_21
REMARK    7  A    between atoms: C_23  and  O_36
REMARK    8  A    between atoms: C_25  and  O_35
REMARK    9  A    between atoms: C_27  and  O_34
REMARK   10  A    between atoms: C_29  and  C_32
REMARK   11  A    between atoms: C_32  and  O_33
REMARK                            x       y       z     vdW  Elec       q    Type
REMARK                         _______ _______ _______ _____ _____    ______ ____
ROOT
ATOM      1  C   UNL     1      -1.154  -0.707   0.089  0.00  0.00    +0.181 A 
ATOM      2  C   UNL     1      -1.181  -2.053  -0.118  0.00  0.00    +0.214 A 
ATOM      3  C   UNL     1      -2.430  -2.715  -0.240  0.00  0.00    +0.238 A 
ATOM      4  O   UNL     1      -2.494  -3.920  -0.425  0.00  0.00    -0.283 OA
ATOM      5  C   UNL     1      -3.646  -1.893  -0.133  0.00  0.00    +0.109 A 
ATOM      6  C   UNL     1      -4.921  -2.463  -0.240  0.00  0.00    +0.135 A 
ATOM      7  C   UNL     1      -6.039  -1.657  -0.134  0.00  0.00    +0.091 A 
ATOM      8  C   UNL     1      -5.897  -0.289   0.078  0.00  0.00    +0.124 A 
ATOM      9  C   UNL     1      -4.639   0.282   0.184  0.00  0.00    +0.092 A 
ATOM     10  C   UNL     1      -3.505  -0.510   0.081  0.00  0.00    +0.147 A 
ATOM     11  O   UNL     1      -2.273   0.030   0.189  0.00  0.00    -0.451 OA
ENDROOT
BRANCH   1  17
ATOM     12  C   UNL     1       0.412   1.133  -0.512  0.00  0.00    +0.015 A 
ATOM     13  C   UNL     1       1.633   1.758  -0.392  0.00  0.00    +0.046 A 
ATOM     14  C   UNL     1       2.607   1.231   0.448  0.00  0.00    +0.117 A 
ATOM     15  C   UNL     1       2.353   0.071   1.171  0.00  0.00    +0.046 A 
ATOM     16  C   UNL     1       1.135  -0.561   1.057  0.00  0.00    +0.015 A 
ATOM     17  C   UNL     1       0.152  -0.034   0.213  0.00  0.00    +0.021 A 
BRANCH  14  18
ATOM     18  O   UNL     1       3.810   1.851   0.563  0.00  0.00    -0.507 OA
ATOM     19  H   UNL     1       3.845   2.515   1.264  0.00  0.00    +0.292 HD
ENDBRANCH  14  18
ENDBRANCH   1  17
BRANCH   8  20
ATOM     20  O   UNL     1      -7.001   0.493   0.180  0.00  0.00    -0.507 OA
ATOM     21  H   UNL     1      -7.335   0.586   1.083  0.00  0.00    +0.292 HD
ENDBRANCH   8  20
BRANCH   6  22
ATOM     22  O   UNL     1      -5.058  -3.797  -0.448  0.00  0.00    -0.506 OA
ATOM     23  H   UNL     1      -5.111  -4.318   0.365  0.00  0.00    +0.292 HD
ENDBRANCH   6  22
BRANCH   2  24
ATOM     24  O   UNL     1      -0.020  -2.757  -0.208  0.00  0.00    -0.453 OA
BRANCH  24  25
ATOM     25  C   UNL     1       0.281  -3.353  -1.471  0.00  0.00    +0.340 C 
ATOM     26  C   UNL     1       1.455  -4.322  -1.312  0.00  0.00    +0.214 C 
ATOM     27  C   UNL     1       1.810  -4.912  -2.680  0.00  0.00    +0.180 C 
ATOM     28  C   UNL     1       2.127  -3.769  -3.650  0.00  0.00    +0.177 C 
ATOM     29  C   UNL     1       0.927  -2.821  -3.719  0.00  0.00    +0.179 C 
ATOM     30  O   UNL     1       0.630  -2.333  -2.409  0.00  0.00    -0.331 OA
BRANCH  28  31
ATOM     31  O   UNL     1       3.275  -3.054  -3.187  0.00  0.00    -0.386 OA
ATOM     32  H   UNL     1       4.073  -3.596  -3.115  0.00  0.00    +0.210 HD
ENDBRANCH  28  31
BRANCH  27  33
ATOM     33  O   UNL     1       2.951  -5.763  -2.553  0.00  0.00    -0.386 OA
ATOM     34  H   UNL     1       2.822  -6.506  -1.948  0.00  0.00    +0.210 HD
ENDBRANCH  27  33
BRANCH  26  35
ATOM     35  O   UNL     1       1.088  -5.375  -0.418  0.00  0.00    -0.383 OA
ATOM     36  H   UNL     1       0.846  -5.072   0.468  0.00  0.00    +0.210 HD
ENDBRANCH  26  35
BRANCH  29  37
ATOM     37  C   UNL     1       1.258  -1.645  -4.639  0.00  0.00    +0.190 C 
BRANCH  37  38
ATOM     38  O   UNL     1       0.100  -0.823  -4.797  0.00  0.00    -0.392 OA
ATOM     39  H   UNL     1       0.237  -0.056  -5.369  0.00  0.00    +0.210 HD
ENDBRANCH  37  38
ENDBRANCH  29  37
ENDBRANCH  24  25
ENDBRANCH   2  24
TORSDOF 11
