REMARK  Name = ZINC08385556
REMARK  13 active torsions:
REMARK  status: ('A' for Active; 'I' for Inactive)
REMARK    1  A    between atoms: C_1  and  C_2
REMARK    2  A    between atoms: C_2  and  O_3
REMARK    3  A    between atoms: O_3  and  C_4
REMARK    4  A    between atoms: C_7  and  C_11
REMARK    5  A    between atoms: C_8  and  O_10
REMARK    6  A    between atoms: C_11  and  C_12
REMARK    7  A    between atoms: C_11  and  C_26
REMARK    8  A    between atoms: C_13  and  C_25
REMARK    9  A    between atoms: N_14  and  C_24
REMARK   10  A    between atoms: N_15  and  C_18
REMARK   11  A    between atoms: C_27  and  C_39
REMARK   12  A    between atoms: N_28  and  C_38
REMARK   13  A    between atoms: N_29  and  C_32
REMARK                            x       y       z     vdW  Elec       q    Type
REMARK                         _______ _______ _______ _____ _____    ______ ____
ROOT
ATOM      1  C   UNL     1       1.715  -3.285  -0.222  0.00  0.00    +0.097 C 
ENDROOT
BRANCH   1   2
ATOM      2  C   UNL     1       0.827  -2.101  -0.506  0.00  0.00    +0.051 A 
ATOM      3  C   UNL     1      -0.520  -2.118  -0.569  0.00  0.00    +0.042 A 
ATOM      4  N   UNL     1      -0.956  -0.852  -0.841  0.00  0.00    -0.284 N 
ATOM      5  N   UNL     1       0.165  -0.020  -0.961  0.00  0.00    -0.217 N 
ATOM      6  C   UNL     1       1.262  -0.778  -0.754  0.00  0.00    +0.276 A 
ATOM      7  O   UNL     1       2.417  -0.393  -0.777  0.00  0.00    -0.266 OA
ATOM      8  C   UNL     1      -2.353  -0.438  -0.986  0.00  0.00    +0.171 C 
ATOM      9  C   UNL     1      -1.396  -3.327  -0.366  0.00  0.00    +0.065 C 
BRANCH   5  10
ATOM     10  C   UNL     1       0.150   1.350  -1.240  0.00  0.00    +0.067 A 
ATOM     11  C   UNL     1       0.992   1.872  -2.213  0.00  0.00    +0.028 A 
ATOM     12  C   UNL     1       0.969   3.224  -2.491  0.00  0.00    +0.002 A 
ATOM     13  C   UNL     1       0.119   4.061  -1.791  0.00  0.00    +0.000 A 
ATOM     14  C   UNL     1      -0.716   3.546  -0.817  0.00  0.00    +0.002 A 
ATOM     15  C   UNL     1      -0.703   2.193  -0.539  0.00  0.00    +0.028 A 
ENDBRANCH   5  10
ENDBRANCH   1   2
BRANCH   1  16
ATOM     16  C   UNL     1       2.540  -3.011   1.008  0.00  0.00    +0.051 A 
ATOM     17  C   UNL     1       3.547  -3.777   1.473  0.00  0.00    +0.042 A 
ATOM     18  N   UNL     1       4.046  -3.196   2.604  0.00  0.00    -0.284 N 
ATOM     19  N   UNL     1       3.314  -2.028   2.855  0.00  0.00    -0.217 N 
ATOM     20  C   UNL     1       2.389  -1.908   1.881  0.00  0.00    +0.276 A 
ATOM     21  O   UNL     1       1.571  -1.012   1.772  0.00  0.00    -0.266 OA
ATOM     22  C   UNL     1       5.152  -3.707   3.417  0.00  0.00    +0.171 C 
ATOM     23  C   UNL     1       4.042  -5.057   0.849  0.00  0.00    +0.065 C 
BRANCH  19  24
ATOM     24  C   UNL     1       3.507  -1.146   3.922  0.00  0.00    +0.067 A 
ATOM     25  C   UNL     1       3.612  -1.634   5.218  0.00  0.00    +0.028 A 
ATOM     26  C   UNL     1       3.810  -0.761   6.270  0.00  0.00    +0.002 A 
ATOM     27  C   UNL     1       3.890   0.600   6.035  0.00  0.00    +0.000 A 
ATOM     28  C   UNL     1       3.779   1.090   4.747  0.00  0.00    +0.002 A 
ATOM     29  C   UNL     1       3.588   0.221   3.690  0.00  0.00    +0.028 A 
ENDBRANCH  19  24
ENDBRANCH   1  16
BRANCH   1  33
ATOM     30  C   UNL     1       4.308  -3.955  -3.557  0.00  0.00    +0.124 A 
ATOM     31  C   UNL     1       4.479  -2.836  -2.754  0.00  0.00    +0.046 A 
ATOM     32  C   UNL     1       3.636  -2.620  -1.681  0.00  0.00    +0.012 A 
ATOM     33  C   UNL     1       2.628  -3.522  -1.397  0.00  0.00    +0.006 A 
ATOM     34  C   UNL     1       2.454  -4.642  -2.197  0.00  0.00    +0.124 A 
ATOM     35  C   UNL     1       3.294  -4.859  -3.278  0.00  0.00    +0.091 A 
BRANCH  34  36
ATOM     36  O   UNL     1       1.459  -5.526  -1.921  0.00  0.00    -0.506 OA
ATOM     37  H   UNL     1       0.621  -5.326  -2.360  0.00  0.00    +0.292 HD
ENDBRANCH  34  36
BRANCH  30  38
ATOM     38  O   UNL     1       5.134  -4.165  -4.616  0.00  0.00    -0.492 OA
BRANCH  38  40
ATOM     39  C   UNL     1       6.979  -3.596  -6.069  0.00  0.00    +0.048 C 
ATOM     40  C   UNL     1       6.156  -3.193  -4.844  0.00  0.00    +0.225 C 
ENDBRANCH  38  40
ENDBRANCH  30  38
ENDBRANCH   1  33
TORSDOF 8
