REMARK  Name = ZINC43465471
REMARK  15 active torsions:
REMARK  status: ('A' for Active; 'I' for Inactive)
REMARK    1  A    between atoms: C_1  and  O_2
REMARK    2  A    between atoms: O_2  and  C_3
REMARK    3  A    between atoms: C_5  and  C_12
REMARK    4  A    between atoms: C_7  and  O_10
REMARK    5  A    between atoms: C_8  and  O_9
REMARK    6  A    between atoms: O_10  and  C_11
REMARK    7  A    between atoms: C_13  and  O_25
REMARK    8  A    between atoms: C_17  and  O_24
REMARK    9  A    between atoms: C_19  and  O_23
REMARK   10  A    between atoms: O_25  and  C_26
REMARK   11  A    between atoms: C_28  and  O_41
REMARK   12  A    between atoms: C_30  and  O_40
REMARK   13  A    between atoms: C_32  and  O_39
REMARK   14  A    between atoms: C_34  and  C_37
REMARK   15  A    between atoms: C_37  and  O_38
REMARK                            x       y       z     vdW  Elec       q    Type
REMARK                         _______ _______ _______ _____ _____    ______ ____
ROOT
ATOM      1  C   UNL     1      -4.829   0.004   0.045  0.00  0.00    +0.181 A 
ATOM      2  C   UNL     1      -6.014  -0.668   0.015  0.00  0.00    +0.214 A 
ATOM      3  C   UNL     1      -7.231   0.058   0.098  0.00  0.00    +0.238 A 
ATOM      4  O   UNL     1      -8.311  -0.510   0.074  0.00  0.00    -0.283 OA
ATOM      5  C   UNL     1      -7.139   1.522   0.213  0.00  0.00    +0.109 A 
ATOM      6  C   UNL     1      -8.290   2.318   0.300  0.00  0.00    +0.135 A 
ATOM      7  C   UNL     1      -8.162   3.690   0.408  0.00  0.00    +0.091 A 
ATOM      8  C   UNL     1      -6.900   4.275   0.430  0.00  0.00    +0.124 A 
ATOM      9  C   UNL     1      -5.758   3.494   0.344  0.00  0.00    +0.092 A 
ATOM     10  C   UNL     1      -5.865   2.116   0.235  0.00  0.00    +0.147 A 
ATOM     11  O   UNL     1      -4.762   1.342   0.157  0.00  0.00    -0.451 OA
ENDROOT
BRANCH   1  14
ATOM     12  C   UNL     1      -1.395  -1.093  -1.009  0.00  0.00    +0.166 A 
ATOM     13  C   UNL     1      -2.571  -0.370  -0.931  0.00  0.00    +0.061 A 
ATOM     14  C   UNL     1      -3.574  -0.765  -0.041  0.00  0.00    +0.028 A 
ATOM     15  C   UNL     1      -3.385  -1.889   0.767  0.00  0.00    +0.061 A 
ATOM     16  C   UNL     1      -2.207  -2.608   0.684  0.00  0.00    +0.166 A 
ATOM     17  C   UNL     1      -1.212  -2.216  -0.207  0.00  0.00    +0.201 A 
BRANCH  12  19
ATOM     18  C   UNL     1      -0.674   0.452  -2.667  0.00  0.00    +0.277 C 
ATOM     19  O   UNL     1      -0.419  -0.710  -1.875  0.00  0.00    -0.491 OA
ENDBRANCH  12  19
BRANCH  17  20
ATOM     20  O   UNL     1      -0.057  -2.928  -0.291  0.00  0.00    -0.501 OA
ATOM     21  H   UNL     1       0.635  -2.627   0.313  0.00  0.00    +0.292 HD
ENDBRANCH  17  20
BRANCH  16  22
ATOM     22  O   UNL     1      -2.022  -3.703   1.470  0.00  0.00    -0.491 OA
ATOM     23  C   UNL     1      -3.127  -4.116   2.277  0.00  0.00    +0.277 C 
ENDBRANCH  16  22
ENDBRANCH   1  14
BRANCH   8  24
ATOM     24  O   UNL     1      -6.786   5.623   0.535  0.00  0.00    -0.507 OA
ATOM     25  H   UNL     1      -6.735   5.944   1.446  0.00  0.00    +0.292 HD
ENDBRANCH   8  24
BRANCH   6  26
ATOM     26  O   UNL     1      -9.520   1.745   0.278  0.00  0.00    -0.506 OA
ATOM     27  H   UNL     1      -9.859   1.508   1.152  0.00  0.00    +0.292 HD
ENDBRANCH   6  26
BRANCH   2  28
ATOM     28  O   UNL     1      -6.031  -2.024  -0.094  0.00  0.00    -0.453 OA
BRANCH  28  29
ATOM     29  C   UNL     1      -6.577  -2.572  -1.295  0.00  0.00    +0.340 C 
ATOM     30  C   UNL     1      -6.774  -4.081  -1.125  0.00  0.00    +0.214 C 
ATOM     31  C   UNL     1      -7.303  -4.670  -2.436  0.00  0.00    +0.180 C 
ATOM     32  C   UNL     1      -6.323  -4.335  -3.565  0.00  0.00    +0.177 C 
ATOM     33  C   UNL     1      -6.144  -2.816  -3.641  0.00  0.00    +0.179 C 
ATOM     34  O   UNL     1      -5.680  -2.329  -2.381  0.00  0.00    -0.331 OA
BRANCH  32  35
ATOM     35  O   UNL     1      -6.842  -4.818  -4.806  0.00  0.00    -0.386 OA
ATOM     36  H   UNL     1      -6.984  -5.775  -4.827  0.00  0.00    +0.210 HD
ENDBRANCH  32  35
BRANCH  31  37
ATOM     37  O   UNL     1      -7.422  -6.088  -2.309  0.00  0.00    -0.386 OA
ATOM     38  H   UNL     1      -8.082  -6.371  -1.662  0.00  0.00    +0.210 HD
ENDBRANCH  31  37
BRANCH  30  39
ATOM     39  O   UNL     1      -7.714  -4.325  -0.077  0.00  0.00    -0.383 OA
ATOM     40  H   UNL     1      -7.444  -3.974   0.783  0.00  0.00    +0.210 HD
ENDBRANCH  30  39
BRANCH  33  41
ATOM     41  C   UNL     1      -5.122  -2.477  -4.728  0.00  0.00    +0.190 C 
BRANCH  41  42
ATOM     42  O   UNL     1      -5.040  -1.058  -4.878  0.00  0.00    -0.392 OA
ATOM     43  H   UNL     1      -4.409  -0.770  -5.552  0.00  0.00    +0.210 HD
ENDBRANCH  41  42
ENDBRANCH  33  41
ENDBRANCH  28  29
ENDBRANCH   2  28
TORSDOF 13
