REMARK  Name = ZINC02500531
REMARK  2 active torsions:
REMARK  status: ('A' for Active; 'I' for Inactive)
REMARK    1  A    between atoms: C_10  and  C_28
REMARK    2  A    between atoms: C_11  and  C_21
REMARK                            x       y       z     vdW  Elec       q    Type
REMARK                         _______ _______ _______ _____ _____    ______ ____
ROOT
ATOM      1  C   UNL     1      -0.017   1.374   0.010  0.00  0.00    +0.001 A 
ATOM      2  C   UNL     1       1.175   2.082   0.002  0.00  0.00    +0.002 A 
ATOM      3  C   UNL     1       2.387   1.419   0.039  0.00  0.00    +0.024 A 
ATOM      4  C   UNL     1       2.432   0.039   0.129  0.00  0.00    +0.050 A 
ATOM      5  C   UNL     1       1.223  -0.676   0.015  0.00  0.00    +0.034 A 
ATOM      6  C   UNL     1       0.002  -0.004   0.002  0.00  0.00    +0.013 A 
ATOM      7  C   UNL     1       1.294  -2.135  -0.141  0.00  0.00    +0.104 C 
ATOM      8  N   UNL     1       2.481  -2.713  -0.157  0.00  0.00    -0.330 N 
ATOM      9  C   UNL     1       3.621  -2.031   0.012  0.00  0.00    +0.123 C 
ATOM     10  C   UNL     1       4.827  -2.696  -0.173  0.00  0.00    +0.080 C 
ATOM     11  C   UNL     1       6.108  -1.960   0.173  0.00  0.00    +0.098 C 
ATOM     12  C   UNL     1       5.956  -0.572   0.752  0.00  0.00    +0.025 C 
ATOM     13  C   UNL     1       4.713  -0.038   0.827  0.00  0.00    +0.025 C 
ATOM     14  N   UNL     1       3.613  -0.676   0.311  0.00  0.00    -0.257 N 
ATOM     15  C   UNL     1       4.535   1.274   1.556  0.00  0.00    +0.052 C 
ATOM     16  C   UNL     1       5.590   1.390   2.662  0.00  0.00    +0.014 C 
ATOM     17  C   UNL     1       6.971   1.387   1.995  0.00  0.00    +0.080 C 
ATOM     18  C   UNL     1       7.093   0.132   1.169  0.00  0.00    +0.162 C 
ATOM     19  O   UNL     1       8.203  -0.250   0.850  0.00  0.00    -0.292 OA
ATOM     20  N   UNL     1       0.156  -2.891  -0.270  0.00  0.00    -0.344 N 
ATOM     21  H   UNL     1      -0.714  -2.463  -0.260  0.00  0.00    +0.144 HD
ATOM     22  H   UNL     1       0.223  -3.853  -0.372  0.00  0.00    +0.144 HD
ATOM     23  H   UNL     1       2.481  -3.674  -0.277  0.00  0.00    +0.168 HD
ENDROOT
BRANCH  11  24
ATOM     24  C   UNL     1       6.838  -2.812   1.178  0.00  0.00    -0.035 A 
ATOM     25  C   UNL     1       6.241  -3.123   2.386  0.00  0.00    +0.006 A 
ATOM     26  C   UNL     1       6.911  -3.904   3.308  0.00  0.00    +0.020 A 
ATOM     27  C   UNL     1       8.180  -4.376   3.023  0.00  0.00    +0.041 A 
ATOM     28  C   UNL     1       8.777  -4.065   1.814  0.00  0.00    +0.020 A 
ATOM     29  C   UNL     1       8.104  -3.288   0.890  0.00  0.00    +0.006 A 
ATOM     30 CL   UNL     1       9.022  -5.357   4.181  0.00  0.00    -0.084 Cl
ENDBRANCH  11  24
BRANCH  10  31
ATOM     31  C   UNL     1       4.903  -4.032  -0.686  0.00  0.00    +0.099 C 
ATOM     32  N   UNL     1       4.963  -5.091  -1.093  0.00  0.00    -0.191 NA
ENDBRANCH  10  31
TORSDOF 2
