REMARK  Name = ZINC20465146
REMARK  9 active torsions:
REMARK  status: ('A' for Active; 'I' for Inactive)
REMARK    1  A    between atoms: C_1  and  N_2
REMARK    2  A    between atoms: N_5  and  C_8
REMARK    3  A    between atoms: C_10  and  C_20
REMARK    4  A    between atoms: C_13  and  C_18
REMARK    5  A    between atoms: C_15  and  O_17
REMARK    6  A    between atoms: C_18  and  O_19
REMARK    7  A    between atoms: C_20  and  N_21
REMARK    8  A    between atoms: N_21  and  S_22
REMARK    9  A    between atoms: S_22  and  C_25
REMARK                            x       y       z     vdW  Elec       q    Type
REMARK                         _______ _______ _______ _____ _____    ______ ____
ROOT
ATOM      1  C   UNL     1      -0.222   1.528  -0.115  0.00  0.00    +0.118 C 
ATOM      2  C   UNL     1      -0.742   1.462   1.335  0.00  0.00    +0.154 C 
ATOM      3  O   UNL     1      -2.038   2.083   1.352  0.00  0.00    -0.366 OA
ATOM      4  C   UNL     1      -2.591   1.941   0.026  0.00  0.00    +0.174 C 
ATOM      5  C   UNL     1      -1.373   2.196  -0.904  0.00  0.00    +0.165 C 
ENDROOT
BRANCH   1  10
ATOM      6  C   UNL     1       4.832   3.822  -1.163  0.00  0.00    -0.096 C 
ATOM      7  N   UNL     1       3.615   3.003  -1.090  0.00  0.00    +0.379 N 
ATOM      8  C   UNL     1       3.394   2.509   0.277  0.00  0.00    -0.064 C 
ATOM      9  C   UNL     1       2.164   1.597   0.294  0.00  0.00    +0.066 C 
ATOM     10  N   UNL     1       0.995   2.347  -0.188  0.00  0.00    -0.298 NA
ATOM     11  C   UNL     1       1.216   2.841  -1.554  0.00  0.00    +0.066 C 
ATOM     12  C   UNL     1       2.446   3.752  -1.571  0.00  0.00    -0.064 C 
ATOM     13  H   UNL     1       3.755   2.132  -1.747  0.00  0.00    -0.082 HD
ENDBRANCH   1  10
BRANCH   5  14
ATOM     14  O   UNL     1      -1.136   3.596  -1.064  0.00  0.00    -0.388 OA
ATOM     15  H   UNL     1      -1.864   4.219  -1.605  0.00  0.00    +0.210 HD
ENDBRANCH   5  14
BRANCH   4  16
ATOM     16  C   UNL     1      -3.682   2.986  -0.218  0.00  0.00    +0.190 C 
BRANCH  16  17
ATOM     17  O   UNL     1      -4.794   2.722   0.640  0.00  0.00    -0.392 OA
ATOM     18  H   UNL     1      -5.681   3.373   0.607  0.00  0.00    +0.210 HD
ENDBRANCH  16  17
ENDBRANCH   4  16
BRANCH   2  19
ATOM     19  C   UNL     1       0.212   2.216   2.264  0.00  0.00    +0.139 C 
BRANCH  19  20
ATOM     20  N   UNL     1      -0.399   2.347   3.589  0.00  0.00    -0.187 NA
ATOM     21  H   UNL     1      -1.494   2.321   3.695  0.00  0.00    +0.148 HD
BRANCH  20  22
ATOM     22  S   UNL     1       0.529   2.779   4.890  0.00  0.00    +0.058 S 
ATOM     23  O   UNL     1      -0.345   2.847   6.008  0.00  0.00    -0.153 OA
ATOM     24  O   UNL     1       1.675   1.939   4.869  0.00  0.00    -0.153 OA
BRANCH  22  25
ATOM     25  C   UNL     1       1.103   4.420   4.599  0.00  0.00    +0.105 A 
ATOM     26  C   UNL     1       2.301   4.626   3.942  0.00  0.00    +0.031 A 
ATOM     27  C   UNL     1       2.749   5.912   3.708  0.00  0.00    +0.040 A 
ATOM     28  C   UNL     1       2.002   6.994   4.142  0.00  0.00    +0.124 A 
ATOM     29  C   UNL     1       0.804   6.786   4.805  0.00  0.00    +0.040 A 
ATOM     30  C   UNL     1       0.356   5.499   5.033  0.00  0.00    +0.031 A 
ATOM     31  F   UNL     1       2.442   8.252   3.919  0.00  0.00    -0.205 F 
ENDBRANCH  22  25
ENDBRANCH  20  22
ENDBRANCH  19  20
ENDBRANCH   2  19
TORSDOF 8
