REMARK  Name = ZINC31300538
REMARK  10 active torsions:
REMARK  status: ('A' for Active; 'I' for Inactive)
REMARK    1  A    between atoms: C_1  and  C_2
REMARK    2  A    between atoms: C_6  and  N_9
REMARK    3  A    between atoms: C_7  and  C_8
REMARK    4  A    between atoms: C_10  and  C_12
REMARK    5  A    between atoms: C_12  and  N_13
REMARK    6  A    between atoms: N_13  and  C_14
REMARK    7  A    between atoms: N_13  and  C_15
REMARK    8  A    between atoms: C_15  and  C_17
REMARK    9  A    between atoms: C_15  and  C_18
REMARK   10  A    between atoms: C_23  and  C_26
REMARK                            x       y       z     vdW  Elec       q    Type
REMARK                         _______ _______ _______ _____ _____    ______ ____
ROOT
ATOM      1  C   UNL     1       0.470   1.047   2.243  0.00  0.00    +0.017 C 
ATOM      2  C   UNL     1       0.853  -0.426   2.086  0.00  0.00    -0.004 C 
ENDROOT
BRANCH   1   3
ATOM      3  C   UNL     1       1.715   1.896   2.211  0.00  0.00    +0.205 C 
ATOM      4  O   UNL     1       1.813   2.797   1.405  0.00  0.00    -0.277 OA
ATOM      5  N   UNL     1       2.718   1.654   3.078  0.00  0.00    -0.266 N 
ATOM      6  C   UNL     1       3.866   2.437   3.048  0.00  0.00    +0.165 A 
ATOM      7  N   UNL     1       4.947   2.363   3.801  0.00  0.00    -0.225 NA
ATOM      8  C   UNL     1       5.960   3.200   3.635  0.00  0.00    +0.080 A 
ATOM      9  C   UNL     1       5.885   4.159   2.663  0.00  0.00    +0.076 A 
ATOM     10  S   UNL     1       4.273   3.806   1.974  0.00  0.00    -0.060 S 
ATOM     11  H   UNL     1       2.629   0.837   3.808  0.00  0.00    +0.157 HD
BRANCH   8  12
ATOM     12  C   UNL     1       7.165   3.098   4.494  0.00  0.00    +0.004 A 
ATOM     13  C   UNL     1       7.236   2.118   5.483  0.00  0.00    +0.013 A 
ATOM     14  C   UNL     1       8.358   2.026   6.281  0.00  0.00    +0.042 A 
ATOM     15  C   UNL     1       9.413   2.905   6.101  0.00  0.00    +0.158 A 
ATOM     16  C   UNL     1       9.347   3.882   5.119  0.00  0.00    +0.159 A 
ATOM     17  C   UNL     1       8.230   3.977   4.311  0.00  0.00    +0.051 A 
ATOM     18  F   UNL     1      10.379   4.738   4.947  0.00  0.00    -0.202 F 
ATOM     19  F   UNL     1      10.510   2.811   6.885  0.00  0.00    -0.202 F 
ENDBRANCH   8  12
ENDBRANCH   1   3
BRANCH   1  20
ATOM     20  N   UNL     1      -0.421   1.441   1.144  0.00  0.00    +0.391 N 
ATOM     21  C   UNL     1      -1.738   0.804   1.279  0.00  0.00    -0.094 C 
ATOM     22  H   UNL     1      -0.565   2.530   1.200  0.00  0.00    -0.080 HD
BRANCH  20  23
ATOM     23  C   UNL     1       0.183   1.132  -0.159  0.00  0.00    +0.020 C 
BRANCH  23  25
ATOM     24  N   UNL     1      -0.269   1.615  -2.543  0.00  0.00    -0.287 N 
ATOM     25  C   UNL     1      -0.636   1.765  -1.255  0.00  0.00    +0.201 C 
ATOM     26  O   UNL     1      -1.624   2.411  -0.977  0.00  0.00    -0.278 OA
ATOM     27  H   UNL     1       0.679   1.113  -2.790  0.00  0.00    +0.155 HD
BRANCH  24  33
ATOM     28  C   UNL     1      -0.780   3.243  -7.154  0.00  0.00    +0.044 C 
ATOM     29  C   UNL     1      -1.368   2.893  -5.811  0.00  0.00    -0.046 A 
ATOM     30  C   UNL     1      -2.724   3.045  -5.589  0.00  0.00    +0.004 A 
ATOM     31  C   UNL     1      -3.267   2.724  -4.359  0.00  0.00    +0.002 A 
ATOM     32  C   UNL     1      -2.456   2.250  -3.347  0.00  0.00    +0.023 A 
ATOM     33  C   UNL     1      -1.093   2.095  -3.566  0.00  0.00    +0.036 A 
ATOM     34  C   UNL     1      -0.550   2.424  -4.801  0.00  0.00    -0.026 A 
ATOM     35  C   UNL     1       0.929   2.264  -5.041  0.00  0.00    +0.046 C 
ENDBRANCH  24  33
ENDBRANCH  23  25
ENDBRANCH  20  23
ENDBRANCH   1  20
TORSDOF 6
