REMARK  Name = ZINC44803222
REMARK  10 active torsions:
REMARK  status: ('A' for Active; 'I' for Inactive)
REMARK    1  A    between atoms: C_1  and  C_2
REMARK    2  A    between atoms: C_2  and  C_4
REMARK    3  A    between atoms: C_2  and  N_14
REMARK    4  A    between atoms: C_7  and  O_10
REMARK    5  A    between atoms: O_10  and  C_11
REMARK    6  A    between atoms: N_14  and  C_15
REMARK    7  A    between atoms: C_15  and  C_17
REMARK    8  A    between atoms: C_15  and  C_18
REMARK    9  A    between atoms: N_23  and  C_24
REMARK   10  A    between atoms: C_24  and  C_25
REMARK                            x       y       z     vdW  Elec       q    Type
REMARK                         _______ _______ _______ _____ _____    ______ ____
ROOT
ATOM      1  C   UNL     1       2.122  -0.083   1.122  0.00  0.00    +0.014 C 
ATOM      2  C   UNL     1       2.796  -0.777  -0.064  0.00  0.00    -0.004 C 
ENDROOT
BRANCH   1   3
ATOM      3  C   UNL     1       2.822  -0.474   2.398  0.00  0.00    +0.206 C 
ATOM      4  O   UNL     1       2.208  -1.038   3.278  0.00  0.00    -0.277 OA
ATOM      5  N   UNL     1       4.132  -0.198   2.560  0.00  0.00    -0.242 N 
ATOM      6  C   UNL     1       4.758  -0.548   3.700  0.00  0.00    +0.306 C 
ATOM      7  O   UNL     1       4.142  -1.113   4.583  0.00  0.00    -0.252 OA
ATOM      8  N   UNL     1       6.067  -0.272   3.862  0.00  0.00    -0.295 N 
ATOM      9  H   UNL     1       4.623   0.253   1.855  0.00  0.00    +0.159 HD
ATOM     10  H   UNL     1       6.559   0.178   3.158  0.00  0.00    +0.151 HD
BRANCH   8  11
ATOM     11  C   UNL     1       6.748  -0.653   5.102  0.00  0.00    +0.141 C 
BRANCH  11  12
ATOM     12  C   UNL     1       8.194  -0.234   5.030  0.00  0.00    -0.030 A 
ATOM     13  C   UNL     1       9.139  -1.099   4.512  0.00  0.00    +0.005 A 
ATOM     14  C   UNL     1      10.465  -0.715   4.446  0.00  0.00    +0.000 A 
ATOM     15  C   UNL     1      10.847   0.534   4.898  0.00  0.00    +0.000 A 
ATOM     16  C   UNL     1       9.901   1.399   5.416  0.00  0.00    +0.000 A 
ATOM     17  C   UNL     1       8.574   1.017   5.478  0.00  0.00    +0.005 A 
ENDBRANCH  11  12
ENDBRANCH   8  11
ENDBRANCH   1   3
BRANCH   1  18
ATOM     18  N   UNL     1       0.713  -0.491   1.192  0.00  0.00    +0.391 N 
ATOM     19  H   UNL     1       0.290  -0.099   2.020  0.00  0.00    -0.084 HD
ATOM     20  H   UNL     1       0.655  -1.497   1.230  0.00  0.00    -0.084 HD
BRANCH  18  22
ATOM     21  C   UNL     1      -0.019   1.526   0.010  0.00  0.00    -0.009 C 
ATOM     22  C   UNL     1       0.002  -0.004   0.002  0.00  0.00    -0.043 C 
BRANCH  22  23
ATOM     23  C   UNL     1      -1.412  -0.526   0.013  0.00  0.00    -0.061 A 
ATOM     24  C   UNL     1      -2.122  -0.570   1.198  0.00  0.00    +0.005 A 
ATOM     25  C   UNL     1      -3.418  -1.049   1.211  0.00  0.00    +0.046 A 
ATOM     26  C   UNL     1      -4.007  -1.484   0.032  0.00  0.00    +0.127 A 
ATOM     27  C   UNL     1      -3.292  -1.437  -1.156  0.00  0.00    +0.046 A 
ATOM     28  C   UNL     1      -1.998  -0.953  -1.164  0.00  0.00    +0.005 A 
BRANCH  26  29
ATOM     29  O   UNL     1      -5.282  -1.955   0.042  0.00  0.00    -0.434 OA
BRANCH  29  30
ATOM     30  C   UNL     1      -5.824  -2.386  -1.208  0.00  0.00    +0.541 C 
ATOM     31  F   UNL     1      -5.825  -1.315  -2.109  0.00  0.00    -0.166 F 
ATOM     32  F   UNL     1      -5.042  -3.426  -1.721  0.00  0.00    -0.166 F 
ENDBRANCH  29  30
ENDBRANCH  26  29
ENDBRANCH  22  23
ENDBRANCH  18  22
ENDBRANCH   1  18
TORSDOF 8
