REMARK  Name = ZINC20116946
REMARK  11 active torsions:
REMARK  status: ('A' for Active; 'I' for Inactive)
REMARK    1  A    between atoms: C_1  and  C_2
REMARK    2  A    between atoms: C_3  and  S_25
REMARK    3  A    between atoms: N_9  and  C_12
REMARK    4  A    between atoms: C_12  and  C_13
REMARK    5  A    between atoms: N_15  and  C_16
REMARK    6  A    between atoms: C_19  and  C_22
REMARK    7  A    between atoms: C_22  and  C_23
REMARK    8  A    between atoms: C_22  and  C_24
REMARK    9  A    between atoms: S_25  and  N_28
REMARK   10  A    between atoms: C_30  and  C_37
REMARK   11  A    between atoms: C_33  and  C_36
REMARK                            x       y       z     vdW  Elec       q    Type
REMARK                         _______ _______ _______ _____ _____    ______ ____
ROOT
ATOM      1  C   UNL     1      -0.875   7.653   0.720  0.00  0.00    +0.053 C 
ATOM      2  C   UNL     1      -0.672   6.213   0.323  0.00  0.00    +0.016 A 
ATOM      3  C   UNL     1       0.481   5.575   0.065  0.00  0.00    +0.130 A 
ATOM      4  C   UNL     1       0.447   4.173  -0.303  0.00  0.00    +0.099 A 
ATOM      5  C   UNL     1      -0.837   3.602  -0.356  0.00  0.00    +0.117 A 
ATOM      6  S   UNL     1      -1.906   4.949   0.083  0.00  0.00    -0.072 S 
ATOM      7  N   UNL     1      -1.028   2.327  -0.683  0.00  0.00    -0.230 NA
ATOM      8  C   UNL     1      -0.019   1.546  -0.962  0.00  0.00    +0.203 A 
ATOM      9  N   UNL     1       1.257   2.010  -0.937  0.00  0.00    -0.290 N 
ATOM     10  C   UNL     1       1.530   3.289  -0.620  0.00  0.00    +0.264 A 
ATOM     11  O   UNL     1       2.681   3.691  -0.603  0.00  0.00    -0.267 OA
ENDROOT
BRANCH   3  12
ATOM     12  S   UNL     1       2.017   6.432   0.174  0.00  0.00    +0.062 S 
ATOM     13  O   UNL     1       1.762   7.632   0.892  0.00  0.00    -0.153 OA
ATOM     14  O   UNL     1       2.983   5.481   0.599  0.00  0.00    -0.153 OA
BRANCH  12  15
ATOM     15  N   UNL     1       2.438   6.880  -1.363  0.00  0.00    -0.176 NA
ATOM     16  C   UNL     1       3.253   5.993  -2.204  0.00  0.00    +0.112 C 
ATOM     17  C   UNL     1       4.467   6.767  -2.714  0.00  0.00    +0.002 C 
ATOM     18  C   UNL     1       3.997   8.043  -3.416  0.00  0.00    +0.009 C 
ATOM     19  C   UNL     1       3.242   8.927  -2.421  0.00  0.00    +0.002 C 
ATOM     20  C   UNL     1       2.009   8.174  -1.910  0.00  0.00    +0.112 C 
ATOM     21  C   UNL     1       2.801  10.217  -3.115  0.00  0.00    +0.009 C 
ATOM     22  C   UNL     1       5.251   5.901  -3.701  0.00  0.00    +0.009 C 
ENDBRANCH  12  15
ENDBRANCH   3  12
BRANCH   9  23
ATOM     23  C   UNL     1       2.358   1.101  -1.263  0.00  0.00    +0.222 C 
BRANCH  23  24
ATOM     24  C   UNL     1       2.630   1.151  -2.744  0.00  0.00    +0.237 C 
ATOM     25  O   UNL     1       1.970   1.876  -3.458  0.00  0.00    -0.274 OA
ATOM     26  N   UNL     1       3.608   0.391  -3.276  0.00  0.00    -0.284 N 
ATOM     27  H   UNL     1       4.265  -0.198  -2.620  0.00  0.00    +0.155 HD
BRANCH  26  28
ATOM     28  C   UNL     1       3.787   0.351  -4.663  0.00  0.00    +0.033 A 
ATOM     29  C   UNL     1       2.691   0.460  -5.510  0.00  0.00    +0.023 A 
ATOM     30  C   UNL     1       2.871   0.426  -6.878  0.00  0.00    +0.006 A 
ATOM     31  C   UNL     1       4.140   0.272  -7.406  0.00  0.00    -0.045 A 
ATOM     32  C   UNL     1       5.232   0.158  -6.566  0.00  0.00    +0.006 A 
ATOM     33  C   UNL     1       5.059   0.197  -5.197  0.00  0.00    +0.023 A 
BRANCH  31  34
ATOM     34  C   UNL     1       4.333   0.230  -8.900  0.00  0.00    +0.013 C 
ATOM     35  C   UNL     1       3.544  -0.945  -9.483  0.00  0.00    +0.012 C 
ATOM     36  C   UNL     1       3.830   1.537  -9.517  0.00  0.00    +0.012 C 
ENDBRANCH  31  34
ENDBRANCH  26  28
ENDBRANCH  23  24
ENDBRANCH   9  23
TORSDOF 6
