REMARK  Name = ZINC00946545
REMARK  8 active torsions:
REMARK  status: ('A' for Active; 'I' for Inactive)
REMARK    1  A    between atoms: C_1  and  O_2
REMARK    2  A    between atoms: O_2  and  C_3
REMARK    3  A    between atoms: C_5  and  C_11
REMARK    4  A    between atoms: C_8  and  O_9
REMARK    5  A    between atoms: C_13  and  C_25
REMARK    6  A    between atoms: C_15  and  C_20
REMARK    7  A    between atoms: C_15  and  O_24
REMARK    8  A    between atoms: C_25  and  C_27
REMARK                            x       y       z     vdW  Elec       q    Type
REMARK                         _______ _______ _______ _____ _____    ______ ____
ROOT
ATOM      1  C   UNL     1       0.901  -0.296   1.053  0.00  0.00    +0.118 C 
ATOM      2  C   UNL     1       0.475   0.498  -0.186  0.00  0.00    +0.144 C 
ATOM      3  C   UNL     1       0.862   1.967   0.018  0.00  0.00    +0.241 C 
ATOM      4  N   UNL     1       2.295   2.050   0.308  0.00  0.00    -0.291 N 
ATOM      5  C   UNL     1       2.942   1.046   0.918  0.00  0.00    +0.133 C 
ATOM      6  S   UNL     1       4.615   1.221   1.237  0.00  0.00    -0.019 S 
ATOM      7  N   UNL     1       2.332  -0.090   1.287  0.00  0.00    -0.319 N 
ATOM      8  H   UNL     1       2.785   2.847   0.054  0.00  0.00    +0.151 HD
ATOM      9  H   UNL     1       2.848  -0.788   1.718  0.00  0.00    +0.148 HD
ENDROOT
BRANCH   1  12
ATOM     10  C   UNL     1      -1.866   0.119   3.591  0.00  0.00    +0.163 A 
ATOM     11  C   UNL     1      -1.146  -0.318   2.491  0.00  0.00    +0.055 A 
ATOM     12  C   UNL     1       0.120   0.182   2.250  0.00  0.00    -0.022 A 
ATOM     13  C   UNL     1       0.674   1.114   3.108  0.00  0.00    +0.024 A 
ATOM     14  C   UNL     1      -0.041   1.559   4.205  0.00  0.00    +0.063 A 
ATOM     15  C   UNL     1      -1.312   1.062   4.452  0.00  0.00    +0.173 A 
ATOM     16 BR   UNL     1       0.716   2.840   5.372  0.00  0.00    -0.046 Br
BRANCH  10  18
ATOM     17  C   UNL     1      -3.617  -1.335   2.903  0.00  0.00    +0.277 C 
ATOM     18  O   UNL     1      -3.112  -0.371   3.829  0.00  0.00    -0.491 OA
ENDBRANCH  10  18
BRANCH  15  19
ATOM     19  O   UNL     1      -2.015   1.494   5.533  0.00  0.00    -0.503 OA
ATOM     20  H   UNL     1      -1.870   0.970   6.332  0.00  0.00    +0.292 HD
ENDBRANCH  15  19
ENDBRANCH   1  12
BRANCH   3  21
ATOM     21  C   UNL     1       0.551   2.759  -1.254  0.00  0.00    +0.436 C 
ATOM     22  F   UNL     1      -0.788   2.564  -1.609  0.00  0.00    -0.166 F 
ATOM     23  F   UNL     1       0.778   4.120  -1.022  0.00  0.00    -0.166 F 
ATOM     24  F   UNL     1       1.378   2.318  -2.292  0.00  0.00    -0.166 F 
ENDBRANCH   3  21
BRANCH   3  25
ATOM     25  O   UNL     1       0.121   2.508   1.113  0.00  0.00    -0.364 OA
ATOM     26  H   UNL     1       0.316   3.437   1.299  0.00  0.00    +0.212 HD
ENDBRANCH   3  25
BRANCH   2  27
ATOM     27  C   UNL     1       1.179  -0.046  -1.403  0.00  0.00    +0.173 C 
ATOM     28  O   UNL     1       2.358   0.181  -1.573  0.00  0.00    -0.292 OA
BRANCH  27  29
ATOM     29  C   UNL     1       0.435  -0.853  -2.383  0.00  0.00    +0.018 A 
ATOM     30  C   UNL     1      -0.938  -1.066  -2.222  0.00  0.00    +0.011 A 
ATOM     31  C   UNL     1      -1.628  -1.820  -3.147  0.00  0.00    +0.001 A 
ATOM     32  C   UNL     1      -0.964  -2.374  -4.228  0.00  0.00    +0.000 A 
ATOM     33  C   UNL     1       0.395  -2.172  -4.392  0.00  0.00    +0.001 A 
ATOM     34  C   UNL     1       1.099  -1.417  -3.478  0.00  0.00    +0.011 A 
ENDBRANCH  27  29
ENDBRANCH   2  27
TORSDOF 7
