REMARK  Name = ZINC42500060
REMARK  9 active torsions:
REMARK  status: ('A' for Active; 'I' for Inactive)
REMARK    1  A    between atoms: C_1  and  C_2
REMARK    2  A    between atoms: C_2  and  C_3
REMARK    3  A    between atoms: C_2  and  N_4
REMARK    4  A    between atoms: N_4  and  C_5
REMARK    5  A    between atoms: N_4  and  C_9
REMARK    6  A    between atoms: C_5  and  C_6
REMARK    7  A    between atoms: C_6  and  C_7
REMARK    8  A    between atoms: C_7  and  O_8
REMARK    9  A    between atoms: C_18  and  N_19
REMARK                            x       y       z     vdW  Elec       q    Type
REMARK                         _______ _______ _______ _____ _____    ______ ____
ROOT
ATOM      1  C   UNL     1      -2.224  -0.192   1.066  0.00  0.00    +0.062 A 
ATOM      2  C   UNL     1      -2.297  -1.009   2.217  0.00  0.00    +0.022 A 
ATOM      3  C   UNL     1      -1.515  -2.167   2.339  0.00  0.00    +0.027 A 
ATOM      4  C   UNL     1      -1.613  -2.930   3.465  0.00  0.00    +0.019 A 
ATOM      5  C   UNL     1      -2.480  -2.573   4.496  0.00  0.00    +0.017 A 
ATOM      6  C   UNL     1      -3.251  -1.455   4.409  0.00  0.00    +0.027 A 
ATOM      7  C   UNL     1      -3.178  -0.643   3.263  0.00  0.00    +0.048 A 
ATOM      8  N   UNL     1      -3.926   0.460   3.154  0.00  0.00    -0.359 N 
ATOM      9  C   UNL     1      -3.870   1.230   2.092  0.00  0.00    +0.107 A 
ATOM     10  C   UNL     1      -3.025   0.943   1.022  0.00  0.00    +0.063 A 
ATOM     11 BR   UNL     1      -0.559  -4.492   3.628  0.00  0.00    -0.050 Br
ATOM     12  H   UNL     1      -4.525   0.698   3.879  0.00  0.00    +0.165 HD
ENDROOT
BRANCH  10  13
ATOM     13  N   UNL     1      -2.987   1.791  -0.094  0.00  0.00    -0.355 N 
ATOM     14  H   UNL     1      -2.400   1.587  -0.839  0.00  0.00    +0.142 HD
ATOM     15  H   UNL     1      -3.547   2.583  -0.121  0.00  0.00    +0.142 HD
ENDBRANCH  10  13
BRANCH   1  16
ATOM     16  N   UNL     1      -1.372  -0.511   0.012  0.00  0.00    -0.325 N 
BRANCH  16  18
ATOM     17  C   UNL     1      -0.019   1.526   0.010  0.00  0.00    +0.027 C 
ATOM     18  C   UNL     1       0.002  -0.004   0.002  0.00  0.00    +0.067 C 
ATOM     19  C   UNL     1       0.742  -0.511   1.242  0.00  0.00    +0.027 C 
ENDBRANCH  16  18
BRANCH  16  20
ATOM     20  C   UNL     1      -1.851  -1.354  -1.086  0.00  0.00    +0.107 C 
BRANCH  20  21
ATOM     21  C   UNL     1      -1.578  -2.823  -0.758  0.00  0.00    +0.047 C 
BRANCH  21  22
ATOM     22  C   UNL     1      -2.077  -3.703  -1.906  0.00  0.00    +0.157 C 
BRANCH  22  23
ATOM     23  O   UNL     1      -1.822  -5.076  -1.599  0.00  0.00    -0.395 OA
ATOM     24  H   UNL     1      -2.114  -5.692  -2.284  0.00  0.00    +0.209 HD
ENDBRANCH  22  23
ENDBRANCH  21  22
ENDBRANCH  20  21
ENDBRANCH  16  20
ENDBRANCH   1  16
TORSDOF 7
