REMARK  Name = ZINC17126571
REMARK  15 active torsions:
REMARK  status: ('A' for Active; 'I' for Inactive)
REMARK    1  A    between atoms: C_1  and  C_2
REMARK    2  A    between atoms: C_5  and  C_33
REMARK    3  A    between atoms: C_6  and  S_8
REMARK    4  A    between atoms: S_8  and  N_11
REMARK    5  A    between atoms: N_11  and  C_12
REMARK    6  A    between atoms: C_12  and  C_14
REMARK    7  A    between atoms: C_12  and  C_18
REMARK    8  A    between atoms: C_14  and  C_15
REMARK    9  A    between atoms: C_15  and  S_16
REMARK   10  A    between atoms: S_16  and  C_17
REMARK   11  A    between atoms: N_20  and  C_21
REMARK   12  A    between atoms: C_21  and  C_22
REMARK   13  A    between atoms: C_22  and  C_23
REMARK   14  A    between atoms: C_26  and  S_29
REMARK   15  A    between atoms: S_29  and  N_32
REMARK                            x       y       z     vdW  Elec       q    Type
REMARK                         _______ _______ _______ _____ _____    ______ ____
ROOT
ATOM      1  C   UNL     1      -1.427   1.992  -3.218  0.00  0.00    +0.163 C 
ENDROOT
BRANCH   1   2
ATOM      2  C   UNL     1      -1.301   1.059  -2.042  0.00  0.00    +0.232 C 
ATOM      3  O   UNL     1      -0.672   0.028  -2.150  0.00  0.00    -0.274 OA
ATOM      4  N   UNL     1      -1.886   1.371  -0.868  0.00  0.00    -0.314 N 
ATOM      5  H   UNL     1      -2.388   2.196  -0.781  0.00  0.00    +0.149 HD
BRANCH   4   6
ATOM      6  C   UNL     1      -1.762   0.465   0.276  0.00  0.00    +0.109 C 
BRANCH   6   7
ATOM      7  C   UNL     1      -2.513   1.050   1.474  0.00  0.00    +0.054 C 
BRANCH   7   8
ATOM      8  C   UNL     1      -2.386   0.117   2.651  0.00  0.00    -0.046 A 
ATOM      9  C   UNL     1      -3.326  -0.877   2.849  0.00  0.00    +0.005 A 
ATOM     10  C   UNL     1      -3.208  -1.735   3.926  0.00  0.00    +0.029 A 
ATOM     11  C   UNL     1      -2.154  -1.594   4.810  0.00  0.00    +0.105 A 
ATOM     12  C   UNL     1      -1.217  -0.597   4.614  0.00  0.00    +0.029 A 
ATOM     13  C   UNL     1      -1.333   0.259   3.535  0.00  0.00    +0.005 A 
BRANCH  11  14
ATOM     14  S   UNL     1      -2.005  -2.685   6.185  0.00  0.00    +0.056 S 
ATOM     15  O   UNL     1      -2.704  -3.873   5.838  0.00  0.00    -0.153 OA
ATOM     16  O   UNL     1      -0.633  -2.689   6.554  0.00  0.00    -0.153 OA
BRANCH  14  17
ATOM     17  N   UNL     1      -2.833  -2.000   7.445  0.00  0.00    -0.204 NA
ATOM     18  H   UNL     1      -3.247  -2.564   8.117  0.00  0.00    +0.144 HD
ATOM     19  H   UNL     1      -2.902  -1.035   7.512  0.00  0.00    +0.144 HD
ENDBRANCH  14  17
ENDBRANCH  11  14
ENDBRANCH   7   8
ENDBRANCH   6   7
ENDBRANCH   4   6
ENDBRANCH   1   2
BRANCH   1  20
ATOM     20  N   UNL     1      -0.709   1.431  -4.365  0.00  0.00    -0.178 NA
ATOM     21  H   UNL     1       0.227   1.192  -4.282  0.00  0.00    +0.149 HD
BRANCH  20  22
ATOM     22  S   UNL     1      -1.496   1.206  -5.805  0.00  0.00    +0.059 S 
ATOM     23  O   UNL     1      -2.198   2.411  -6.077  0.00  0.00    -0.153 OA
ATOM     24  O   UNL     1      -0.543   0.658  -6.707  0.00  0.00    -0.153 OA
BRANCH  22  30
ATOM     25  C   UNL     1      -6.473  -0.385  -5.657  0.00  0.00    +0.044 C 
ATOM     26  C   UNL     1      -5.011  -0.714  -5.490  0.00  0.00    -0.049 A 
ATOM     27  C   UNL     1      -4.627  -1.992  -5.131  0.00  0.00    +0.004 A 
ATOM     28  C   UNL     1      -3.287  -2.294  -4.978  0.00  0.00    +0.005 A 
ATOM     29  C   UNL     1      -2.331  -1.318  -5.184  0.00  0.00    -0.024 A 
ATOM     30  C   UNL     1      -2.715  -0.039  -5.543  0.00  0.00    +0.108 A 
ATOM     31  C   UNL     1      -4.055   0.264  -5.691  0.00  0.00    +0.032 A 
ATOM     32  C   UNL     1      -0.870  -1.647  -5.017  0.00  0.00    +0.046 C 
ENDBRANCH  22  30
ENDBRANCH  20  22
ENDBRANCH   1  20
BRANCH   1  33
ATOM     33  C   UNL     1      -0.828   3.353  -2.857  0.00  0.00    +0.040 C 
BRANCH  33  34
ATOM     34  C   UNL     1      -1.034   4.325  -4.020  0.00  0.00    +0.071 C 
BRANCH  34  35
ATOM     35  S   UNL     1      -0.406   5.963  -3.557  0.00  0.00    -0.164 S 
ATOM     36  C   UNL     1      -0.581   6.945  -5.072  0.00  0.00    +0.084 C 
ENDBRANCH  34  35
ENDBRANCH  33  34
ENDBRANCH   1  33
TORSDOF 12
