REMARK  Name = ZINC19872864
REMARK  1 active torsions:
REMARK  status: ('A' for Active; 'I' for Inactive)
REMARK    1  A    between atoms: C_1  and  C_2
REMARK                            x       y       z     vdW  Elec       q    Type
REMARK                         _______ _______ _______ _____ _____    ______ ____
ROOT
ATOM      1  C   UNL     1       1.221   3.568   0.009  0.00  0.00    +0.067 C 
ATOM      2  C   UNL     1       1.193   2.062   0.002  0.00  0.00    +0.057 A 
ATOM      3  C   UNL     1      -0.017   1.382   0.010  0.00  0.00    +0.057 A 
ATOM      4  C   UNL     1       0.002  -0.004   0.002  0.00  0.00    +0.131 A 
ATOM      5  N   UNL     1       1.166  -0.633  -0.013  0.00  0.00    -0.222 NA
ATOM      6  C   UNL     1       2.303   0.046  -0.020  0.00  0.00    +0.213 A 
ATOM      7  N   UNL     1       2.320   1.371  -0.013  0.00  0.00    -0.219 NA
ATOM      8  N   UNL     1       3.502  -0.645  -0.035  0.00  0.00    -0.327 N 
ATOM      9 BR   UNL     1      -1.655   2.326   0.023  0.00  0.00    -0.047 Br
ATOM     10  H   UNL     1       4.455  -0.095  -0.041  0.00  0.00    +0.145 HD
ATOM     11  H   UNL     1       3.503  -1.746  -0.041  0.00  0.00    +0.145 HD
ENDROOT
TORSDOF 0
