REMARK  Name = ZINC12246410
REMARK  8 active torsions:
REMARK  status: ('A' for Active; 'I' for Inactive)
REMARK    1  A    between atoms: C_1  and  C_2
REMARK    2  A    between atoms: C_2  and  O_3
REMARK    3  A    between atoms: O_3  and  C_4
REMARK    4  A    between atoms: C_8  and  C_11
REMARK    5  A    between atoms: C_9  and  O_10
REMARK    6  A    between atoms: C_11  and  N_55
REMARK    7  A    between atoms: C_15  and  C_18
REMARK    8  A    between atoms: C_19  and  C_24
REMARK                            x       y       z     vdW  Elec       q    Type
REMARK                         _______ _______ _______ _____ _____    ______ ____
ROOT
ATOM      1  C   UNL     1      -1.658  -0.612   6.175  0.00  0.00    -0.078 C 
ATOM      2  C   UNL     1      -2.914  -1.469   6.347  0.00  0.00    -0.018 C 
ATOM      3  C   UNL     1      -3.490  -1.246   7.748  0.00  0.00    +0.006 C 
ATOM      4  C   UNL     1      -3.793   0.244   7.935  0.00  0.00    +0.021 C 
ATOM      5  C   UNL     1      -2.511   1.051   7.717  0.00  0.00    -0.069 C 
ATOM      6  N   UNL     1      -2.021   0.811   6.343  0.00  0.00    +0.383 N 
ATOM      7  H   UNL     1      -2.767   1.045   5.678  0.00  0.00    -0.081 HD
ENDROOT
BRANCH   4   8
ATOM      8  C   UNL     1      -4.306   0.481   9.332  0.00  0.00    +0.045 A 
ATOM      9  C   UNL     1      -5.518   1.011   9.666  0.00  0.00    +0.028 A 
ATOM     10  C   UNL     1      -5.590   1.054  11.072  0.00  0.00    +0.143 A 
ATOM     11  N   UNL     1      -4.470   0.580  11.551  0.00  0.00    -0.181 NA
ATOM     12  N   UNL     1      -3.647   0.214  10.478  0.00  0.00    -0.281 N 
ATOM     13  H   UNL     1      -2.730  -0.177  10.550  0.00  0.00    +0.189 HD
BRANCH   9  14
ATOM     14  C   UNL     1      -6.571   1.458   8.720  0.00  0.00    +0.056 A 
ATOM     15  C   UNL     1      -7.544   0.561   8.281  0.00  0.00    +0.134 A 
ATOM     16  C   UNL     1      -8.526   0.985   7.404  0.00  0.00    +0.039 A 
ATOM     17  C   UNL     1      -8.536   2.292   6.953  0.00  0.00    +0.006 A 
ATOM     18  C   UNL     1      -7.571   3.185   7.380  0.00  0.00    +0.039 A 
ATOM     19  C   UNL     1      -6.587   2.775   8.261  0.00  0.00    +0.134 A 
ATOM     20  F   UNL     1      -5.645   3.648   8.678  0.00  0.00    -0.205 F 
ATOM     21  F   UNL     1      -7.531  -0.718   8.716  0.00  0.00    -0.205 F 
ENDBRANCH   9  14
ENDBRANCH   4   8
BRANCH   6  22
ATOM     22  C   UNL     1      -0.848   1.667   6.069  0.00  0.00    -0.039 C 
BRANCH  22  27
ATOM     23  C   UNL     1      -0.148   1.182   2.380  0.00  0.00    +0.162 A 
ATOM     24  C   UNL     1       0.993   0.398   2.422  0.00  0.00    +0.049 A 
ATOM     25  C   UNL     1       1.534   0.028   3.639  0.00  0.00    +0.004 A 
ATOM     26  C   UNL     1       0.938   0.438   4.817  0.00  0.00    +0.005 A 
ATOM     27  C   UNL     1      -0.201   1.221   4.783  0.00  0.00    -0.019 A 
ATOM     28  C   UNL     1      -0.745   1.600   3.566  0.00  0.00    +0.160 A 
BRANCH  28  29
ATOM     29  O   UNL     1      -1.862   2.374   3.531  0.00  0.00    -0.503 OA
ATOM     30  H   UNL     1      -2.689   1.872   3.523  0.00  0.00    +0.292 HD
ENDBRANCH  28  29
BRANCH  23  31
ATOM     31  O   UNL     1      -0.682   1.547   1.184  0.00  0.00    -0.489 OA
BRANCH  31  33
ATOM     32  C   UNL     1      -0.753   1.593  -1.232  0.00  0.00    +0.048 C 
ATOM     33  C   UNL     1      -0.013   1.086   0.008  0.00  0.00    +0.226 C 
ENDBRANCH  31  33
ENDBRANCH  23  31
ENDBRANCH  22  27
ENDBRANCH   6  22
TORSDOF 7
