REMARK  Name = ZINC13452010
REMARK  7 active torsions:
REMARK  status: ('A' for Active; 'I' for Inactive)
REMARK    1  A    between atoms: C_1  and  C_2
REMARK    2  A    between atoms: C_2  and  C_4
REMARK    3  A    between atoms: C_2  and  O_33
REMARK    4  A    between atoms: C_8  and  N_10
REMARK    5  A    between atoms: C_11  and  C_13
REMARK    6  A    between atoms: C_17  and  C_28
REMARK    7  A    between atoms: C_20  and  C_24
REMARK                            x       y       z     vdW  Elec       q    Type
REMARK                         _______ _______ _______ _____ _____    ______ ____
ROOT
ATOM      1  C   UNL     1       6.242  -2.145   3.257  0.00  0.00    +0.110 C 
ATOM      2  C   UNL     1       7.013  -2.020   2.148  0.00  0.00    +0.072 C 
ATOM      3  C   UNL     1       8.388  -2.326   2.540  0.00  0.00    +0.114 C 
ATOM      4  N   UNL     1       9.476  -2.349   1.823  0.00  0.00    -0.362 N 
ATOM      5  C   UNL     1      10.742  -2.730   2.460  0.00  0.00    +0.149 C 
ATOM      6  C   UNL     1      10.758  -2.293   3.925  0.00  0.00    +0.065 C 
ATOM      7  C   UNL     1       9.569  -2.923   4.668  0.00  0.00    +0.202 C 
ATOM      8  N   UNL     1       8.361  -2.604   3.901  0.00  0.00    -0.226 N 
ATOM      9  N   UNL     1       7.042  -2.505   4.330  0.00  0.00    -0.258 N 
ATOM     10  H   UNL     1       6.731  -2.665   5.235  0.00  0.00    +0.170 HD
ATOM     11  H   UNL     1       9.449  -2.118   0.881  0.00  0.00    +0.162 HD
ENDROOT
BRANCH   5  12
ATOM     12  C   UNL     1      11.883  -2.068   1.732  0.00  0.00    +0.127 A 
ATOM     13  C   UNL     1      13.068  -2.636   1.445  0.00  0.00    +0.047 A 
ATOM     14  C   UNL     1      13.833  -1.665   0.760  0.00  0.00    +0.041 A 
ATOM     15  C   UNL     1      13.070  -0.561   0.669  0.00  0.00    +0.195 A 
ATOM     16  O   UNL     1      11.888  -0.813   1.254  0.00  0.00    -0.466 OA
ENDBRANCH   5  12
BRANCH   1  18
ATOM     17  N   UNL     1       4.108  -1.577   2.199  0.00  0.00    -0.280 N 
ATOM     18  C   UNL     1       4.781  -1.926   3.314  0.00  0.00    +0.264 C 
ATOM     19  O   UNL     1       4.186  -2.061   4.366  0.00  0.00    -0.268 OA
ATOM     20  H   UNL     1       4.567  -1.544   1.346  0.00  0.00    +0.155 HD
BRANCH  17  25
ATOM     21  C   UNL     1       0.561  -1.257   1.290  0.00  0.00    -0.018 A 
ATOM     22  C   UNL     1       0.056  -0.639   2.421  0.00  0.00    +0.006 A 
ATOM     23  C   UNL     1       0.894  -0.333   3.477  0.00  0.00    +0.002 A 
ATOM     24  C   UNL     1       2.238  -0.642   3.407  0.00  0.00    +0.023 A 
ATOM     25  C   UNL     1       2.748  -1.263   2.274  0.00  0.00    +0.034 A 
ATOM     26  C   UNL     1       1.903  -1.574   1.216  0.00  0.00    +0.029 A 
BRANCH  21  28
ATOM     27  C   UNL     1      -0.492  -0.370  -0.772  0.00  0.00    +0.043 C 
ATOM     28  C   UNL     1      -0.356  -1.590   0.142  0.00  0.00    +0.141 C 
BRANCH  28  29
ATOM     29  O   UNL     1      -1.642  -1.952   0.648  0.00  0.00    -0.387 OA
ATOM     30  H   UNL     1      -2.285  -2.179  -0.037  0.00  0.00    +0.210 HD
ENDBRANCH  28  29
ENDBRANCH  21  28
ENDBRANCH  17  25
ENDBRANCH   1  18
BRANCH   7  31
ATOM     31  C   UNL     1       9.465  -2.336   6.077  0.00  0.00    +0.410 C 
ATOM     32  F   UNL     1       9.276  -0.952   5.992  0.00  0.00    -0.169 F 
ATOM     33  F   UNL     1       8.380  -2.915   6.744  0.00  0.00    -0.169 F 
ATOM     34  F   UNL     1      10.643  -2.603   6.782  0.00  0.00    -0.169 F 
ENDBRANCH   7  31
TORSDOF 6
