REMARK  Name = ZINC66991820
REMARK  9 active torsions:
REMARK  status: ('A' for Active; 'I' for Inactive)
REMARK    1  A    between atoms: C_1  and  C_2
REMARK    2  A    between atoms: C_2  and  C_9
REMARK    3  A    between atoms: C_12  and  C_15
REMARK    4  A    between atoms: C_15  and  N_16
REMARK    5  A    between atoms: N_16  and  C_17
REMARK    6  A    between atoms: C_17  and  C_18
REMARK    7  A    between atoms: C_21  and  O_25
REMARK    8  A    between atoms: O_25  and  C_26
REMARK    9  A    between atoms: C_26  and  C_27
REMARK                            x       y       z     vdW  Elec       q    Type
REMARK                         _______ _______ _______ _____ _____    ______ ____
ROOT
ATOM      1  C   UNL     1       0.657  -0.517  -1.255  0.00  0.00    -0.016 A 
ATOM      2  C   UNL     1       1.778  -1.322  -1.171  0.00  0.00    +0.006 A 
ATOM      3  C   UNL     1       2.378  -1.792  -2.324  0.00  0.00    +0.002 A 
ATOM      4  C   UNL     1       1.858  -1.458  -3.560  0.00  0.00    -0.064 A 
ATOM      5  C   UNL     1       0.737  -0.654  -3.644  0.00  0.00    +0.002 A 
ATOM      6  C   UNL     1       0.134  -0.187  -2.491  0.00  0.00    +0.006 A 
ENDROOT
BRANCH   1   8
ATOM      7  C   UNL     1      -0.019   1.526   0.010  0.00  0.00    +0.047 C 
ATOM      8  C   UNL     1       0.002  -0.004   0.002  0.00  0.00    +0.135 C 
ATOM      9  C   UNL     1      -1.403  -0.557   0.139  0.00  0.00    +0.248 C 
ATOM     10  O   UNL     1      -2.332  -0.392  -0.621  0.00  0.00    -0.273 OA
ATOM     11  N   UNL     1      -1.403  -1.272   1.282  0.00  0.00    -0.238 N 
ATOM     12  C   UNL     1      -0.206  -1.247   1.879  0.00  0.00    +0.307 C 
ATOM     13  O   UNL     1       0.040  -1.819   2.924  0.00  0.00    -0.252 OA
ATOM     14  N   UNL     1       0.695  -0.520   1.195  0.00  0.00    -0.282 N 
ATOM     15  H   UNL     1      -2.175  -1.745   1.629  0.00  0.00    +0.159 HD
ATOM     16  H   UNL     1       1.621  -0.365   1.440  0.00  0.00    +0.152 HD
ENDBRANCH   1   8
BRANCH   4  17
ATOM     17  C   UNL     1       2.514  -1.970  -4.817  0.00  0.00    -0.046 C 
BRANCH  17  18
ATOM     18  N   UNL     1       1.919  -3.261  -5.188  0.00  0.00    +0.384 N 
ATOM     19  H   UNL     1       2.060  -3.924  -4.441  0.00  0.00    -0.085 HD
ATOM     20  H   UNL     1       0.930  -3.141  -5.350  0.00  0.00    -0.085 HD
BRANCH  18  21
ATOM     21  C   UNL     1       2.557  -3.760  -6.413  0.00  0.00    -0.046 C 
BRANCH  21  22
ATOM     22  C   UNL     1       1.947  -5.084  -6.795  0.00  0.00    -0.063 A 
ATOM     23  C   UNL     1       2.486  -6.259  -6.304  0.00  0.00    +0.005 A 
ATOM     24  C   UNL     1       1.928  -7.474  -6.652  0.00  0.00    +0.047 A 
ATOM     25  C   UNL     1       0.827  -7.516  -7.495  0.00  0.00    +0.139 A 
ATOM     26  C   UNL     1       0.287  -6.335  -7.986  0.00  0.00    +0.083 A 
ATOM     27  C   UNL     1       0.846  -5.121  -7.630  0.00  0.00    +0.025 A 
ATOM     28 CL   UNL     1      -1.091  -6.381  -9.040  0.00  0.00    -0.080 Cl
BRANCH  25  29
ATOM     29  O   UNL     1       0.277  -8.710  -7.839  0.00  0.00    -0.487 OA
BRANCH  29  30
ATOM     30  C   UNL     1       0.885  -9.884  -7.297  0.00  0.00    +0.256 C 
BRANCH  30  31
ATOM     31  C   UNL     1       0.146 -11.104  -7.785  0.00  0.00    +0.006 C 
ATOM     32  C   UNL     1       0.814 -12.144  -8.218  0.00  0.00    +0.007 C 
ENDBRANCH  30  31
ENDBRANCH  29  30
ENDBRANCH  25  29
ENDBRANCH  21  22
ENDBRANCH  18  21
ENDBRANCH  17  18
ENDBRANCH   4  17
TORSDOF 8
