REMARK  Name = ZINC08742613
REMARK  6 active torsions:
REMARK  status: ('A' for Active; 'I' for Inactive)
REMARK    1  A    between atoms: C_11  and  C_15
REMARK    2  A    between atoms: C_16  and  O_31
REMARK    3  A    between atoms: C_18  and  O_30
REMARK    4  A    between atoms: N_19  and  C_22
REMARK    5  A    between atoms: C_22  and  C_23
REMARK    6  A    between atoms: C_23  and  C_24
REMARK                            x       y       z     vdW  Elec       q    Type
REMARK                         _______ _______ _______ _____ _____    ______ ____
ROOT
ATOM      1  C   UNL     1       4.880  -3.349   0.924  0.00  0.00    +0.070 A 
ATOM      2  C   UNL     1       6.188  -3.392   0.475  0.00  0.00    +0.224 A 
ATOM      3  N   UNL     1       7.194  -3.314   1.354  0.00  0.00    -0.161 NA
ATOM      4  C   UNL     1       6.965  -3.196   2.642  0.00  0.00    +0.302 A 
ATOM      5  N   UNL     1       5.701  -3.148   3.136  0.00  0.00    -0.262 N 
ATOM      6  C   UNL     1       4.644  -3.217   2.299  0.00  0.00    +0.262 A 
ATOM      7  O   UNL     1       3.504  -3.170   2.732  0.00  0.00    -0.267 OA
ENDROOT
BRANCH   1  18
ATOM      8  C   UNL     1      -0.016   1.362   0.009  0.00  0.00    +0.001 A 
ATOM      9  C   UNL     1       1.169   2.083   0.002  0.00  0.00    +0.002 A 
ATOM     10  C   UNL     1       2.385   1.435  -0.013  0.00  0.00    +0.026 A 
ATOM     11  C   UNL     1       2.428   0.045  -0.020  0.00  0.00    +0.047 A 
ATOM     12  C   UNL     1       1.222  -0.683  -0.013  0.00  0.00    +0.003 A 
ATOM     13  C   UNL     1       0.002  -0.004   0.002  0.00  0.00    +0.010 A 
ATOM     14  C   UNL     1       1.609  -2.088  -0.027  0.00  0.00    -0.022 A 
ATOM     15  C   UNL     1       2.956  -2.138  -0.037  0.00  0.00    +0.011 A 
ATOM     16  N   UNL     1       3.460  -0.870  -0.033  0.00  0.00    -0.359 N 
ATOM     17  H   UNL     1       4.403  -0.645  -0.038  0.00  0.00    +0.166 HD
ATOM     18  C   UNL     1       3.731  -3.435  -0.048  0.00  0.00    +0.018 C 
ATOM     19  C   UNL     1       1.587  -4.513  -0.442  0.00  0.00    -0.076 C 
ATOM     20  C   UNL     1       0.726  -3.310  -0.033  0.00  0.00    +0.018 C 
ATOM     21  N   UNL     1       2.826  -4.531   0.364  0.00  0.00    +0.388 N 
ATOM     22  H   UNL     1       2.585  -4.416   1.355  0.00  0.00    -0.084 HD
ATOM     23  H   UNL     1       3.303  -5.431   0.230  0.00  0.00    -0.084 HD
ENDBRANCH   1  18
BRANCH   4  24
ATOM     24  O   UNL     1       8.009  -3.120   3.493  0.00  0.00    -0.479 OA
ATOM     25  H   UNL     1       8.895  -3.157   3.107  0.00  0.00    +0.295 HD
ENDBRANCH   4  24
BRANCH   2  26
ATOM     26  O   UNL     1       6.449  -3.514  -0.847  0.00  0.00    -0.492 OA
ATOM     27  H   UNL     1       7.392  -3.535  -1.061  0.00  0.00    +0.294 HD
ENDBRANCH   2  26
BRANCH   5  28
ATOM     28  C   UNL     1       5.483  -3.015   4.578  0.00  0.00    +0.134 C 
BRANCH  28  29
ATOM     29  C   UNL     1       5.410  -1.532   4.948  0.00  0.00    +0.052 C 
BRANCH  29  30
ATOM     30  C   UNL     1       5.186  -1.395   6.432  0.00  0.00    -0.072 C 
ATOM     31  C   UNL     1       6.223  -1.227   7.190  0.00  0.00    -0.028 C 
ATOM     32  C   UNL     1       6.159  -1.086   8.682  0.00  0.00    +0.027 C 
ATOM     33  C   UNL     1       4.733  -0.743   9.119  0.00  0.00    +0.004 C 
ATOM     34  C   UNL     1       3.770  -1.730   8.447  0.00  0.00    +0.005 C 
ATOM     35  C   UNL     1       3.775  -1.455   6.940  0.00  0.00    +0.030 C 
ENDBRANCH  29  30
ENDBRANCH  28  29
ENDBRANCH   5  28
TORSDOF 6
