REMARK  Name = ZINC39998932
REMARK  11 active torsions:
REMARK  status: ('A' for Active; 'I' for Inactive)
REMARK    1  A    between atoms: C_1  and  C_2
REMARK    2  A    between atoms: C_2  and  O_3
REMARK    3  A    between atoms: O_3  and  C_4
REMARK    4  A    between atoms: C_7  and  N_10
REMARK    5  A    between atoms: C_11  and  C_13
REMARK    6  A    between atoms: C_13  and  C_36
REMARK    7  A    between atoms: C_14  and  C_15
REMARK    8  A    between atoms: C_16  and  O_27
REMARK    9  A    between atoms: C_21  and  C_26
REMARK   10  A    between atoms: O_27  and  C_28
REMARK   11  A    between atoms: C_32  and  C_34
REMARK                            x       y       z     vdW  Elec       q    Type
REMARK                         _______ _______ _______ _____ _____    ______ ____
ROOT
ATOM      1  C   UNL     1       3.118  -9.710  -4.558  0.00  0.00    +0.103 A 
ATOM      2  C   UNL     1       3.728 -10.108  -5.773  0.00  0.00    +0.235 A 
ATOM      3  N   UNL     1       3.975 -11.389  -5.989  0.00  0.00    -0.194 NA
ATOM      4  C   UNL     1       3.666 -12.325  -5.090  0.00  0.00    +0.144 A 
ATOM      5  C   UNL     1       3.954 -13.671  -5.378  0.00  0.00    +0.047 A 
ATOM      6  C   UNL     1       3.642 -14.636  -4.467  0.00  0.00    +0.008 A 
ATOM      7  C   UNL     1       3.038 -14.273  -3.256  0.00  0.00    -0.034 A 
ATOM      8  C   UNL     1       2.768 -12.974  -2.996  0.00  0.00    +0.099 A 
ATOM      9  N   UNL     1       3.077 -12.003  -3.900  0.00  0.00    -0.267 N 
ATOM     10  C   UNL     1       2.798 -10.714  -3.606  0.00  0.00    +0.269 A 
ATOM     11  O   UNL     1       2.278 -10.419  -2.545  0.00  0.00    -0.266 OA
ATOM     12  C   UNL     1       2.690 -15.332  -2.242  0.00  0.00    +0.045 C 
ENDROOT
BRANCH   1  14
ATOM     13  C   UNL     1       2.056  -7.627  -5.179  0.00  0.00    +0.114 C 
ATOM     14  C   UNL     1       2.843  -8.356  -4.299  0.00  0.00    +0.042 C 
BRANCH  13  16
ATOM     15  N   UNL     1       1.115  -5.476  -5.838  0.00  0.00    -0.281 N 
ATOM     16  C   UNL     1       1.879  -6.184  -4.983  0.00  0.00    +0.259 C 
ATOM     17  O   UNL     1       2.423  -5.626  -4.047  0.00  0.00    -0.269 OA
ATOM     18  H   UNL     1       0.633  -5.930  -6.547  0.00  0.00    +0.155 HD
BRANCH  15  22
ATOM     19  C   UNL     1       0.822  -1.337  -5.433  0.00  0.00    +0.121 A 
ATOM     20  C   UNL     1      -0.266  -2.068  -5.889  0.00  0.00    +0.047 A 
ATOM     21  C   UNL     1      -0.169  -3.439  -6.024  0.00  0.00    +0.027 A 
ATOM     22  C   UNL     1       1.017  -4.086  -5.702  0.00  0.00    +0.034 A 
ATOM     23  C   UNL     1       2.105  -3.354  -5.246  0.00  0.00    +0.027 A 
ATOM     24  C   UNL     1       2.009  -1.982  -5.117  0.00  0.00    +0.047 A 
BRANCH  19  25
ATOM     25  O   UNL     1       0.726   0.013  -5.301  0.00  0.00    -0.492 OA
BRANCH  25  27
ATOM     26  C   UNL     1      -0.443   2.124  -5.432  0.00  0.00    +0.048 C 
ATOM     27  C   UNL     1      -0.526   0.611  -5.643  0.00  0.00    +0.225 C 
ENDBRANCH  25  27
ENDBRANCH  19  25
ENDBRANCH  15  22
ENDBRANCH  13  16
BRANCH  13  28
ATOM     28  C   UNL     1       1.417  -8.283  -6.280  0.00  0.00    +0.104 C 
ATOM     29  N   UNL     1       0.909  -8.803  -7.153  0.00  0.00    -0.191 NA
ENDBRANCH  13  28
ENDBRANCH   1  14
BRANCH   2  30
ATOM     30  O   UNL     1       4.053  -9.185  -6.705  0.00  0.00    -0.437 OA
BRANCH  30  31
ATOM     31  C   UNL     1       4.574  -9.623  -7.882  0.00  0.00    +0.131 A 
ATOM     32  C   UNL     1       3.748 -10.203  -8.834  0.00  0.00    +0.048 A 
ATOM     33  C   UNL     1       4.280 -10.647 -10.029  0.00  0.00    +0.024 A 
ATOM     34  C   UNL     1       5.635 -10.515 -10.277  0.00  0.00    +0.044 A 
ATOM     35  C   UNL     1       6.460  -9.937  -9.328  0.00  0.00    -0.029 A 
ATOM     36  C   UNL     1       5.931  -9.486  -8.134  0.00  0.00    +0.051 A 
ATOM     37  C   UNL     1       7.935  -9.794  -9.600  0.00  0.00    +0.045 C 
ATOM     38 CL   UNL     1       6.300 -11.075 -11.779  0.00  0.00    -0.083 Cl
ENDBRANCH  30  31
ENDBRANCH   2  30
TORSDOF 8
