REMARK  Name = ZINC14994631
REMARK  8 active torsions:
REMARK  status: ('A' for Active; 'I' for Inactive)
REMARK    1  A    between atoms: C_1  and  C_2
REMARK    2  A    between atoms: C_10  and  C_11
REMARK    3  A    between atoms: C_16  and  N_74
REMARK    4  A    between atoms: C_22  and  C_25
REMARK    5  A    between atoms: C_25  and  O_26
REMARK    6  A    between atoms: N_27  and  C_28
REMARK    7  A    between atoms: C_28  and  C_29
REMARK    8  A    between atoms: C_29  and  C_30
REMARK                            x       y       z     vdW  Elec       q    Type
REMARK                         _______ _______ _______ _____ _____    ______ ____
ROOT
ATOM      1  C   UNL     1      -1.887   5.094  -6.923  0.00  0.00    +0.046 C 
ATOM      2  C   UNL     1      -0.863   6.185  -7.100  0.00  0.00    -0.019 A 
ATOM      3  C   UNL     1       0.404   6.061  -6.514  0.00  0.00    +0.051 A 
ATOM      4  C   UNL     1       0.926   5.005  -5.708  0.00  0.00    +0.130 A 
ATOM      5  N   UNL     1       2.163   5.098  -5.246  0.00  0.00    -0.220 NA
ATOM      6  C   UNL     1       2.934   6.139  -5.501  0.00  0.00    +0.224 A 
ATOM      7  N   UNL     1       2.509   7.149  -6.234  0.00  0.00    -0.228 NA
ATOM      8  C   UNL     1       1.291   7.143  -6.736  0.00  0.00    +0.114 A 
ATOM      9  S   UNL     1       0.338   8.251  -7.742  0.00  0.00    -0.064 S 
ATOM     10  C   UNL     1      -1.164   7.291  -7.834  0.00  0.00    +0.080 A 
ATOM     11  N   UNL     1       0.153   3.899  -5.418  0.00  0.00    -0.328 N 
ATOM     12  H   UNL     1      -0.720   3.797  -5.828  0.00  0.00    +0.147 HD
ENDROOT
BRANCH  10  13
ATOM     13  C   UNL     1      -2.415   7.614  -8.531  0.00  0.00    +0.254 C 
ATOM     14  O   UNL     1      -3.479   7.238  -8.076  0.00  0.00    -0.269 OA
ATOM     15  N   UNL     1      -2.385   8.329  -9.673  0.00  0.00    -0.297 N 
ATOM     16  C   UNL     1      -1.105   8.702 -10.290  0.00  0.00    +0.106 C 
ATOM     17  C   UNL     1      -1.112   8.234 -11.753  0.00  0.00    +0.004 C 
ATOM     18  C   UNL     1      -2.341   8.809 -12.460  0.00  0.00    -0.066 C 
ATOM     19  C   UNL     1      -3.611   8.290 -11.783  0.00  0.00    +0.004 C 
ATOM     20  C   UNL     1      -3.632   8.754 -10.323  0.00  0.00    +0.106 C 
BRANCH  18  26
ATOM     21  C   UNL     1      -2.346   6.930 -13.987  0.00  0.00    -0.078 C 
ATOM     22  C   UNL     1      -2.485   6.536 -15.459  0.00  0.00    -0.018 C 
ATOM     23  C   UNL     1      -1.311   7.120 -16.251  0.00  0.00    +0.002 C 
ATOM     24  C   UNL     1      -1.292   8.640 -16.073  0.00  0.00    -0.002 C 
ATOM     25  C   UNL     1      -1.188   8.973 -14.583  0.00  0.00    -0.073 C 
ATOM     26  N   UNL     1      -2.358   8.405 -13.881  0.00  0.00    +0.382 N 
ATOM     27  H   UNL     1      -3.215   8.763 -14.319  0.00  0.00    -0.081 HD
BRANCH  24  28
ATOM     28  C   UNL     1      -0.087   9.226 -16.812  0.00  0.00    +0.157 C 
BRANCH  28  29
ATOM     29  O   UNL     1      -0.242   9.017 -18.217  0.00  0.00    -0.395 OA
ATOM     30  H   UNL     1       0.486   9.364 -18.750  0.00  0.00    +0.209 HD
ENDBRANCH  28  29
ENDBRANCH  24  28
ENDBRANCH  18  26
ENDBRANCH  10  13
BRANCH  11  31
ATOM     31  C   UNL     1       0.651   2.880  -4.491  0.00  0.00    +0.107 C 
BRANCH  31  32
ATOM     32  C   UNL     1      -0.391   1.770  -4.346  0.00  0.00    +0.049 C 
BRANCH  32  33
ATOM     33  C   UNL     1       0.121   0.721  -3.393  0.00  0.00    -0.072 C 
ATOM     34  C   UNL     1      -0.231   0.806  -2.150  0.00  0.00    -0.028 C 
ATOM     35  C   UNL     1       0.206  -0.155  -1.084  0.00  0.00    +0.027 C 
ATOM     36  C   UNL     1       0.748  -1.438  -1.717  0.00  0.00    +0.004 C 
ATOM     37  C   UNL     1       1.758  -1.055  -2.806  0.00  0.00    +0.005 C 
ATOM     38  C   UNL     1       1.008  -0.357  -3.943  0.00  0.00    +0.030 C 
ENDBRANCH  32  33
ENDBRANCH  31  32
ENDBRANCH  11  31
TORSDOF 7
