REMARK  Name = ZINC51718421
REMARK  7 active torsions:
REMARK  status: ('A' for Active; 'I' for Inactive)
REMARK    1  A    between atoms: C_1  and  C_2
REMARK    2  A    between atoms: C_2  and  C_3
REMARK    3  A    between atoms: C_6  and  C_8
REMARK    4  A    between atoms: C_8  and  N_9
REMARK    5  A    between atoms: N_9  and  C_10
REMARK    6  A    between atoms: C_10  and  C_12
REMARK    7  A    between atoms: C_10  and  C_13
REMARK                            x       y       z     vdW  Elec       q    Type
REMARK                         _______ _______ _______ _____ _____    ______ ____
ROOT
ATOM      1  C   UNL     1       1.817  -3.717  -6.526  0.00  0.00    -0.044 C 
ATOM      2  C   UNL     1       0.706  -3.157  -7.416  0.00  0.00    -0.009 C 
ENDROOT
BRANCH   1   3
ATOM      3  C   UNL     1       1.789  -5.223  -6.576  0.00  0.00    -0.060 A 
ATOM      4  C   UNL     1       0.866  -5.921  -5.816  0.00  0.00    +0.004 A 
ATOM      5  C   UNL     1       0.833  -7.301  -5.855  0.00  0.00    +0.028 A 
ATOM      6  C   UNL     1       1.727  -7.991  -6.659  0.00  0.00    +0.067 A 
ATOM      7  C   UNL     1       2.658  -7.287  -7.426  0.00  0.00    +0.067 A 
ATOM      8  C   UNL     1       2.680  -5.901  -7.385  0.00  0.00    +0.029 A 
ATOM      9  N   UNL     1       3.407  -8.235  -8.119  0.00  0.00    -0.306 N 
ATOM     10  H   UNL     1       4.133  -8.045  -8.735  0.00  0.00    +0.170 HD
ATOM     11  C   UNL     1       2.953  -9.458  -7.789  0.00  0.00    +0.325 A 
ATOM     12  O   UNL     1       3.392 -10.508  -8.220  0.00  0.00    -0.247 OA
ATOM     13  N   UNL     1       1.940  -9.344  -6.910  0.00  0.00    -0.306 N 
ATOM     14  H   UNL     1       1.443 -10.079  -6.518  0.00  0.00    +0.170 HD
ENDBRANCH   1   3
BRANCH   1  15
ATOM     15  N   UNL     1       1.609  -3.269  -5.143  0.00  0.00    +0.386 N 
ATOM     16  H   UNL     1       2.293  -3.705  -4.542  0.00  0.00    -0.085 HD
ATOM     17  H   UNL     1       0.682  -3.529  -4.840  0.00  0.00    -0.085 HD
BRANCH  15  18
ATOM     18  C   UNL     1       1.755  -1.809  -5.073  0.00  0.00    -0.039 C 
BRANCH  18  22
ATOM     19  C   UNL     1       0.707  -0.490  -1.238  0.00  0.00    -0.010 A 
ATOM     20  C   UNL     1       2.023  -0.761  -1.421  0.00  0.00    +0.011 A 
ATOM     21  C   UNL     1       2.451  -1.202  -2.659  0.00  0.00    +0.009 A 
ATOM     22  C   UNL     1       1.542  -1.350  -3.654  0.00  0.00    -0.027 A 
ATOM     23  S   UNL     1       0.026  -0.866  -2.845  0.00  0.00    -0.100 S 
BRANCH  19  25
ATOM     24  C   UNL     1      -0.019   1.526   0.010  0.00  0.00    +0.009 C 
ATOM     25  C   UNL     1       0.002  -0.004   0.002  0.00  0.00    +0.039 C 
ENDBRANCH  19  25
ENDBRANCH  18  22
ENDBRANCH  15  18
ENDBRANCH   1  15
TORSDOF 5
