REMARK  Name = ZINC39778480
REMARK  3 active torsions:
REMARK  status: ('A' for Active; 'I' for Inactive)
REMARK    1  A    between atoms: C_6  and  N_7
REMARK    2  A    between atoms: C_8  and  C_10
REMARK    3  A    between atoms: C_10  and  N_20
REMARK                            x       y       z     vdW  Elec       q    Type
REMARK                         _______ _______ _______ _____ _____    ______ ____
ROOT
ATOM      1  C   UNL     1      -3.660  -0.844   0.249  0.00  0.00    +0.013 C 
ATOM      2  C   UNL     1      -4.105  -1.315  -1.137  0.00  0.00    -0.013 C 
ATOM      3  C   UNL     1      -5.411  -2.103  -1.012  0.00  0.00    +0.006 C 
ATOM      4  C   UNL     1      -6.492  -1.206  -0.408  0.00  0.00    -0.010 C 
ATOM      5  C   UNL     1      -6.713   0.008  -1.313  0.00  0.00    +0.007 C 
ATOM      6  C   UNL     1      -5.407   0.796  -1.437  0.00  0.00    -0.010 C 
ATOM      7  C   UNL     1      -4.326  -0.102  -2.042  0.00  0.00    +0.006 C 
ATOM      8  C   UNL     1      -4.963   1.267  -0.051  0.00  0.00    +0.006 C 
ATOM      9  C   UNL     1      -4.742   0.054   0.854  0.00  0.00    -0.013 C 
ATOM     10  C   UNL     1      -6.048  -0.734   0.978  0.00  0.00    +0.006 C 
ENDROOT
BRANCH   1  12
ATOM     11  N   UNL     1      -1.202  -0.721   0.010  0.00  0.00    -0.287 N 
ATOM     12  C   UNL     1      -2.374  -0.068   0.127  0.00  0.00    +0.206 C 
ATOM     13  O   UNL     1      -2.395   1.145   0.134  0.00  0.00    -0.277 OA
ATOM     14  H   UNL     1      -1.191  -1.688  -0.071  0.00  0.00    +0.155 HD
BRANCH  11  20
ATOM     15  C   UNL     1       1.076  -0.456  -0.750  0.00  0.00    +0.027 A 
ATOM     16  C   UNL     1       2.264   0.250  -0.756  0.00  0.00    +0.051 A 
ATOM     17  C   UNL     1       2.387   1.410  -0.010  0.00  0.00    +0.166 A 
ATOM     18  C   UNL     1       1.311   1.867   0.749  0.00  0.00    +0.168 A 
ATOM     19  C   UNL     1       0.121   1.158   0.755  0.00  0.00    +0.072 A 
ATOM     20  C   UNL     1       0.002  -0.004   0.005  0.00  0.00    +0.037 A 
ATOM     21  O   UNL     1       1.682   3.016   1.385  0.00  0.00    -0.453 OA
ATOM     22  C   UNL     1       3.121   3.037   1.334  0.00  0.00    +0.466 C 
ATOM     23  O   UNL     1       3.432   2.275   0.152  0.00  0.00    -0.453 OA
ENDBRANCH  11  20
ENDBRANCH   1  12
BRANCH   1  24
ATOM     24  N   UNL     1      -3.449  -2.009   1.119  0.00  0.00    +0.388 N 
ATOM     25  H   UNL     1      -3.155  -1.698   2.032  0.00  0.00    -0.089 HD
ATOM     26  H   UNL     1      -4.310  -2.528   1.200  0.00  0.00    -0.089 HD
ATOM     27  H   UNL     1      -2.735  -2.600   0.720  0.00  0.00    -0.089 HD
ENDBRANCH   1  24
TORSDOF 3
