REMARK  Name = ZINC65305706
REMARK  5 active torsions:
REMARK  status: ('A' for Active; 'I' for Inactive)
REMARK    1  A    between atoms: C_6  and  N_10
REMARK    2  A    between atoms: C_11  and  C_13
REMARK    3  A    between atoms: C_13  and  N_14
REMARK    4  A    between atoms: C_15  and  C_17
REMARK    5  A    between atoms: C_17  and  C_18
REMARK                            x       y       z     vdW  Elec       q    Type
REMARK                         _______ _______ _______ _____ _____    ______ ____
ROOT
ATOM      1  N   UNL     1       3.522  -2.756  -1.248  0.00  0.00    -0.277 N 
ATOM      2  C   UNL     1       3.445  -4.099  -1.322  0.00  0.00    +0.233 C 
ATOM      3  O   UNL     1       3.004  -4.734  -0.387  0.00  0.00    -0.274 OA
ATOM      4  H   UNL     1       3.874  -2.248  -1.996  0.00  0.00    +0.152 HD
ENDROOT
BRANCH   1  10
ATOM      5  C   UNL     1      -0.016   1.344   0.009  0.00  0.00    +0.002 A 
ATOM      6  C   UNL     1       1.158   2.118   0.002  0.00  0.00    +0.002 A 
ATOM      7  C   UNL     1       2.389   1.570  -0.013  0.00  0.00    +0.027 A 
ATOM      8  C   UNL     1       2.533   0.108  -0.022  0.00  0.00    +0.061 A 
ATOM      9  N   UNL     1       3.569  -0.680  -0.036  0.00  0.00    -0.348 N 
ATOM     10  C   UNL     1       3.071  -2.062  -0.039  0.00  0.00    +0.269 C 
ATOM     11  N   UNL     1       1.606  -1.974  -0.024  0.00  0.00    -0.348 N 
ATOM     12  C   UNL     1       1.290  -0.712  -0.014  0.00  0.00    +0.061 A 
ATOM     13  C   UNL     1       0.002  -0.004   0.002  0.00  0.00    +0.027 A 
ATOM     14  H   UNL     1       4.499  -0.405  -0.045  0.00  0.00    +0.163 HD
ATOM     15  H   UNL     1       0.987  -2.721  -0.022  0.00  0.00    +0.163 HD
ENDBRANCH   1  10
BRANCH   2  16
ATOM     16  C   UNL     1       3.908  -4.813  -2.565  0.00  0.00    +0.200 C 
BRANCH  16  17
ATOM     17  N   UNL     1       3.723  -6.257  -2.397  0.00  0.00    -0.306 N 
ATOM     18  C   UNL     1       4.070  -7.101  -3.389  0.00  0.00    +0.218 C 
ATOM     19  O   UNL     1       4.536  -6.665  -4.421  0.00  0.00    -0.275 OA
ATOM     20  H   UNL     1       3.350  -6.605  -1.572  0.00  0.00    +0.149 HD
BRANCH  18  21
ATOM     21  C   UNL     1       3.879  -8.586  -3.216  0.00  0.00    +0.138 C 
BRANCH  21  22
ATOM     22  C   UNL     1       4.342  -9.300  -4.460  0.00  0.00    -0.001 A 
ATOM     23  C   UNL     1       5.572  -9.786  -4.757  0.00  0.00    +0.011 A 
ATOM     24  C   UNL     1       5.769 -10.413  -5.973  0.00  0.00    +0.008 A 
ATOM     25  C   UNL     1       4.726 -10.523  -6.833  0.00  0.00    +0.045 A 
ATOM     26  S   UNL     1       3.411  -9.731  -5.921  0.00  0.00    -0.101 S 
ENDBRANCH  21  22
ENDBRANCH  18  21
ENDBRANCH  16  17
ENDBRANCH   2  16
TORSDOF 5
