REMARK  Name = ZINC39303969
REMARK  7 active torsions:
REMARK  status: ('A' for Active; 'I' for Inactive)
REMARK    1  A    between atoms: C_1  and  C_2
REMARK    2  A    between atoms: C_6  and  O_25
REMARK    3  A    between atoms: C_7  and  O_24
REMARK    4  A    between atoms: N_12  and  C_13
REMARK    5  A    between atoms: C_13  and  C_14
REMARK    6  A    between atoms: N_16  and  C_17
REMARK    7  A    between atoms: C_18  and  C_22
REMARK                            x       y       z     vdW  Elec       q    Type
REMARK                         _______ _______ _______ _____ _____    ______ ____
ROOT
ATOM      1  C   UNL     1      -0.019   1.526   0.010  0.00  0.00    -0.008 C 
ATOM      2  C   UNL     1       0.002  -0.004   0.002  0.00  0.00    -0.040 C 
ATOM      3  C   UNL     1      -1.413  -0.520  -0.001  0.00  0.00    -0.054 A 
ATOM      4  C   UNL     1      -2.350   0.123  -0.797  0.00  0.00    +0.051 A 
ATOM      5  C   UNL     1      -3.660  -0.319  -0.833  0.00  0.00    +0.158 A 
ATOM      6  C   UNL     1      -4.039  -1.415  -0.064  0.00  0.00    +0.158 A 
ATOM      7  C   UNL     1      -3.103  -2.053   0.730  0.00  0.00    +0.053 A 
ATOM      8  C   UNL     1      -1.791  -1.605   0.762  0.00  0.00    -0.044 A 
ATOM      9  C   UNL     1      -0.804  -2.324   1.647  0.00  0.00    +0.017 C 
ATOM     10  C   UNL     1       0.622  -1.950   1.244  0.00  0.00    -0.073 C 
ATOM     11  N   UNL     1       0.723  -0.484   1.184  0.00  0.00    +0.390 N 
ATOM     12  H   UNL     1       0.314  -0.083   2.015  0.00  0.00    -0.080 HD
ENDROOT
BRANCH   6  13
ATOM     13  O   UNL     1      -5.325  -1.858  -0.092  0.00  0.00    -0.503 OA
ATOM     14  H   UNL     1      -5.496  -2.525  -0.771  0.00  0.00    +0.292 HD
ENDBRANCH   6  13
BRANCH   5  15
ATOM     15  O   UNL     1      -4.573   0.315  -1.615  0.00  0.00    -0.503 OA
ATOM     16  H   UNL     1      -4.638  -0.041  -2.512  0.00  0.00    +0.292 HD
ENDBRANCH   5  15
BRANCH  11  17
ATOM     17  C   UNL     1       2.136  -0.093   1.091  0.00  0.00    +0.020 C 
BRANCH  17  18
ATOM     18  C   UNL     1       2.849  -0.478   2.362  0.00  0.00    +0.201 C 
ATOM     19  O   UNL     1       2.240  -1.026   3.256  0.00  0.00    -0.278 OA
ATOM     20  N   UNL     1       4.163  -0.215   2.503  0.00  0.00    -0.281 N 
ATOM     21  H   UNL     1       4.650   0.222   1.788  0.00  0.00    +0.155 HD
BRANCH  20  22
ATOM     22  C   UNL     1       4.820  -0.571   3.673  0.00  0.00    +0.089 A 
ATOM     23  C   UNL     1       6.154  -0.376   3.994  0.00  0.00    +0.080 A 
ATOM     24  C   UNL     1       6.582  -0.846   5.292  0.00  0.00    +0.028 A 
ATOM     25  C   UNL     1       5.631  -1.424   6.050  0.00  0.00    +0.048 A 
ATOM     26  S   UNL     1       4.179  -1.329   5.026  0.00  0.00    -0.081 S 
BRANCH  23  27
ATOM     27  C   UNL     1       7.062   0.258   3.086  0.00  0.00    +0.102 C 
ATOM     28  N   UNL     1       7.782   0.761   2.366  0.00  0.00    -0.191 NA
ENDBRANCH  23  27
ENDBRANCH  20  22
ENDBRANCH  17  18
ENDBRANCH  11  17
TORSDOF 6
