REMARK  Name = ZINC52860421
REMARK  4 active torsions:
REMARK  status: ('A' for Active; 'I' for Inactive)
REMARK    1  A    between atoms: C_3  and  S_11
REMARK    2  A    between atoms: C_4  and  C_8
REMARK    3  A    between atoms: S_11  and  C_12
REMARK    4  A    between atoms: N_16  and  C_17
REMARK                            x       y       z     vdW  Elec       q    Type
REMARK                         _______ _______ _______ _____ _____    ______ ____
ROOT
ATOM      1  C   UNL     1       0.704   0.219   1.188  0.00  0.00    +0.021 A 
ATOM      2  C   UNL     1       1.920   0.869   1.156  0.00  0.00    +0.017 A 
ATOM      3  C   UNL     1       2.409   1.373  -0.043  0.00  0.00    +0.026 A 
ATOM      4  C   UNL     1       1.660   1.218  -1.219  0.00  0.00    +0.027 A 
ATOM      5  C   UNL     1       0.431   0.558  -1.172  0.00  0.00    +0.032 A 
ATOM      6  C   UNL     1      -0.039   0.063   0.027  0.00  0.00    +0.042 A 
ATOM      7 CL   UNL     1      -1.568  -0.758   0.084  0.00  0.00    -0.084 Cl
ENDROOT
BRANCH   4   8
ATOM      8  C   UNL     1       2.168   1.750  -2.498  0.00  0.00    +0.095 C 
ATOM      9  N   UNL     1       3.364   1.371  -2.950  0.00  0.00    -0.387 N 
ATOM     10  N   UNL     1       1.431   2.608  -3.203  0.00  0.00    -0.345 N 
ATOM     11  H   UNL     1       3.868   0.691  -2.476  0.00  0.00    +0.157 HD
ATOM     12  H   UNL     1       0.561   2.884  -2.875  0.00  0.00    +0.144 HD
ATOM     13  H   UNL     1       1.766   2.958  -4.044  0.00  0.00    +0.144 HD
ATOM     14  H   UNL     1       3.731   1.776  -3.751  0.00  0.00    +0.157 HD
ENDBRANCH   4   8
BRANCH   3  15
ATOM     15  S   UNL     1       3.962   2.205  -0.086  0.00  0.00    -0.048 S 
BRANCH  15  16
ATOM     16  C   UNL     1       3.530   3.909  -0.199  0.00  0.00    +0.214 A 
ATOM     17  N   UNL     1       2.317   4.401  -0.324  0.00  0.00    -0.101 NA
ATOM     18  N   UNL     1       2.355   5.684  -0.379  0.00  0.00    -0.022 NA
ATOM     19  N   UNL     1       3.572   6.100  -0.294  0.00  0.00    -0.043 NA
ATOM     20  N   UNL     1       4.384   4.959  -0.169  0.00  0.00    -0.217 N 
BRANCH  20  21
ATOM     21  C   UNL     1       5.843   4.916  -0.036  0.00  0.00    +0.112 C 
ATOM     22  C   UNL     1       6.286   5.739   1.191  0.00  0.00    +0.027 C 
ATOM     23  C   UNL     1       7.608   6.409   0.741  0.00  0.00    +0.002 C 
ATOM     24  C   UNL     1       7.325   6.763  -0.740  0.00  0.00    +0.002 C 
ATOM     25  C   UNL     1       6.503   5.567  -1.264  0.00  0.00    +0.027 C 
ENDBRANCH  20  21
ENDBRANCH  15  16
ENDBRANCH   3  15
TORSDOF 4
