REMARK  Name = ZINC39636651
REMARK  9 active torsions:
REMARK  status: ('A' for Active; 'I' for Inactive)
REMARK    1  A    between atoms: C_1  and  C_2
REMARK    2  A    between atoms: C_5  and  C_39
REMARK    3  A    between atoms: C_6  and  C_8
REMARK    4  A    between atoms: C_8  and  N_9
REMARK    5  A    between atoms: C_10  and  C_12
REMARK    6  A    between atoms: C_23  and  C_25
REMARK    7  A    between atoms: C_25  and  O_26
REMARK    8  A    between atoms: O_26  and  C_27
REMARK    9  A    between atoms: C_37  and  C_38
REMARK                            x       y       z     vdW  Elec       q    Type
REMARK                         _______ _______ _______ _____ _____    ______ ____
ROOT
ATOM      1  C   UNL     1       3.085  -4.431   4.205  0.00  0.00    +0.100 C 
ATOM      2  C   UNL     1       3.539  -5.502   3.187  0.00  0.00    +0.121 C 
ATOM      3  N   UNL     1       4.348  -6.455   3.983  0.00  0.00    -0.297 N 
ATOM      4  C   UNL     1       3.623  -6.569   5.271  0.00  0.00    +0.115 C 
ATOM      5  C   UNL     1       3.141  -5.136   5.571  0.00  0.00    -0.004 C 
ATOM      6  C   UNL     1       1.754  -5.168   6.206  0.00  0.00    -0.010 C 
ATOM      7  C   UNL     1       1.846  -5.821   7.588  0.00  0.00    -0.082 C 
ATOM      8  N   UNL     1       2.774  -5.058   8.431  0.00  0.00    +0.379 N 
ATOM      9  C   UNL     1       4.126  -5.110   7.861  0.00  0.00    -0.082 C 
ATOM     10  C   UNL     1       4.131  -4.427   6.491  0.00  0.00    -0.010 C 
ATOM     11  C   UNL     1       5.486  -7.078   3.618  0.00  0.00    +0.253 C 
ATOM     12  O   UNL     1       6.036  -7.837   4.387  0.00  0.00    -0.272 OA
ATOM     13  H   UNL     1       2.469  -4.098   8.482  0.00  0.00    -0.086 HD
ATOM     14  H   UNL     1       2.787  -5.454   9.359  0.00  0.00    -0.086 HD
ENDROOT
BRANCH   1  16
ATOM     15  N   UNL     1       1.283  -2.737   4.232  0.00  0.00    -0.311 N 
ATOM     16  C   UNL     1       1.679  -3.983   3.903  0.00  0.00    +0.218 C 
ATOM     17  O   UNL     1       0.902  -4.743   3.364  0.00  0.00    -0.275 OA
ATOM     18  H   UNL     1       1.904  -2.129   4.664  0.00  0.00    +0.149 HD
BRANCH  15  19
ATOM     19  C   UNL     1      -0.084  -2.301   3.939  0.00  0.00    +0.139 C 
BRANCH  19  25
ATOM     20  C   UNL     1      -1.764   0.963   7.340  0.00  0.00    +0.044 C 
ATOM     21  C   UNL     1      -1.073   0.682   6.030  0.00  0.00    -0.050 A 
ATOM     22  C   UNL     1      -0.609   1.728   5.255  0.00  0.00    +0.003 A 
ATOM     23  C   UNL     1       0.024   1.471   4.054  0.00  0.00    +0.004 A 
ATOM     24  C   UNL     1       0.194   0.166   3.628  0.00  0.00    -0.046 A 
ATOM     25  C   UNL     1      -0.269  -0.880   4.403  0.00  0.00    -0.027 A 
ATOM     26  C   UNL     1      -0.899  -0.622   5.607  0.00  0.00    +0.008 A 
ATOM     27  C   UNL     1       0.883  -0.115   2.318  0.00  0.00    +0.044 C 
ENDBRANCH  19  25
ENDBRANCH  15  19
ENDBRANCH   1  16
BRANCH  11  28
ATOM     28  C   UNL     1       6.076  -6.830   2.253  0.00  0.00    +0.324 C 
BRANCH  28  29
ATOM     29  O   UNL     1       7.272  -7.598   2.104  0.00  0.00    -0.479 OA
BRANCH  29  30
ATOM     30  C   UNL     1       7.933  -7.489   0.921  0.00  0.00    +0.164 A 
ATOM     31  C   UNL     1       7.445  -6.658  -0.071  0.00  0.00    +0.049 A 
ATOM     32  C   UNL     1       8.110  -6.538  -1.282  0.00  0.00    +0.004 A 
ATOM     33  C   UNL     1       9.267  -7.246  -1.515  0.00  0.00    +0.012 A 
ATOM     34  C   UNL     1       9.775  -8.091  -0.522  0.00  0.00    +0.024 A 
ATOM     35  C   UNL     1       9.106  -8.210   0.708  0.00  0.00    +0.181 A 
ATOM     36  O   UNL     1       9.601  -9.023   1.666  0.00  0.00    -0.418 OA
ATOM     37  C   UNL     1      10.729  -9.724   1.477  0.00  0.00    +0.338 A 
ATOM     38  O   UNL     1      11.137 -10.444   2.370  0.00  0.00    -0.245 OA
ATOM     39  C   UNL     1      11.455  -9.647   0.269  0.00  0.00    +0.096 A 
ATOM     40  C   UNL     1      11.005  -8.858  -0.740  0.00  0.00    -0.033 A 
ATOM     41  C   UNL     1      11.760  -8.758  -2.040  0.00  0.00    +0.045 C 
ENDBRANCH  29  30
ENDBRANCH  28  29
ENDBRANCH  11  28
TORSDOF 6
