REMARK  Name = ZINC14783893
REMARK  12 active torsions:
REMARK  status: ('A' for Active; 'I' for Inactive)
REMARK    1  A    between atoms: C_1  and  C_2
REMARK    2  A    between atoms: C_2  and  O_3
REMARK    3  A    between atoms: O_3  and  C_4
REMARK    4  A    between atoms: C_9  and  C_10
REMARK    5  A    between atoms: N_12  and  C_13
REMARK    6  A    between atoms: C_13  and  N_15
REMARK    7  A    between atoms: N_15  and  C_16
REMARK    8  A    between atoms: C_21  and  C_22
REMARK    9  A    between atoms: N_24  and  C_25
REMARK   10  A    between atoms: C_25  and  C_26
REMARK   11  A    between atoms: C_26  and  C_27
REMARK   12  A    between atoms: C_27  and  O_28
REMARK                            x       y       z     vdW  Elec       q    Type
REMARK                         _______ _______ _______ _____ _____    ______ ____
ROOT
ATOM      1  N   UNL     1       3.507   7.354  -0.011  0.00  0.00    -0.296 N 
ATOM      2  H   UNL     1       2.686   7.812  -0.250  0.00  0.00    +0.154 HD
ENDROOT
BRANCH   1   3
ATOM      3  C   UNL     1       4.697   8.069   0.095  0.00  0.00    +0.045 A 
ATOM      4  C   UNL     1       5.853   7.594  -0.509  0.00  0.00    +0.024 A 
ATOM      5  C   UNL     1       7.030   8.307  -0.406  0.00  0.00    +0.002 A 
ATOM      6  C   UNL     1       7.071   9.494   0.307  0.00  0.00    +0.001 A 
ATOM      7  C   UNL     1       5.935   9.979   0.918  0.00  0.00    +0.015 A 
ATOM      8  C   UNL     1       4.735   9.271   0.818  0.00  0.00    +0.058 A 
BRANCH   8   9
ATOM      9  C   UNL     1       3.515   9.784   1.470  0.00  0.00    +0.246 C 
ATOM     10  O   UNL     1       2.498   9.117   1.467  0.00  0.00    -0.270 OA
ATOM     11  N   UNL     1       3.527  10.991   2.069  0.00  0.00    -0.311 N 
ATOM     12  H   UNL     1       4.339  11.523   2.071  0.00  0.00    +0.149 HD
BRANCH  11  13
ATOM     13  C   UNL     1       2.316  11.500   2.716  0.00  0.00    +0.107 C 
BRANCH  13  14
ATOM     14  C   UNL     1       2.599  12.880   3.313  0.00  0.00    +0.046 C 
BRANCH  14  15
ATOM     15  C   UNL     1       1.333  13.412   3.990  0.00  0.00    +0.157 C 
BRANCH  15  16
ATOM     16  O   UNL     1       1.597  14.701   4.548  0.00  0.00    -0.395 OA
ATOM     17  H   UNL     1       0.837  15.100   4.993  0.00  0.00    +0.209 HD
ENDBRANCH  15  16
ENDBRANCH  14  15
ENDBRANCH  13  14
ENDBRANCH  11  13
ENDBRANCH   8   9
ENDBRANCH   1   3
BRANCH   1  18
ATOM     18  C   UNL     1       3.496   6.026   0.218  0.00  0.00    +0.141 C 
ATOM     19  S   UNL     1       4.964   5.198   0.521  0.00  0.00    -0.018 S 
BRANCH  18  22
ATOM     20  C   UNL     1       2.320   4.022   0.440  0.00  0.00    +0.253 C 
ATOM     21  O   UNL     1       3.361   3.434   0.654  0.00  0.00    -0.270 OA
ATOM     22  N   UNL     1       2.330   5.350   0.210  0.00  0.00    -0.263 N 
ATOM     23  H   UNL     1       1.499   5.820   0.039  0.00  0.00    +0.157 HD
BRANCH  20  29
ATOM     24  C   UNL     1       1.028   1.902   0.669  0.00  0.00    +0.133 A 
ATOM     25  C   UNL     1      -0.177   1.216   0.657  0.00  0.00    +0.047 A 
ATOM     26  C   UNL     1      -1.355   1.890   0.407  0.00  0.00    +0.019 A 
ATOM     27  C   UNL     1      -1.345   3.257   0.176  0.00  0.00    +0.019 A 
ATOM     28  C   UNL     1      -0.156   3.955   0.184  0.00  0.00    +0.032 A 
ATOM     29  C   UNL     1       1.044   3.283   0.431  0.00  0.00    +0.080 A 
ATOM     30 BR   UNL     1      -2.969   4.168  -0.158  0.00  0.00    -0.050 Br
BRANCH  24  31
ATOM     31  O   UNL     1       2.187   1.238   0.909  0.00  0.00    -0.491 OA
BRANCH  31  33
ATOM     32  C   UNL     1       3.490  -0.738   1.393  0.00  0.00    +0.048 C 
ATOM     33  C   UNL     1       2.093  -0.168   1.143  0.00  0.00    +0.226 C 
ENDBRANCH  31  33
ENDBRANCH  24  31
ENDBRANCH  20  29
ENDBRANCH  18  22
ENDBRANCH   1  18
TORSDOF 11
