REMARK  Name = ZINC38659770
REMARK  10 active torsions:
REMARK  status: ('A' for Active; 'I' for Inactive)
REMARK    1  A    between atoms: C_1  and  O_2
REMARK    2  A    between atoms: O_2  and  C_3
REMARK    3  A    between atoms: C_6  and  O_34
REMARK    4  A    between atoms: C_7  and  C_9
REMARK    5  A    between atoms: C_14  and  O_23
REMARK    6  A    between atoms: C_18  and  N_22
REMARK    7  A    between atoms: C_19  and  C_20
REMARK    8  A    between atoms: O_23  and  C_24
REMARK    9  A    between atoms: C_24  and  C_26
REMARK   10  A    between atoms: O_34  and  C_35
REMARK                            x       y       z     vdW  Elec       q    Type
REMARK                         _______ _______ _______ _____ _____    ______ ____
ROOT
ATOM      1  C   UNL     1       1.435  -4.090   2.219  0.00  0.00    +0.102 C 
ATOM      2  C   UNL     1       2.153  -4.615   1.004  0.00  0.00    +0.008 A 
ATOM      3  C   UNL     1       3.521  -4.441   0.892  0.00  0.00    +0.012 A 
ATOM      4  C   UNL     1       4.195  -4.916  -0.215  0.00  0.00    +0.047 A 
ATOM      5  C   UNL     1       3.500  -5.572  -1.222  0.00  0.00    +0.135 A 
ATOM      6  C   UNL     1       2.131  -5.748  -1.113  0.00  0.00    +0.093 A 
ATOM      7  C   UNL     1       1.454  -5.269   0.001  0.00  0.00    +0.138 A 
ATOM      8  O   UNL     1       0.113  -5.449   0.092  0.00  0.00    -0.441 OA
ATOM      9  C   UNL     1      -0.496  -5.357   1.286  0.00  0.00    +0.199 C 
ATOM     10  C   UNL     1       0.078  -4.725   2.332  0.00  0.00    +0.098 C 
ENDROOT
BRANCH   1  15
ATOM     11  C   UNL     1       0.429  -0.683   0.929  0.00  0.00    +0.121 A 
ATOM     12  C   UNL     1       0.993   0.152   1.882  0.00  0.00    +0.049 A 
ATOM     13  C   UNL     1       1.699  -0.385   2.941  0.00  0.00    +0.049 A 
ATOM     14  C   UNL     1       1.843  -1.760   3.051  0.00  0.00    +0.124 A 
ATOM     15  C   UNL     1       1.279  -2.595   2.099  0.00  0.00    +0.010 A 
ATOM     16  C   UNL     1       0.568  -2.058   1.043  0.00  0.00    +0.053 A 
BRANCH  11  18
ATOM     17  C   UNL     1      -0.369   1.271  -0.167  0.00  0.00    +0.277 C 
ATOM     18  O   UNL     1      -0.266  -0.153  -0.113  0.00  0.00    -0.495 OA
ENDBRANCH  11  18
BRANCH  14  19
ATOM     19  O   UNL     1       2.539  -2.290   4.093  0.00  0.00    -0.495 OA
ATOM     20  C   UNL     1       3.094  -1.371   5.036  0.00  0.00    +0.277 C 
ENDBRANCH  14  19
ENDBRANCH   1  15
BRANCH   9  21
ATOM     21  N   UNL     1      -1.738  -5.920   1.445  0.00  0.00    -0.328 N 
ATOM     22  H   UNL     1      -2.163  -6.376   0.702  0.00  0.00    +0.145 HD
ATOM     23  H   UNL     1      -2.191  -5.862   2.301  0.00  0.00    +0.145 HD
ENDBRANCH   9  21
BRANCH  10  24
ATOM     24  C   UNL     1      -0.624  -4.661   3.578  0.00  0.00    +0.101 C 
ATOM     25  N   UNL     1      -1.182  -4.610   4.567  0.00  0.00    -0.191 NA
ENDBRANCH  10  24
BRANCH   5  26
ATOM     26  O   UNL     1       4.163  -6.040  -2.312  0.00  0.00    -0.422 OA
BRANCH  26  27
ATOM     27  C   UNL     1       4.999  -7.083  -2.144  0.00  0.00    +0.346 C 
ATOM     28  O   UNL     1       5.065  -7.643  -1.068  0.00  0.00    -0.244 OA
BRANCH  27  29
ATOM     29  C   UNL     1       5.836  -7.546  -3.268  0.00  0.00    +0.078 A 
ATOM     30  C   UNL     1       5.767  -6.902  -4.506  0.00  0.00    +0.018 A 
ATOM     31  C   UNL     1       6.551  -7.339  -5.552  0.00  0.00    +0.021 A 
ATOM     32  C   UNL     1       7.406  -8.416  -5.379  0.00  0.00    +0.042 A 
ATOM     33  C   UNL     1       7.479  -9.060  -4.156  0.00  0.00    +0.040 A 
ATOM     34  C   UNL     1       6.704  -8.628  -3.098  0.00  0.00    +0.056 A 
ATOM     35 CL   UNL     1       6.803  -9.431  -1.562  0.00  0.00    -0.083 Cl
ATOM     36 CL   UNL     1       8.388  -8.960  -6.703  0.00  0.00    -0.083 Cl
ENDBRANCH  27  29
ENDBRANCH  26  27
ENDBRANCH   5  26
TORSDOF 8
