REMARK  Name = ZINC09726584
REMARK  7 active torsions:
REMARK  status: ('A' for Active; 'I' for Inactive)
REMARK    1  A    between atoms: C_1  and  C_2
REMARK    2  A    between atoms: C_5  and  S_27
REMARK    3  A    between atoms: C_7  and  N_8
REMARK    4  A    between atoms: C_9  and  C_11
REMARK    5  A    between atoms: C_11  and  N_68
REMARK    6  A    between atoms: C_15  and  C_17
REMARK    7  A    between atoms: S_27  and  N_30
REMARK                            x       y       z     vdW  Elec       q    Type
REMARK                         _______ _______ _______ _____ _____    ______ ____
ROOT
ATOM      1  N   UNL     1      -3.221   3.888  -3.796  0.00  0.00    -0.287 N 
ATOM      2  C   UNL     1      -2.846   3.010  -2.845  0.00  0.00    +0.201 C 
ATOM      3  O   UNL     1      -2.971   1.819  -3.036  0.00  0.00    -0.278 OA
ATOM      4  H   UNL     1      -3.197   4.840  -3.614  0.00  0.00    +0.155 HD
ENDROOT
BRANCH   1  11
ATOM      5  C   UNL     1      -4.944   5.553  -5.331  0.00  0.00    +0.045 C 
ATOM      6  C   UNL     1      -4.488   4.206  -5.828  0.00  0.00    -0.029 A 
ATOM      7  C   UNL     1      -4.905   3.746  -7.062  0.00  0.00    +0.007 A 
ATOM      8  C   UNL     1      -4.487   2.510  -7.519  0.00  0.00    +0.029 A 
ATOM      9  C   UNL     1      -3.649   1.730  -6.743  0.00  0.00    +0.107 A 
ATOM     10  C   UNL     1      -3.223   2.187  -5.511  0.00  0.00    +0.052 A 
ATOM     11  C   UNL     1      -3.646   3.425  -5.047  0.00  0.00    +0.038 A 
BRANCH   9  12
ATOM     12  S   UNL     1      -3.119   0.156  -7.329  0.00  0.00    +0.061 S 
ATOM     13  O   UNL     1      -2.780  -0.612  -6.182  0.00  0.00    -0.153 OA
ATOM     14  O   UNL     1      -4.090  -0.274  -8.273  0.00  0.00    -0.153 OA
BRANCH  12  15
ATOM     15  N   UNL     1      -1.714   0.394  -8.171  0.00  0.00    -0.177 NA
ATOM     16  C   UNL     1      -1.743   0.668  -9.615  0.00  0.00    +0.109 C 
ATOM     17  C   UNL     1      -0.954   1.959  -9.883  0.00  0.00    +0.017 C 
ATOM     18  C   UNL     1       0.453   1.821  -9.299  0.00  0.00    +0.003 C 
ATOM     19  C   UNL     1       0.361   1.620  -7.784  0.00  0.00    +0.017 C 
ATOM     20  C   UNL     1      -0.413   0.331  -7.491  0.00  0.00    +0.109 C 
ENDBRANCH  12  15
ENDBRANCH   9  12
ENDBRANCH   1  11
BRANCH   2  21
ATOM     21  C   UNL     1      -2.272   3.509  -1.544  0.00  0.00    +0.020 C 
BRANCH  21  26
ATOM     22  C   UNL     1      -0.790   1.611  -1.218  0.00  0.00    -0.077 C 
ATOM     23  C   UNL     1       0.002   1.079  -0.009  0.00  0.00    -0.020 C 
ATOM     24  C   UNL     1      -0.753   1.604   1.234  0.00  0.00    -0.013 C 
ATOM     25  C   UNL     1      -1.539   2.818   0.673  0.00  0.00    -0.037 C 
ATOM     26  N   UNL     1      -1.927   2.349  -0.667  0.00  0.00    +0.390 N 
ATOM     27  H   UNL     1      -2.742   1.728  -0.595  0.00  0.00    -0.080 HD
BRANCH  25  28
ATOM     28  C   UNL     1      -2.750   3.106   1.522  0.00  0.00    -0.057 A 
ATOM     29  C   UNL     1      -3.855   2.278   1.451  0.00  0.00    +0.006 A 
ATOM     30  C   UNL     1      -4.967   2.537   2.230  0.00  0.00    +0.049 A 
ATOM     31  C   UNL     1      -4.980   3.634   3.079  0.00  0.00    +0.162 A 
ATOM     32  C   UNL     1      -3.870   4.468   3.148  0.00  0.00    +0.162 A 
ATOM     33  C   UNL     1      -2.757   4.200   2.365  0.00  0.00    +0.051 A 
ATOM     34  O   UNL     1      -3.859   5.545   3.980  0.00  0.00    -0.485 OA
ATOM     35  C   UNL     1      -5.128   5.994   4.468  0.00  0.00    +0.270 C 
ATOM     36  C   UNL     1      -5.921   4.769   4.944  0.00  0.00    +0.270 C 
ATOM     37  O   UNL     1      -6.086   3.882   3.832  0.00  0.00    -0.485 OA
ENDBRANCH  25  28
ENDBRANCH  21  26
ENDBRANCH   2  21
TORSDOF 6
