REMARK  Name = ZINC51360541
REMARK  1 active torsions:
REMARK  status: ('A' for Active; 'I' for Inactive)
REMARK    1  A    between atoms: C_3  and  C_7
REMARK                            x       y       z     vdW  Elec       q    Type
REMARK                         _______ _______ _______ _____ _____    ______ ____
ROOT
ATOM      1  C   UNL     1       3.424   0.609  -0.760  0.00  0.00    +0.061 C 
ATOM      2  C   UNL     1       4.291   1.799  -1.222  0.00  0.00    +0.022 C 
ATOM      3  C   UNL     1       5.670   1.141  -1.490  0.00  0.00    +0.021 C 
ATOM      4  C   UNL     1       5.252  -0.242  -2.049  0.00  0.00    +0.107 C 
ATOM      5  N   UNL     1       4.054  -0.618  -1.270  0.00  0.00    -0.308 N 
ATOM      6  C   UNL     1       3.595  -1.918  -1.054  0.00  0.00    +0.207 A 
ATOM      7  C   UNL     1       4.247  -3.061  -1.715  0.00  0.00    +0.294 A 
ATOM      8  O   UNL     1       5.195  -2.885  -2.458  0.00  0.00    -0.264 OA
ATOM      9  N   UNL     1       3.780  -4.305  -1.484  0.00  0.00    -0.271 N 
ATOM     10  H   UNL     1       4.200  -5.067  -1.913  0.00  0.00    +0.174 HD
ATOM     11  C   UNL     1       2.732  -4.490  -0.660  0.00  0.00    +0.343 A 
ATOM     12  O   UNL     1       2.321  -5.618  -0.461  0.00  0.00    -0.245 OA
ATOM     13  N   UNL     1       2.132  -3.451  -0.054  0.00  0.00    -0.226 N 
ATOM     14  H   UNL     1       1.379  -3.612   0.536  0.00  0.00    +0.194 HD
ATOM     15  N   UNL     1       2.583  -2.141  -0.257  0.00  0.00    -0.149 NA
ENDROOT
BRANCH   1  18
ATOM     16  C   UNL     1       0.739   1.431  -3.248  0.00  0.00    -0.021 C 
ATOM     17  C   UNL     1       2.043   0.679  -2.876  0.00  0.00    -0.016 C 
ATOM     18  C   UNL     1       2.010   0.743  -1.328  0.00  0.00    -0.051 C 
ATOM     19  N   UNL     1       1.453   2.077  -1.018  0.00  0.00    +0.382 N 
ATOM     20  C   UNL     1       0.650   2.530  -2.169  0.00  0.00    -0.082 C 
ATOM     21  H   UNL     1       0.868   2.018  -0.198  0.00  0.00    -0.085 HD
ATOM     22  H   UNL     1       2.205   2.729  -0.851  0.00  0.00    -0.085 HD
ENDBRANCH   1  18
TORSDOF 1
