REMARK  Name = ZINC03012086
REMARK  10 active torsions:
REMARK  status: ('A' for Active; 'I' for Inactive)
REMARK    1  A    between atoms: C_1  and  O_2
REMARK    2  A    between atoms: O_2  and  C_3
REMARK    3  A    between atoms: C_6  and  C_11
REMARK    4  A    between atoms: C_8  and  O_9
REMARK    5  A    between atoms: O_9  and  C_10
REMARK    6  A    between atoms: C_14  and  C_34
REMARK    7  A    between atoms: C_19  and  C_21
REMARK    8  A    between atoms: N_23  and  C_24
REMARK    9  A    between atoms: C_27  and  O_31
REMARK   10  A    between atoms: O_31  and  C_32
REMARK                            x       y       z     vdW  Elec       q    Type
REMARK                         _______ _______ _______ _____ _____    ______ ____
ROOT
ATOM      1  C   UNL     1      -5.011  -2.642   0.043  0.00  0.00    +0.104 C 
ATOM      2  C   UNL     1      -5.585  -2.652   1.464  0.00  0.00    +0.063 C 
ATOM      3  C   UNL     1      -5.685  -1.218   1.997  0.00  0.00    +0.215 C 
ATOM      4  N   UNL     1      -6.362  -0.387   0.998  0.00  0.00    -0.238 N 
ATOM      5  C   UNL     1      -6.477  -0.728  -0.320  0.00  0.00    +0.119 A 
ATOM      6  C   UNL     1      -7.155   0.252  -0.949  0.00  0.00    +0.078 A 
ATOM      7  C   UNL     1      -7.471   1.238   0.012  0.00  0.00    +0.149 A 
ATOM      8  N   UNL     1      -6.990   0.845   1.179  0.00  0.00    -0.164 NA
ATOM      9  N   UNL     1      -5.945  -1.916  -0.840  0.00  0.00    -0.322 N 
ATOM     10  H   UNL     1      -6.176  -2.243  -1.723  0.00  0.00    +0.148 HD
ENDROOT
BRANCH   1  14
ATOM     11  C   UNL     1      -1.216  -0.670   0.044  0.00  0.00    +0.162 A 
ATOM     12  C   UNL     1      -2.385   0.072   0.048  0.00  0.00    +0.050 A 
ATOM     13  C   UNL     1      -3.611  -0.568   0.048  0.00  0.00    +0.009 A 
ATOM     14  C   UNL     1      -3.672  -1.949   0.043  0.00  0.00    -0.024 A 
ATOM     15  C   UNL     1      -2.509  -2.696   0.040  0.00  0.00    +0.054 A 
ATOM     16  C   UNL     1      -1.278  -2.061   0.034  0.00  0.00    +0.162 A 
BRANCH  11  18
ATOM     17  C   UNL     1      -0.022   1.387   0.055  0.00  0.00    +0.277 C 
ATOM     18  O   UNL     1      -0.009  -0.042   0.044  0.00  0.00    -0.491 OA
ENDBRANCH  11  18
BRANCH  16  19
ATOM     19  O   UNL     1      -0.133  -2.794   0.025  0.00  0.00    -0.491 OA
ATOM     20  C   UNL     1      -0.273  -4.216   0.015  0.00  0.00    +0.277 C 
ENDBRANCH  16  19
ENDBRANCH   1  14
BRANCH   7  21
ATOM     21  C   UNL     1      -8.210   2.492  -0.242  0.00  0.00    +0.268 C 
ATOM     22  O   UNL     1      -8.606   2.747  -1.364  0.00  0.00    -0.268 OA
ATOM     23  N   UNL     1      -8.447   3.352   0.768  0.00  0.00    -0.280 N 
ATOM     24  H   UNL     1      -8.191   3.118   1.674  0.00  0.00    +0.155 HD
BRANCH  23  25
ATOM     25  C   UNL     1      -9.062   4.583   0.509  0.00  0.00    +0.035 A 
ATOM     26  C   UNL     1      -8.692   5.710   1.233  0.00  0.00    +0.027 A 
ATOM     27  C   UNL     1      -9.298   6.924   0.979  0.00  0.00    +0.049 A 
ATOM     28  C   UNL     1     -10.276   7.019  -0.000  0.00  0.00    +0.138 A 
ATOM     29  C   UNL     1     -10.647   5.894  -0.724  0.00  0.00    +0.084 A 
ATOM     30  C   UNL     1     -10.037   4.680  -0.474  0.00  0.00    +0.047 A 
ATOM     31 CL   UNL     1     -11.872   6.015  -1.948  0.00  0.00    -0.080 Cl
BRANCH  28  32
ATOM     32  O   UNL     1     -10.873   8.216  -0.250  0.00  0.00    -0.494 OA
ATOM     33  C   UNL     1     -10.444   9.331   0.533  0.00  0.00    +0.277 C 
ENDBRANCH  28  32
ENDBRANCH  23  25
ENDBRANCH   7  21
BRANCH   3  34
ATOM     34  C   UNL     1      -6.485  -1.210   3.301  0.00  0.00    +0.412 C 
ATOM     35  F   UNL     1      -5.841  -2.015   4.248  0.00  0.00    -0.168 F 
ATOM     36  F   UNL     1      -6.575   0.099   3.786  0.00  0.00    -0.168 F 
ATOM     37  F   UNL     1      -7.771  -1.708   3.063  0.00  0.00    -0.168 F 
ENDBRANCH   3  34
TORSDOF 7
