REMARK  Name = ZINC02437985
REMARK  8 active torsions:
REMARK  status: ('A' for Active; 'I' for Inactive)
REMARK    1  A    between atoms: C_1  and  C_2
REMARK    2  A    between atoms: C_5  and  N_9
REMARK    3  A    between atoms: C_10  and  C_12
REMARK    4  A    between atoms: C_12  and  S_13
REMARK    5  A    between atoms: S_13  and  C_14
REMARK    6  A    between atoms: C_17  and  C_22
REMARK    7  A    between atoms: N_18  and  C_19
REMARK    8  A    between atoms: C_19  and  C_20
REMARK                            x       y       z     vdW  Elec       q    Type
REMARK                         _______ _______ _______ _____ _____    ______ ____
ROOT
ATOM      1  C   UNL     1       6.036  -0.782  -0.569  0.00  0.00    +0.173 C 
ENDROOT
BRANCH   1   3
ATOM      2  N   UNL     1       3.623  -0.651  -0.037  0.00  0.00    -0.283 N 
ATOM      3  C   UNL     1       4.742  -0.019  -0.444  0.00  0.00    +0.228 C 
ATOM      4  O   UNL     1       4.708   1.164  -0.709  0.00  0.00    -0.275 OA
ATOM      5  H   UNL     1       3.666  -1.579   0.244  0.00  0.00    +0.155 HD
BRANCH   2  10
ATOM      6  C   UNL     1      -1.329   2.119   0.024  0.00  0.00    +0.044 C 
ATOM      7  C   UNL     1      -0.016   1.379   0.010  0.00  0.00    -0.048 A 
ATOM      8  C   UNL     1       0.787   1.377   1.135  0.00  0.00    +0.020 A 
ATOM      9  C   UNL     1       1.994   0.705   1.123  0.00  0.00    +0.040 A 
ATOM     10  C   UNL     1       2.401   0.030  -0.021  0.00  0.00    +0.062 A 
ATOM     11  C   UNL     1       1.591   0.035  -1.150  0.00  0.00    +0.040 A 
ATOM     12  C   UNL     1       0.385   0.709  -1.131  0.00  0.00    +0.020 A 
ATOM     13 BR   UNL     1       2.139  -0.881  -2.712  0.00  0.00    -0.048 Br
ATOM     14 BR   UNL     1       3.092   0.702   2.663  0.00  0.00    -0.048 Br
ENDBRANCH   2  10
ENDBRANCH   1   3
BRANCH   1  15
ATOM     15  S   UNL     1       7.343   0.336  -1.132  0.00  0.00    -0.077 S 
BRANCH  15  16
ATOM     16  C   UNL     1       8.701  -0.786  -1.189  0.00  0.00    +0.193 A 
ATOM     17  N   UNL     1       8.670  -2.063  -0.881  0.00  0.00    -0.122 NA
ATOM     18  N   UNL     1       9.834  -2.585  -1.038  0.00  0.00    -0.125 NA
ATOM     19  C   UNL     1      10.684  -1.669  -1.447  0.00  0.00    +0.201 A 
ATOM     20  N   UNL     1       9.983  -0.488  -1.556  0.00  0.00    -0.296 N 
BRANCH  19  21
ATOM     21  C   UNL     1      12.114  -1.868  -1.734  0.00  0.00    +0.172 A 
ATOM     22  C   UNL     1      12.864  -2.941  -1.355  0.00  0.00    +0.053 A 
ATOM     23  C   UNL     1      14.166  -2.716  -1.841  0.00  0.00    +0.042 A 
ATOM     24  C   UNL     1      14.152  -1.529  -2.478  0.00  0.00    +0.196 A 
ATOM     25  O   UNL     1      12.911  -1.019  -2.412  0.00  0.00    -0.460 OA
ENDBRANCH  19  21
BRANCH  20  26
ATOM     26  C   UNL     1      10.504   0.815  -1.978  0.00  0.00    +0.152 C 
BRANCH  26  27
ATOM     27  C   UNL     1      10.997   1.573  -0.773  0.00  0.00    -0.013 C 
ATOM     28  C   UNL     1      12.225   2.027  -0.743  0.00  0.00    +0.005 C 
ENDBRANCH  26  27
ENDBRANCH  20  26
ENDBRANCH  15  16
ENDBRANCH   1  15
TORSDOF 7
