REMARK  Name = ZINC65469029
REMARK  13 active torsions:
REMARK  status: ('A' for Active; 'I' for Inactive)
REMARK    1  A    between atoms: C_1  and  C_2
REMARK    2  A    between atoms: C_5  and  C_8
REMARK    3  A    between atoms: C_8  and  C_9
REMARK    4  A    between atoms: C_8  and  N_27
REMARK    5  A    between atoms: C_9  and  N_10
REMARK    6  A    between atoms: N_13  and  C_14
REMARK    7  A    between atoms: C_14  and  C_15
REMARK    8  A    between atoms: N_17  and  C_18
REMARK    9  A    between atoms: C_19  and  C_26
REMARK   10  A    between atoms: C_21  and  C_25
REMARK   11  A    between atoms: C_23  and  C_24
REMARK   12  A    between atoms: N_27  and  C_28
REMARK   13  A    between atoms: N_27  and  C_29
REMARK                            x       y       z     vdW  Elec       q    Type
REMARK                         _______ _______ _______ _____ _____    ______ ____
ROOT
ATOM      1  N   UNL     1      -1.325  -6.757   3.029  0.00  0.00    -0.301 N 
ATOM      2  C   UNL     1      -2.005  -7.632   2.262  0.00  0.00    +0.300 C 
ATOM      3  O   UNL     1      -2.919  -7.243   1.561  0.00  0.00    -0.253 OA
ATOM      4  N   UNL     1      -1.671  -8.937   2.271  0.00  0.00    -0.291 N 
ATOM      5  H   UNL     1      -0.596  -7.067   3.588  0.00  0.00    +0.150 HD
ATOM      6  H   UNL     1      -0.941  -9.248   2.830  0.00  0.00    +0.151 HD
ENDROOT
BRANCH   1   7
ATOM      7  C   UNL     1      -1.688  -5.338   3.019  0.00  0.00    +0.095 C 
BRANCH   7   8
ATOM      8  C   UNL     1      -0.685  -4.549   3.864  0.00  0.00    -0.021 C 
BRANCH   8  13
ATOM      9  C   UNL     1       4.523  -4.766   1.370  0.00  0.00    +0.044 C 
ATOM     10  C   UNL     1       3.165  -4.710   2.021  0.00  0.00    -0.050 A 
ATOM     11  C   UNL     1       2.873  -5.542   3.085  0.00  0.00    +0.003 A 
ATOM     12  C   UNL     1       1.627  -5.490   3.681  0.00  0.00    +0.002 A 
ATOM     13  C   UNL     1       0.673  -4.605   3.214  0.00  0.00    -0.059 A 
ATOM     14  C   UNL     1       0.966  -3.772   2.151  0.00  0.00    +0.002 A 
ATOM     15  C   UNL     1       2.213  -3.821   1.557  0.00  0.00    +0.003 A 
ENDBRANCH   8  13
BRANCH   8  16
ATOM     16  N   UNL     1      -1.123  -3.150   3.965  0.00  0.00    +0.382 N 
ATOM     17  C   UNL     1      -2.423  -3.091   4.646  0.00  0.00    -0.096 C 
ATOM     18  C   UNL     1      -0.133  -2.381   4.731  0.00  0.00    -0.096 C 
ATOM     19  H   UNL     1      -1.210  -2.758   3.039  0.00  0.00    -0.082 HD
ENDBRANCH   8  16
ENDBRANCH   7   8
ENDBRANCH   1   7
BRANCH   4  20
ATOM     20  C   UNL     1      -2.409  -9.888   1.436  0.00  0.00    +0.202 C 
BRANCH  20  21
ATOM     21  C   UNL     1      -1.843 -11.271   1.629  0.00  0.00    +0.234 C 
ATOM     22  O   UNL     1      -0.913 -11.446   2.388  0.00  0.00    -0.274 OA
ATOM     23  N   UNL     1      -2.369 -12.315   0.957  0.00  0.00    -0.284 N 
ATOM     24  H   UNL     1      -3.156 -12.188   0.404  0.00  0.00    +0.155 HD
BRANCH  23  25
ATOM     25  C   UNL     1      -1.780 -13.580   1.057  0.00  0.00    +0.039 A 
ATOM     26  C   UNL     1      -2.556 -14.685   1.381  0.00  0.00    -0.029 A 
ATOM     27  C   UNL     1      -1.971 -15.932   1.479  0.00  0.00    +0.008 A 
ATOM     28  C   UNL     1      -0.615 -16.082   1.254  0.00  0.00    -0.050 A 
ATOM     29  C   UNL     1       0.161 -14.983   0.932  0.00  0.00    +0.008 A 
ATOM     30  C   UNL     1      -0.419 -13.734   0.826  0.00  0.00    -0.029 A 
ATOM     31  C   UNL     1       0.426 -12.538   0.468  0.00  0.00    +0.045 C 
ATOM     32  C   UNL     1       0.020 -17.444   1.362  0.00  0.00    +0.044 C 
ATOM     33  C   UNL     1      -4.034 -14.523   1.626  0.00  0.00    +0.045 C 
ENDBRANCH  23  25
ENDBRANCH  20  21
ENDBRANCH   4  20
TORSDOF 7
