REMARK  Name = ZINC02167203
REMARK  12 active torsions:
REMARK  status: ('A' for Active; 'I' for Inactive)
REMARK    1  A    between atoms: C_1  and  O_2
REMARK    2  A    between atoms: O_2  and  C_3
REMARK    3  A    between atoms: C_5  and  C_13
REMARK    4  A    between atoms: C_7  and  O_11
REMARK    5  A    between atoms: C_8  and  O_9
REMARK    6  A    between atoms: O_9  and  C_10
REMARK    7  A    between atoms: O_11  and  C_12
REMARK    8  A    between atoms: N_15  and  N_16
REMARK    9  A    between atoms: C_17  and  C_19
REMARK   10  A    between atoms: C_21  and  O_27
REMARK   11  A    between atoms: C_22  and  O_26
REMARK   12  A    between atoms: C_23  and  O_25
REMARK                            x       y       z     vdW  Elec       q    Type
REMARK                         _______ _______ _______ _____ _____    ______ ____
ROOT
ATOM      1  C   UNL     1       0.193   6.044  -0.450  0.00  0.00    +0.260 C 
ATOM      2  O   UNL     1       0.752   5.593  -1.431  0.00  0.00    -0.269 OA
ATOM      3  N   UNL     1       0.087   7.377  -0.287  0.00  0.00    -0.230 N 
ATOM      4  H   UNL     1      -0.359   7.736   0.496  0.00  0.00    +0.173 HD
ENDROOT
BRANCH   1   7
ATOM      5  C   UNL     1      -0.787   2.893   1.346  0.00  0.00    +0.166 A 
ATOM      6  C   UNL     1      -0.260   3.747   0.396  0.00  0.00    +0.062 A 
ATOM      7  C   UNL     1      -0.369   5.129   0.563  0.00  0.00    +0.045 A 
ATOM      8  C   UNL     1      -1.012   5.645   1.691  0.00  0.00    +0.062 A 
ATOM      9  C   UNL     1      -1.538   4.787   2.639  0.00  0.00    +0.166 A 
ATOM     10  C   UNL     1      -1.432   3.409   2.467  0.00  0.00    +0.204 A 
BRANCH   5  12
ATOM     11  C   UNL     1      -0.013   1.086   0.008  0.00  0.00    +0.277 C 
ATOM     12  O   UNL     1      -0.682   1.547   1.184  0.00  0.00    -0.491 OA
ENDBRANCH   5  12
BRANCH  10  13
ATOM     13  O   UNL     1      -1.955   2.568   3.397  0.00  0.00    -0.488 OA
ATOM     14  C   UNL     1      -1.099   2.177   4.472  0.00  0.00    +0.277 C 
ENDBRANCH  10  13
BRANCH   9  15
ATOM     15  O   UNL     1      -2.164   5.289   3.737  0.00  0.00    -0.491 OA
ATOM     16  C   UNL     1      -2.242   6.711   3.846  0.00  0.00    +0.277 C 
ENDBRANCH   9  15
ENDBRANCH   1   7
BRANCH   3  17
ATOM     17  N   UNL     1       0.620   8.245  -1.249  0.00  0.00    -0.230 N 
ATOM     18  C   UNL     1       0.514   9.579  -1.087  0.00  0.00    +0.260 C 
ATOM     19  O   UNL     1      -0.045  10.029  -0.105  0.00  0.00    -0.269 OA
ATOM     20  H   UNL     1       1.066   7.886  -2.032  0.00  0.00    +0.173 HD
BRANCH  18  21
ATOM     21  C   UNL     1       1.076  10.493  -2.100  0.00  0.00    +0.045 A 
ATOM     22  C   UNL     1       1.724   9.977  -3.225  0.00  0.00    +0.062 A 
ATOM     23  C   UNL     1       2.244  10.835  -4.176  0.00  0.00    +0.163 A 
ATOM     24  C   UNL     1       2.134  12.213  -4.007  0.00  0.00    +0.201 A 
ATOM     25  C   UNL     1       1.494  12.729  -2.883  0.00  0.00    +0.163 A 
ATOM     26  C   UNL     1       0.967  11.876  -1.933  0.00  0.00    +0.062 A 
BRANCH  25  27
ATOM     27  O   UNL     1       1.388  14.076  -2.721  0.00  0.00    -0.503 OA
ATOM     28  H   UNL     1       2.127  14.473  -2.240  0.00  0.00    +0.292 HD
ENDBRANCH  25  27
BRANCH  24  29
ATOM     29  O   UNL     1       2.651  13.054  -4.940  0.00  0.00    -0.501 OA
ATOM     30  H   UNL     1       3.570  13.307  -4.776  0.00  0.00    +0.292 HD
ENDBRANCH  24  29
BRANCH  23  31
ATOM     31  O   UNL     1       2.870  10.334  -5.274  0.00  0.00    -0.503 OA
ATOM     32  H   UNL     1       3.820  10.197  -5.158  0.00  0.00    +0.292 HD
ENDBRANCH  23  31
ENDBRANCH  18  21
ENDBRANCH   3  17
TORSDOF 9
