REMARK  Name = ZINC09579379
REMARK  7 active torsions:
REMARK  status: ('A' for Active; 'I' for Inactive)
REMARK    1  A    between atoms: C_1  and  C_2
REMARK    2  A    between atoms: C_2  and  C_3
REMARK    3  A    between atoms: C_3  and  C_29
REMARK    4  A    between atoms: N_6  and  C_10
REMARK    5  A    between atoms: C_10  and  N_63
REMARK    6  A    between atoms: N_13  and  S_16
REMARK    7  A    between atoms: S_16  and  C_19
REMARK                            x       y       z     vdW  Elec       q    Type
REMARK                         _______ _______ _______ _____ _____    ______ ____
ROOT
ATOM      1  C   UNL     1      -2.453   0.081   1.967  0.00  0.00    -0.059 C 
ATOM      2  C   UNL     1      -2.794   0.023   3.460  0.00  0.00    +0.091 C 
ATOM      3  N   UNL     1      -4.236   0.264   3.619  0.00  0.00    -0.180 NA
ATOM      4  C   UNL     1      -4.821   1.445   2.968  0.00  0.00    +0.091 C 
ATOM      5  C   UNL     1      -4.400   1.447   1.494  0.00  0.00    -0.059 C 
ATOM      6  N   UNL     1      -2.925   1.372   1.421  0.00  0.00    +0.392 N 
ATOM      7  H   UNL     1      -2.525   2.135   1.980  0.00  0.00    -0.079 HD
ENDROOT
BRANCH   3   8
ATOM      8  S   UNL     1      -5.177  -0.769   4.509  0.00  0.00    +0.061 S 
ATOM      9  O   UNL     1      -4.308  -1.425   5.422  0.00  0.00    -0.153 OA
ATOM     10  O   UNL     1      -6.308  -0.023   4.936  0.00  0.00    -0.153 OA
BRANCH   8  11
ATOM     11  C   UNL     1      -5.777  -2.007   3.407  0.00  0.00    +0.106 A 
ATOM     12  C   UNL     1      -6.987  -1.808   2.745  0.00  0.00    +0.029 A 
ATOM     13  C   UNL     1      -7.476  -2.742   1.884  0.00  0.00    +0.010 A 
ATOM     14  C   UNL     1      -6.758  -3.929   1.665  0.00  0.00    -0.018 A 
ATOM     15  C   UNL     1      -7.234  -4.919   0.788  0.00  0.00    +0.008 A 
ATOM     16  C   UNL     1      -6.511  -6.057   0.600  0.00  0.00    +0.001 A 
ATOM     17  C   UNL     1      -5.303  -6.258   1.266  0.00  0.00    +0.001 A 
ATOM     18  C   UNL     1      -4.811  -5.322   2.122  0.00  0.00    +0.008 A 
ATOM     19  C   UNL     1      -5.529  -4.134   2.341  0.00  0.00    -0.016 A 
ATOM     20  C   UNL     1      -5.054  -3.144   3.219  0.00  0.00    +0.037 A 
ENDBRANCH   8  11
ENDBRANCH   3   8
BRANCH   6  21
ATOM     21  C   UNL     1      -2.481   1.520   0.020  0.00  0.00    +0.043 C 
BRANCH  21  25
ATOM     22  C   UNL     1       1.181   2.140   0.002  0.00  0.00    +0.138 C 
ATOM     23  C   UNL     1      -0.014   1.208   0.009  0.00  0.00    +0.249 C 
ATOM     24  O   UNL     1       0.002  -0.004   0.002  0.00  0.00    -0.272 OA
ATOM     25  N   UNL     1      -1.099   2.007   0.017  0.00  0.00    -0.241 N 
ATOM     26  C   UNL     1      -0.759   3.301   0.026  0.00  0.00    +0.308 C 
ATOM     27  O   UNL     1      -1.564   4.212   0.038  0.00  0.00    -0.252 OA
ATOM     28  N   UNL     1       0.574   3.482   0.015  0.00  0.00    -0.281 N 
ATOM     29  H   UNL     1       1.044   4.331   0.015  0.00  0.00    +0.152 HD
BRANCH  22  30
ATOM     30  C   UNL     1       2.002   1.941  -1.246  0.00  0.00    -0.015 A 
ATOM     31  C   UNL     1       3.043   1.032  -1.251  0.00  0.00    +0.006 A 
ATOM     32  C   UNL     1       3.793   0.846  -2.397  0.00  0.00    +0.000 A 
ATOM     33  C   UNL     1       3.508   1.576  -3.535  0.00  0.00    +0.000 A 
ATOM     34  C   UNL     1       2.470   2.489  -3.529  0.00  0.00    +0.000 A 
ATOM     35  C   UNL     1       1.717   2.672  -2.384  0.00  0.00    +0.006 A 
ENDBRANCH  22  30
BRANCH  22  37
ATOM     36  C   UNL     1       1.198   2.182   2.500  0.00  0.00    +0.007 C 
ATOM     37  C   UNL     1       2.040   1.923   1.250  0.00  0.00    +0.037 C 
ENDBRANCH  22  37
ENDBRANCH  21  25
ENDBRANCH   6  21
TORSDOF 6
