REMARK  Name = ZINC61808590
REMARK  7 active torsions:
REMARK  status: ('A' for Active; 'I' for Inactive)
REMARK    1  A    between atoms: C_5  and  C_8
REMARK    2  A    between atoms: C_5  and  C_10
REMARK    3  A    between atoms: C_8  and  N_9
REMARK    4  A    between atoms: N_12  and  C_13
REMARK    5  A    between atoms: N_12  and  C_17
REMARK    6  A    between atoms: C_13  and  C_14
REMARK    7  A    between atoms: C_17  and  C_18
REMARK                            x       y       z     vdW  Elec       q    Type
REMARK                         _______ _______ _______ _____ _____    ______ ____
ROOT
ATOM      1  C   UNL     1       2.576  -0.812  -0.475  0.00  0.00    +0.221 C 
ATOM      2  O   UNL     1       3.219   0.063  -1.015  0.00  0.00    -0.275 OA
ATOM      3  N   UNL     1       1.845  -1.667  -1.218  0.00  0.00    -0.283 N 
ENDROOT
BRANCH   1   8
ATOM      4  C   UNL     1       0.253   1.107   0.681  0.00  0.00    +0.000 C 
ATOM      5  C   UNL     1       1.645   1.725   0.442  0.00  0.00    +0.000 C 
ATOM      6  C   UNL     1       2.473   1.534   1.684  0.00  0.00    +0.001 C 
ATOM      7  C   UNL     1       3.342   0.263   1.623  0.00  0.00    +0.014 C 
ATOM      8  C   UNL     1       2.594  -0.944   1.026  0.00  0.00    +0.032 C 
ATOM      9  C   UNL     1       1.178  -1.048   1.523  0.00  0.00    +0.014 C 
ATOM     10  C   UNL     1       0.251  -0.339   0.514  0.00  0.00    +0.001 C 
BRANCH   8  11
ATOM     11  C   UNL     1       3.344  -2.225   1.399  0.00  0.00    -0.070 C 
BRANCH  11  12
ATOM     12  N   UNL     1       4.673  -2.214   0.771  0.00  0.00    +0.379 N 
ATOM     13  H   UNL     1       4.573  -2.084  -0.225  0.00  0.00    -0.090 HD
ATOM     14  H   UNL     1       5.221  -1.460   1.156  0.00  0.00    -0.090 HD
ATOM     15  H   UNL     1       5.136  -3.092   0.951  0.00  0.00    -0.090 HD
ENDBRANCH  11  12
ENDBRANCH   8  11
ENDBRANCH   1   8
BRANCH   3  16
ATOM     16  C   UNL     1       1.145  -2.783  -0.575  0.00  0.00    +0.203 C 
BRANCH  16  17
ATOM     17  C   UNL     1      -0.340  -2.526  -0.600  0.00  0.00    +0.228 C 
ATOM     18  O   UNL     1      -0.778  -1.562  -1.191  0.00  0.00    -0.274 OA
ATOM     19  N   UNL     1      -1.180  -3.367   0.035  0.00  0.00    -0.328 N 
ATOM     20  H   UNL     1      -0.829  -4.138   0.507  0.00  0.00    +0.145 HD
ATOM     21  H   UNL     1      -2.135  -3.202   0.019  0.00  0.00    +0.145 HD
ENDBRANCH  16  17
ENDBRANCH   3  16
BRANCH   3  22
ATOM     22  C   UNL     1       1.749  -1.481  -2.668  0.00  0.00    +0.203 C 
BRANCH  22  23
ATOM     23  C   UNL     1       2.861  -2.239  -3.346  0.00  0.00    +0.228 C 
ATOM     24  O   UNL     1       3.655  -2.873  -2.683  0.00  0.00    -0.274 OA
ATOM     25  N   UNL     1       2.973  -2.213  -4.689  0.00  0.00    -0.328 N 
ATOM     26  H   UNL     1       2.338  -1.706  -5.219  0.00  0.00    +0.145 HD
ATOM     27  H   UNL     1       3.689  -2.701  -5.125  0.00  0.00    +0.145 HD
ENDBRANCH  22  23
ENDBRANCH   3  22
TORSDOF 7
