REMARK  Name = ZINC09684335
REMARK  12 active torsions:
REMARK  status: ('A' for Active; 'I' for Inactive)
REMARK    1  A    between atoms: C_1  and  C_2
REMARK    2  A    between atoms: C_6  and  C_33
REMARK    3  A    between atoms: C_7  and  N_8
REMARK    4  A    between atoms: C_9  and  C_11
REMARK    5  A    between atoms: C_11  and  N_12
REMARK    6  A    between atoms: N_12  and  C_13
REMARK    7  A    between atoms: N_12  and  C_14
REMARK    8  A    between atoms: C_14  and  C_16
REMARK    9  A    between atoms: C_14  and  C_17
REMARK   10  A    between atoms: N_19  and  C_20
REMARK   11  A    between atoms: C_20  and  C_21
REMARK   12  A    between atoms: N_23  and  C_24
REMARK                            x       y       z     vdW  Elec       q    Type
REMARK                         _______ _______ _______ _____ _____    ______ ____
ROOT
ATOM      1  C   UNL     1      -0.747  -0.307   7.266  0.00  0.00    +0.016 C 
ATOM      2  C   UNL     1       0.596   0.424   7.211  0.00  0.00    -0.004 C 
ENDROOT
BRANCH   1   3
ATOM      3  C   UNL     1      -0.722  -1.320   8.382  0.00  0.00    +0.200 C 
ATOM      4  O   UNL     1      -0.709  -2.505   8.125  0.00  0.00    -0.278 OA
ATOM      5  N   UNL     1      -0.715  -0.909   9.665  0.00  0.00    -0.308 N 
ATOM      6  H   UNL     1      -0.725   0.039   9.871  0.00  0.00    +0.149 HD
BRANCH   5   7
ATOM      7  C   UNL     1      -0.691  -1.893  10.750  0.00  0.00    +0.200 C 
BRANCH   7   8
ATOM      8  C   UNL     1      -0.686  -1.179  12.077  0.00  0.00    +0.234 C 
ATOM      9  O   UNL     1      -0.702   0.034  12.113  0.00  0.00    -0.274 OA
ATOM     10  N   UNL     1      -0.666  -1.887  13.223  0.00  0.00    -0.282 N 
ATOM     11  H   UNL     1      -0.570  -2.852  13.196  0.00  0.00    +0.155 HD
BRANCH  10  12
ATOM     12  C   UNL     1      -0.782  -1.229  14.455  0.00  0.00    +0.072 A 
ATOM     13  C   UNL     1      -1.536  -0.068  14.554  0.00  0.00    +0.029 A 
ATOM     14  C   UNL     1      -1.650   0.581  15.769  0.00  0.00    +0.043 A 
ATOM     15  C   UNL     1      -1.014   0.073  16.889  0.00  0.00    +0.161 A 
ATOM     16  C   UNL     1      -0.260  -1.086  16.795  0.00  0.00    +0.195 A 
ATOM     17  C   UNL     1      -0.148  -1.742  15.581  0.00  0.00    +0.182 A 
ATOM     18  F   UNL     1       0.581  -2.876  15.489  0.00  0.00    -0.200 F 
ATOM     19  F   UNL     1       0.360  -1.580  17.889  0.00  0.00    -0.199 F 
ATOM     20  F   UNL     1      -1.127   0.710  18.076  0.00  0.00    -0.202 F 
ENDBRANCH  10  12
ENDBRANCH   7   8
ENDBRANCH   5   7
ENDBRANCH   1   3
BRANCH   1  21
ATOM     21  N   UNL     1      -0.984  -0.992   5.988  0.00  0.00    +0.391 N 
ATOM     22  C   UNL     1      -2.329  -1.583   5.992  0.00  0.00    -0.094 C 
ATOM     23  H   UNL     1      -0.297  -1.720   5.864  0.00  0.00    -0.080 HD
BRANCH  21  24
ATOM     24  C   UNL     1      -0.877  -0.025   4.887  0.00  0.00    +0.020 C 
BRANCH  24  26
ATOM     25  N   UNL     1      -0.930  -0.059   2.414  0.00  0.00    -0.287 N 
ATOM     26  C   UNL     1      -0.999  -0.748   3.571  0.00  0.00    +0.201 C 
ATOM     27  O   UNL     1      -1.159  -1.950   3.551  0.00  0.00    -0.278 OA
ATOM     28  H   UNL     1      -0.855   0.908   2.430  0.00  0.00    +0.155 HD
BRANCH  25  35
ATOM     29  C   UNL     1       0.971  -2.129   1.969  0.00  0.00    +0.045 C 
ATOM     30  C   UNL     1      -0.057  -1.755   0.933  0.00  0.00    -0.029 A 
ATOM     31  C   UNL     1      -0.100  -2.428  -0.273  0.00  0.00    +0.005 A 
ATOM     32  C   UNL     1      -1.044  -2.085  -1.224  0.00  0.00    +0.001 A 
ATOM     33  C   UNL     1      -1.947  -1.069  -0.972  0.00  0.00    +0.005 A 
ATOM     34  C   UNL     1      -1.909  -0.393   0.232  0.00  0.00    -0.029 A 
ATOM     35  C   UNL     1      -0.967  -0.738   1.192  0.00  0.00    +0.039 A 
ATOM     36  C   UNL     1      -2.894   0.715   0.506  0.00  0.00    +0.045 C 
ENDBRANCH  25  35
ENDBRANCH  24  26
ENDBRANCH  21  24
ENDBRANCH   1  21
TORSDOF 8
