REMARK  Name = ZINC33771986
REMARK  12 active torsions:
REMARK  status: ('A' for Active; 'I' for Inactive)
REMARK    1  A    between atoms: C_1  and  C_2
REMARK    2  A    between atoms: C_2  and  C_3
REMARK    3  A    between atoms: C_3  and  C_4
REMARK    4  A    between atoms: C_4  and  N_5
REMARK    5  A    between atoms: C_10  and  C_29
REMARK    6  A    between atoms: C_13  and  C_18
REMARK    7  A    between atoms: C_13  and  C_26
REMARK    8  A    between atoms: C_18  and  C_19
REMARK    9  A    between atoms: C_22  and  O_25
REMARK   10  A    between atoms: C_31  and  C_37
REMARK   11  A    between atoms: C_32  and  O_36
REMARK   12  A    between atoms: C_33  and  C_35
REMARK                            x       y       z     vdW  Elec       q    Type
REMARK                         _______ _______ _______ _____ _____    ______ ____
ROOT
ATOM      1  N   UNL     1       8.508   5.106   0.610  0.00  0.00    -0.242 N 
ATOM      2  C   UNL     1       7.956   5.728   1.703  0.00  0.00    +0.224 C 
ATOM      3  O   UNL     1       8.535   6.346   2.571  0.00  0.00    -0.275 OA
ATOM      4  C   UNL     1       6.539   5.488   1.594  0.00  0.00    +0.077 C 
ATOM      5  C   UNL     1       5.255   6.025   2.076  0.00  0.00    -0.027 C 
ATOM      6  N   UNL     1       4.258   5.293   1.222  0.00  0.00    +0.396 N 
ATOM      7  C   UNL     1       4.961   4.847  -0.019  0.00  0.00    +0.052 C 
ATOM      8  C   UNL     1       6.332   5.501   0.031  0.00  0.00    +0.086 C 
ATOM      9  C   UNL     1       7.574   4.743  -0.318  0.00  0.00    +0.225 C 
ATOM     10  O   UNL     1       7.720   3.966  -1.237  0.00  0.00    -0.275 OA
ATOM     11  H   UNL     1       3.870   4.424   1.773  0.00  0.00    -0.083 HD
ATOM     12  H   UNL     1       3.427   5.967   0.968  0.00  0.00    -0.083 HD
ENDROOT
BRANCH   5  13
ATOM     13  C   UNL     1       5.049   5.703   3.534  0.00  0.00    -0.060 A 
ATOM     14  C   UNL     1       4.709   4.419   3.916  0.00  0.00    +0.009 A 
ATOM     15  C   UNL     1       4.525   4.120   5.253  0.00  0.00    -0.009 A 
ATOM     16  C   UNL     1       4.671   5.113   6.210  0.00  0.00    +0.123 A 
ATOM     17  C   UNL     1       5.007   6.402   5.824  0.00  0.00    -0.009 A 
ATOM     18  C   UNL     1       5.195   6.695   4.487  0.00  0.00    +0.009 A 
ATOM     19  C   UNL     1       5.165   7.483   6.862  0.00  0.00    +0.047 C 
ATOM     20  C   UNL     1       4.160   2.718   5.669  0.00  0.00    +0.047 C 
BRANCH  16  21
ATOM     21  O   UNL     1       4.486   4.823   7.525  0.00  0.00    -0.506 OA
ATOM     22  H   UNL     1       4.601   5.611   8.284  0.00  0.00    +0.292 HD
ENDBRANCH  16  21
ENDBRANCH   5  13
BRANCH   7  23
ATOM     23  C   UNL     1       4.207   5.307  -1.240  0.00  0.00    +0.347 C 
ATOM     24  O   UNL     1       4.810   5.677  -2.219  0.00  0.00    -0.248 OA
ATOM     25  O   UNL     1       2.864   5.306  -1.239  0.00  0.00    -0.248 OA
ENDBRANCH   7  23
BRANCH   1  26
ATOM     26  C   UNL     1       9.944   4.859   0.457  0.00  0.00    +0.116 C 
BRANCH  26  27
ATOM     27  C   UNL     1      10.595   6.051  -0.248  0.00  0.00    +0.019 C 
BRANCH  27  29
ATOM     28  C   UNL     1      12.744   6.985  -1.114  0.00  0.00    +0.004 C 
ATOM     29  C   UNL     1      12.094   5.793  -0.409  0.00  0.00    -0.002 C 
ENDBRANCH  27  29
ENDBRANCH  26  27
ENDBRANCH   1  26
BRANCH   7  30
ATOM     30  C   UNL     1       5.103   3.323  -0.029  0.00  0.00    +0.035 C 
BRANCH  30  31
ATOM     31  C   UNL     1       3.735   2.692  -0.019  0.00  0.00    -0.048 A 
ATOM     32  C   UNL     1       3.096   2.409  -1.213  0.00  0.00    +0.007 A 
ATOM     33  C   UNL     1       1.842   1.830  -1.207  0.00  0.00    +0.045 A 
ATOM     34  C   UNL     1       1.223   1.532  -0.001  0.00  0.00    +0.117 A 
ATOM     35  C   UNL     1       1.863   1.822   1.195  0.00  0.00    +0.045 A 
ATOM     36  C   UNL     1       3.119   2.396   1.183  0.00  0.00    +0.007 A 
BRANCH  34  37
ATOM     37  O   UNL     1      -0.011   0.963   0.007  0.00  0.00    -0.507 OA
ATOM     38  H   UNL     1      -0.501   0.727   0.963  0.00  0.00    +0.292 HD
ENDBRANCH  34  37
ENDBRANCH  30  31
ENDBRANCH   7  30
TORSDOF 9
