REMARK  Name = ZINC43223314
REMARK  8 active torsions:
REMARK  status: ('A' for Active; 'I' for Inactive)
REMARK    1  A    between atoms: C_1  and  C_2
REMARK    2  A    between atoms: C_2  and  C_3
REMARK    3  A    between atoms: C_3  and  C_4
REMARK    4  A    between atoms: C_3  and  N_6
REMARK    5  A    between atoms: C_4  and  C_5
REMARK    6  A    between atoms: C_7  and  C_9
REMARK    7  A    between atoms: C_14  and  C_16
REMARK    8  A    between atoms: N_18  and  C_19
REMARK                            x       y       z     vdW  Elec       q    Type
REMARK                         _______ _______ _______ _____ _____    ______ ____
ROOT
ATOM      1  C   UNL     1      -0.234   0.422  -4.849  0.00  0.00    +0.068 C 
ATOM      2  C   UNL     1      -0.850   1.825  -4.655  0.00  0.00    -0.069 C 
ATOM      3  N   UNL     1       0.119   2.751  -5.296  0.00  0.00    +0.380 N 
ATOM      4  C   UNL     1       0.560   2.030  -6.518  0.00  0.00    -0.069 C 
ATOM      5  C   UNL     1       0.693   0.554  -6.074  0.00  0.00    +0.068 C 
ATOM      6  H   UNL     1      -0.332   3.619  -5.542  0.00  0.00    -0.086 HD
ATOM      7  H   UNL     1       0.903   2.920  -4.684  0.00  0.00    -0.086 HD
ENDROOT
BRANCH   1   9
ATOM      8  N   UNL     1      -0.055  -0.114  -2.441  0.00  0.00    -0.312 N 
ATOM      9  C   UNL     1       0.561   0.028  -3.631  0.00  0.00    +0.215 C 
ATOM     10  O   UNL     1       1.755  -0.162  -3.722  0.00  0.00    -0.276 OA
ATOM     11  H   UNL     1      -1.010   0.038  -2.368  0.00  0.00    +0.149 HD
BRANCH   8  12
ATOM     12  C   UNL     1       0.718  -0.497  -1.257  0.00  0.00    +0.072 C 
BRANCH  12  14
ATOM     13  C   UNL     1      -0.019   1.526   0.010  0.00  0.00    +0.006 C 
ATOM     14  C   UNL     1       0.002  -0.004   0.002  0.00  0.00    +0.019 C 
ENDBRANCH  12  14
BRANCH  12  15
ATOM     15  C   UNL     1       0.849  -2.021  -1.205  0.00  0.00    +0.019 C 
ATOM     16  C   UNL     1       1.673  -2.503  -2.400  0.00  0.00    +0.006 C 
ENDBRANCH  12  15
ENDBRANCH   8  12
ENDBRANCH   1   9
BRANCH   5  17
ATOM     17  C   UNL     1       0.239  -0.368  -7.176  0.00  0.00    +0.215 C 
ATOM     18  O   UNL     1      -0.734  -1.073  -7.013  0.00  0.00    -0.276 OA
ATOM     19  N   UNL     1       0.914  -0.410  -8.342  0.00  0.00    -0.308 N 
ATOM     20  H   UNL     1       1.692   0.154  -8.472  0.00  0.00    +0.149 HD
BRANCH  19  21
ATOM     21  C   UNL     1       0.472  -1.307  -9.412  0.00  0.00    +0.103 C 
ATOM     22  C   UNL     1       1.664  -1.651 -10.304  0.00  0.00    +0.027 C 
ATOM     23  C   UNL     1       1.145  -2.406 -11.534  0.00  0.00    +0.007 C 
ATOM     24  C   UNL     1       0.365  -1.426 -12.407  0.00  0.00    +0.035 C 
ATOM     25  C   UNL     1      -0.662  -0.688 -11.587  0.00  0.00    -0.042 A 
ATOM     26  C   UNL     1      -0.609  -0.630 -10.213  0.00  0.00    -0.024 A 
ATOM     27  C   UNL     1      -1.584   0.074  -9.518  0.00  0.00    +0.006 A 
ATOM     28  C   UNL     1      -2.604   0.712 -10.193  0.00  0.00    +0.000 A 
ATOM     29  C   UNL     1      -2.658   0.650 -11.573  0.00  0.00    +0.000 A 
ATOM     30  C   UNL     1      -1.691  -0.048 -12.264  0.00  0.00    +0.004 A 
ENDBRANCH  19  21
ENDBRANCH   5  17
TORSDOF 6
