REMARK  Name = ZINC04082257
REMARK  12 active torsions:
REMARK  status: ('A' for Active; 'I' for Inactive)
REMARK    1  A    between atoms: C_1  and  O_2
REMARK    2  A    between atoms: O_2  and  C_3
REMARK    3  A    between atoms: C_6  and  C_11
REMARK    4  A    between atoms: C_8  and  O_9
REMARK    5  A    between atoms: O_9  and  C_10
REMARK    6  A    between atoms: C_16  and  C_26
REMARK    7  A    between atoms: C_28  and  O_36
REMARK    8  A    between atoms: C_29  and  O_34
REMARK    9  A    between atoms: C_31  and  O_32
REMARK   10  A    between atoms: O_32  and  C_33
REMARK   11  A    between atoms: O_34  and  C_35
REMARK   12  A    between atoms: O_36  and  C_37
REMARK                            x       y       z     vdW  Elec       q    Type
REMARK                         _______ _______ _______ _____ _____    ______ ____
ROOT
ATOM      1  C   UNL     1       5.650   1.655   6.783  0.00  0.00    +0.032 C 
ATOM      2  C   UNL     1       4.387   2.331   7.312  0.00  0.00    +0.059 C 
ATOM      3  C   UNL     1       3.188   1.417   7.118  0.00  0.00    +0.017 C 
ATOM      4  C   UNL     1       3.131   0.585   6.064  0.00  0.00    +0.037 C 
ATOM      5  C   UNL     1       1.994  -0.354   5.738  0.00  0.00    +0.140 C 
ATOM      6  N   UNL     1       1.024  -0.513   6.801  0.00  0.00    -0.331 N 
ATOM      7  C   UNL     1       0.239   0.557   7.227  0.00  0.00    +0.049 A 
ATOM      8  C   UNL     1      -1.128   0.582   7.008  0.00  0.00    +0.025 A 
ATOM      9  C   UNL     1      -1.851   1.712   7.351  0.00  0.00    +0.002 A 
ATOM     10  C   UNL     1      -1.216   2.807   7.907  0.00  0.00    +0.002 A 
ATOM     11  C   UNL     1       0.147   2.777   8.146  0.00  0.00    +0.025 A 
ATOM     12  C   UNL     1       0.868   1.642   7.820  0.00  0.00    +0.052 A 
ATOM     13  N   UNL     1       2.231   1.528   8.073  0.00  0.00    -0.316 N 
ATOM     14  C   UNL     1       4.200   0.532   5.139  0.00  0.00    +0.163 C 
ATOM     15  O   UNL     1       4.114  -0.219   4.187  0.00  0.00    -0.292 OA
ATOM     16  C   UNL     1       5.435   1.368   5.292  0.00  0.00    +0.088 C 
ATOM     17  H   UNL     1       0.919  -1.379   7.224  0.00  0.00    +0.147 HD
ATOM     18  H   UNL     1       2.517   1.529   9.000  0.00  0.00    +0.152 HD
ENDROOT
BRANCH   1  22
ATOM     19  C   UNL     1       9.005   4.258   7.287  0.00  0.00    +0.161 A 
ATOM     20  C   UNL     1       7.911   4.669   6.542  0.00  0.00    +0.049 A 
ATOM     21  C   UNL     1       6.828   3.825   6.381  0.00  0.00    +0.008 A 
ATOM     22  C   UNL     1       6.833   2.571   6.961  0.00  0.00    -0.040 A 
ATOM     23  C   UNL     1       7.919   2.156   7.710  0.00  0.00    +0.053 A 
ATOM     24  C   UNL     1       9.010   2.995   7.871  0.00  0.00    +0.162 A 
BRANCH  19  26
ATOM     25  C   UNL     1       9.996   6.369   6.819  0.00  0.00    +0.277 C 
ATOM     26  O   UNL     1      10.071   5.087   7.447  0.00  0.00    -0.491 OA
ENDBRANCH  19  26
BRANCH  24  27
ATOM     27  O   UNL     1      10.081   2.587   8.603  0.00  0.00    -0.491 OA
ATOM     28  C   UNL     1      10.017   1.278   9.173  0.00  0.00    +0.277 C 
ENDBRANCH  24  27
ENDBRANCH   1  22
BRANCH   5  29
ATOM     29  C   UNL     1       1.282   0.165   4.515  0.00  0.00    +0.023 A 
ATOM     30  C   UNL     1       1.467   1.474   4.112  0.00  0.00    +0.058 A 
ATOM     31  C   UNL     1       0.817   1.951   2.985  0.00  0.00    +0.162 A 
ATOM     32  C   UNL     1      -0.030   1.115   2.265  0.00  0.00    +0.165 A 
ATOM     33  C   UNL     1      -0.214  -0.197   2.670  0.00  0.00    +0.095 A 
ATOM     34  C   UNL     1       0.442  -0.672   3.796  0.00  0.00    +0.129 A 
BRANCH  34  35
ATOM     35  O   UNL     1       0.262  -1.960   4.194  0.00  0.00    -0.495 OA
ATOM     36  C   UNL     1      -0.616  -2.766   3.406  0.00  0.00    +0.277 C 
ENDBRANCH  34  35
BRANCH  32  37
ATOM     37  O   UNL     1      -0.672   1.583   1.161  0.00  0.00    -0.491 OA
ATOM     38  C   UNL     1      -1.521   0.667   0.467  0.00  0.00    +0.277 C 
ENDBRANCH  32  37
BRANCH  31  39
ATOM     39  O   UNL     1       1.004   3.239   2.586  0.00  0.00    -0.491 OA
ATOM     40  C   UNL     1       1.965   4.009   3.310  0.00  0.00    +0.277 C 
ENDBRANCH  31  39
ENDBRANCH   5  29
TORSDOF 7
