REMARK  Name = ZINC09216211
REMARK  9 active torsions:
REMARK  status: ('A' for Active; 'I' for Inactive)
REMARK    1  A    between atoms: C_1  and  O_2
REMARK    2  A    between atoms: O_2  and  C_3
REMARK    3  A    between atoms: C_3  and  C_4
REMARK    4  A    between atoms: C_4  and  C_5
REMARK    5  A    between atoms: C_5  and  N_6
REMARK    6  A    between atoms: C_11  and  C_28
REMARK    7  A    between atoms: C_28  and  C_29
REMARK    8  A    between atoms: C_32  and  O_36
REMARK    9  A    between atoms: C_33  and  O_35
REMARK                            x       y       z     vdW  Elec       q    Type
REMARK                         _______ _______ _______ _____ _____    ______ ____
ROOT
ATOM      1  N   UNL     1       3.429   4.346  -1.345  0.00  0.00    -0.242 N 
ATOM      2  C   UNL     1       2.938   5.479  -0.828  0.00  0.00    +0.224 C 
ATOM      3  O   UNL     1       3.595   6.450  -0.519  0.00  0.00    -0.275 OA
ATOM      4  C   UNL     1       1.421   5.364  -0.696  0.00  0.00    +0.073 C 
ATOM      5  C   UNL     1       1.038   5.324   0.799  0.00  0.00    -0.053 C 
ATOM      6  C   UNL     1       0.631   3.163   0.010  0.00  0.00    +0.050 C 
ATOM      7  C   UNL     1       1.142   3.927  -1.218  0.00  0.00    +0.088 C 
ATOM      8  C   UNL     1       2.509   3.410  -1.605  0.00  0.00    +0.225 C 
ATOM      9  O   UNL     1       2.737   2.317  -2.077  0.00  0.00    -0.275 OA
ATOM     10  C   UNL     1      -0.869   3.086   0.025  0.00  0.00    -0.026 A 
ATOM     11  C   UNL     1      -1.867   4.035   0.040  0.00  0.00    +0.004 A 
ATOM     12  C   UNL     1      -3.195   3.645   0.050  0.00  0.00    +0.002 A 
ATOM     13  C   UNL     1      -3.517   2.300   0.047  0.00  0.00    +0.022 A 
ATOM     14  C   UNL     1      -2.520   1.345   0.033  0.00  0.00    +0.062 A 
ATOM     15  C   UNL     1      -1.181   1.730   0.017  0.00  0.00    +0.054 A 
ATOM     16  N   UNL     1      -0.011   0.966   0.007  0.00  0.00    -0.285 N 
ATOM     17  C   UNL     1       1.096   1.733   0.001  0.00  0.00    +0.211 C 
ATOM     18  O   UNL     1       2.246   1.345  -0.009  0.00  0.00    -0.277 OA
ATOM     19 CL   UNL     1      -2.937  -0.341   0.029  0.00  0.00    -0.082 Cl
ATOM     20  H   UNL     1       0.002  -0.004   0.002  0.00  0.00    +0.155 HD
ATOM     21  N   UNL     1       1.135   3.906   1.152  0.00  0.00    +0.394 N 
ATOM     22  H   UNL     1       0.566   3.708   1.983  0.00  0.00    -0.083 HD
ATOM     23  H   UNL     1       2.112   3.652   1.337  0.00  0.00    -0.083 HD
ENDROOT
BRANCH   1  24
ATOM     24  C   UNL     1       4.857   4.148  -1.605  0.00  0.00    +0.118 C 
BRANCH  24  25
ATOM     25  C   UNL     1       5.186   4.612  -3.026  0.00  0.00    +0.047 C 
BRANCH  25  26
ATOM     26  C   UNL     1       6.678   4.405  -3.297  0.00  0.00    +0.161 C 
BRANCH  26  28
ATOM     27  C   UNL     1       8.360   4.687  -4.981  0.00  0.00    +0.193 C 
ATOM     28  O   UNL     1       6.985   4.839  -4.624  0.00  0.00    -0.383 OA
ENDBRANCH  26  28
ENDBRANCH  25  26
ENDBRANCH  24  25
ENDBRANCH   1  24
BRANCH   5  29
ATOM     29  C   UNL     1       2.010   6.173   1.620  0.00  0.00    +0.020 C 
BRANCH  29  30
ATOM     30  C   UNL     1       1.549   6.221   3.054  0.00  0.00    -0.045 A 
ATOM     31  C   UNL     1       0.692   7.223   3.470  0.00  0.00    +0.007 A 
ATOM     32  C   UNL     1       0.262   7.268   4.783  0.00  0.00    +0.049 A 
ATOM     33  C   UNL     1       0.698   6.313   5.688  0.00  0.00    +0.158 A 
ATOM     34  C   UNL     1       1.564   5.307   5.270  0.00  0.00    +0.158 A 
ATOM     35  C   UNL     1       1.987   5.265   3.951  0.00  0.00    +0.052 A 
BRANCH  34  36
ATOM     36  O   UNL     1       1.995   4.368   6.154  0.00  0.00    -0.503 OA
ATOM     37  H   UNL     1       2.811   4.607   6.616  0.00  0.00    +0.292 HD
ENDBRANCH  34  36
BRANCH  33  38
ATOM     38  O   UNL     1       0.279   6.358   6.981  0.00  0.00    -0.503 OA
ATOM     39  H   UNL     1       0.849   6.881   7.561  0.00  0.00    +0.292 HD
ENDBRANCH  33  38
ENDBRANCH  29  30
ENDBRANCH   5  29
TORSDOF 8
