REMARK  Name = ZINC43401054
REMARK  5 active torsions:
REMARK  status: ('A' for Active; 'I' for Inactive)
REMARK    1  A    between atoms: C_1  and  C_2
REMARK    2  A    between atoms: C_2  and  N_3
REMARK    3  A    between atoms: N_3  and  C_4
REMARK    4  A    between atoms: C_6  and  C_12
REMARK    5  A    between atoms: C_9  and  C_11
REMARK                            x       y       z     vdW  Elec       q    Type
REMARK                         _______ _______ _______ _____ _____    ______ ____
ROOT
ATOM      1  N   UNL     1       1.076  -0.314  -1.094  0.00  0.00    -0.318 N 
ATOM      2  C   UNL     1       2.010   0.815  -1.054  0.00  0.00    +0.130 C 
ATOM      3  C   UNL     1       0.218  -0.463  -2.168  0.00  0.00    +0.132 A 
ATOM      4  C   UNL     1       0.667  -1.100  -3.337  0.00  0.00    +0.052 A 
ATOM      5  C   UNL     1      -0.218  -1.240  -4.411  0.00  0.00    +0.016 A 
ATOM      6  C   UNL     1      -1.502  -0.743  -4.274  0.00  0.00    +0.024 A 
ATOM      7  C   UNL     1      -1.871  -0.128  -3.091  0.00  0.00    +0.040 A 
ATOM      8  N   UNL     1      -1.023  -0.010  -2.088  0.00  0.00    -0.237 NA
ATOM      9  C   UNL     1      -3.270   0.413  -2.945  0.00  0.00    +0.065 C 
ENDROOT
BRANCH   4  10
ATOM     10  C   UNL     1       2.049  -1.612  -3.430  0.00  0.00    +0.098 C 
ATOM     11  N   UNL     1       2.495  -2.493  -2.535  0.00  0.00    -0.387 N 
ATOM     12  N   UNL     1       2.850  -1.194  -4.410  0.00  0.00    -0.344 N 
ATOM     13  H   UNL     1       1.890  -2.857  -1.869  0.00  0.00    +0.157 HD
ATOM     14  H   UNL     1       2.525  -0.553  -5.062  0.00  0.00    +0.144 HD
ATOM     15  H   UNL     1       3.757  -1.530  -4.472  0.00  0.00    +0.144 HD
ATOM     16  H   UNL     1       3.424  -2.770  -2.549  0.00  0.00    +0.157 HD
ENDBRANCH   4  10
BRANCH   1  18
ATOM     17  C   UNL     1       0.050  -0.824   1.067  0.00  0.00    +0.024 C 
ATOM     18  C   UNL     1       1.051  -1.283   0.005  0.00  0.00    +0.103 C 
ENDBRANCH   1  18
TORSDOF 2
