REMARK  Name = ZINC49564288
REMARK  2 active torsions:
REMARK  status: ('A' for Active; 'I' for Inactive)
REMARK    1  A    between atoms: C_6  and  N_7
REMARK    2  A    between atoms: N_8  and  C_9
REMARK                            x       y       z     vdW  Elec       q    Type
REMARK                         _______ _______ _______ _____ _____    ______ ____
ROOT
ATOM      1  C   UNL     1      -0.017   1.384   0.010  0.00  0.00    +0.043 A 
ATOM      2  C   UNL     1       1.196   2.062   0.002  0.00  0.00    +0.038 A 
ATOM      3  C   UNL     1       2.374   1.343  -0.013  0.00  0.00    +0.128 A 
ATOM      4  N   UNL     1       2.364   0.022  -0.020  0.00  0.00    -0.238 NA
ATOM      5  C   UNL     1       1.234  -0.664  -0.013  0.00  0.00    +0.140 A 
ATOM      6  C   UNL     1       0.002  -0.004   0.002  0.00  0.00    +0.066 A 
ATOM      7  N   UNL     1       1.271  -2.057  -0.021  0.00  0.00    -0.326 N 
ATOM      8 BR   UNL     1       1.232   3.953   0.011  0.00  0.00    -0.049 Br
ATOM      9  H   UNL     1       0.444  -2.564  -0.016  0.00  0.00    +0.148 HD
ENDROOT
BRANCH   7  10
ATOM     10  C   UNL     1       2.558  -2.756  -0.037  0.00  0.00    +0.056 C 
ATOM     11  C   UNL     1       3.043  -2.969  -1.494  0.00  0.00    +0.002 C 
ATOM     12  C   UNL     1       3.065  -4.509  -1.686  0.00  0.00    -0.077 C 
ATOM     13  N   UNL     1       2.099  -4.993  -0.688  0.00  0.00    +0.383 N 
ATOM     14  C   UNL     1       2.407  -4.174   0.520  0.00  0.00    -0.048 C 
ATOM     15  C   UNL     1       1.254  -4.341   1.499  0.00  0.00    -0.014 C 
ATOM     16  C   UNL     1       1.219  -5.819   1.921  0.00  0.00    -0.003 C 
ATOM     17  C   UNL     1       1.120  -6.726   0.695  0.00  0.00    -0.019 C 
ATOM     18  C   UNL     1       2.230  -6.397  -0.324  0.00  0.00    -0.078 C 
ATOM     19  H   UNL     1       1.158  -4.806  -1.003  0.00  0.00    -0.081 HD
ENDBRANCH   7  10
BRANCH   6  20
ATOM     20  N   UNL     1      -1.194  -0.731   0.009  0.00  0.00    -0.355 N 
ATOM     21  H   UNL     1      -2.045  -0.265   0.020  0.00  0.00    +0.142 HD
ATOM     22  H   UNL     1      -1.173  -1.701   0.004  0.00  0.00    +0.142 HD
ENDBRANCH   6  20
TORSDOF 2
