REMARK  Name = ZINC45650687
REMARK  8 active torsions:
REMARK  status: ('A' for Active; 'I' for Inactive)
REMARK    1  A    between atoms: C_1  and  C_2
REMARK    2  A    between atoms: C_5  and  N_12
REMARK    3  A    between atoms: C_7  and  S_8
REMARK    4  A    between atoms: S_8  and  N_11
REMARK    5  A    between atoms: N_12  and  C_13
REMARK    6  A    between atoms: N_17  and  C_19
REMARK    7  A    between atoms: C_19  and  C_20
REMARK    8  A    between atoms: C_19  and  C_21
REMARK                            x       y       z     vdW  Elec       q    Type
REMARK                         _______ _______ _______ _____ _____    ______ ____
ROOT
ATOM      1  C   UNL     1      -0.018   1.503   0.010  0.00  0.00    +0.046 C 
ATOM      2  C   UNL     1       0.002  -0.004   0.002  0.00  0.00    -0.024 A 
ATOM      3  C   UNL     1       0.006  -0.687  -1.200  0.00  0.00    +0.007 A 
ATOM      4  C   UNL     1       0.024  -2.068  -1.212  0.00  0.00    +0.023 A 
ATOM      5  C   UNL     1       0.040  -2.771  -0.013  0.00  0.00    +0.029 A 
ATOM      6  C   UNL     1       0.036  -2.081   1.192  0.00  0.00    +0.051 A 
ATOM      7  C   UNL     1       0.023  -0.700   1.196  0.00  0.00    +0.110 A 
ENDROOT
BRANCH   7   8
ATOM      8  S   UNL     1       0.025   0.175   2.725  0.00  0.00    +0.056 S 
ATOM      9  O   UNL     1      -1.014   1.141   2.642  0.00  0.00    -0.153 OA
ATOM     10  O   UNL     1       0.076  -0.803   3.754  0.00  0.00    -0.153 OA
BRANCH   8  11
ATOM     11  N   UNL     1       1.449   1.018   2.804  0.00  0.00    -0.204 NA
ATOM     12  H   UNL     1       1.489   1.857   3.290  0.00  0.00    +0.144 HD
ATOM     13  H   UNL     1       2.242   0.674   2.365  0.00  0.00    +0.144 HD
ENDBRANCH   8  11
ENDBRANCH   7   8
BRANCH   5  14
ATOM     14  N   UNL     1       0.058  -4.167  -0.021  0.00  0.00    -0.343 N 
ATOM     15  H   UNL     1       0.069  -4.657   0.816  0.00  0.00    +0.146 HD
BRANCH  14  16
ATOM     16  C   UNL     1       0.061  -4.893  -1.294  0.00  0.00    +0.052 C 
ATOM     17  C   UNL     1      -1.387  -5.129  -1.780  0.00  0.00    +0.002 C 
ATOM     18  C   UNL     1      -1.326  -6.562  -2.366  0.00  0.00    -0.077 C 
ATOM     19  N   UNL     1      -0.408  -7.271  -1.437  0.00  0.00    +0.382 N 
ATOM     20  C   UNL     1       0.659  -6.299  -1.105  0.00  0.00    -0.056 C 
ATOM     21  H   UNL     1      -0.903  -7.544  -0.601  0.00  0.00    -0.081 HD
BRANCH  19  22
ATOM     22  C   UNL     1       0.168  -8.450  -2.096  0.00  0.00    -0.075 C 
ATOM     23  C   UNL     1       1.136  -9.147  -1.138  0.00  0.00    -0.014 C 
ATOM     24  C   UNL     1      -0.953  -9.418  -2.482  0.00  0.00    -0.014 C 
ENDBRANCH  19  22
ENDBRANCH  14  16
ENDBRANCH   5  14
TORSDOF 5
