REMARK  Name = ZINC45091464
REMARK  14 active torsions:
REMARK  status: ('A' for Active; 'I' for Inactive)
REMARK    1  A    between atoms: C_1  and  C_2
REMARK    2  A    between atoms: C_2  and  C_3
REMARK    3  A    between atoms: C_3  and  C_4
REMARK    4  A    between atoms: C_4  and  C_5
REMARK    5  A    between atoms: C_4  and  C_8
REMARK    6  A    between atoms: C_4  and  C_12
REMARK    7  A    between atoms: C_5  and  C_6
REMARK    8  A    between atoms: C_6  and  C_7
REMARK    9  A    between atoms: N_9  and  O_10
REMARK   10  A    between atoms: N_14  and  C_15
REMARK   11  A    between atoms: C_15  and  C_16
REMARK   12  A    between atoms: C_16  and  C_17
REMARK   13  A    between atoms: C_17  and  S_18
REMARK   14  A    between atoms: S_18  and  N_21
REMARK                            x       y       z     vdW  Elec       q    Type
REMARK                         _______ _______ _______ _____ _____    ______ ____
ROOT
ATOM      1  C   UNL     1       0.570  -2.284   1.102  0.00  0.00    +0.105 C 
ENDROOT
BRANCH   1   2
ATOM      2  C   UNL     1      -0.822  -2.696   1.508  0.00  0.00    +0.147 C 
ATOM      3  N   UNL     1      -1.766  -1.815   1.564  0.00  0.00    -0.076 NA
ATOM      4  N   UNL     1      -1.087  -4.010   1.820  0.00  0.00    -0.343 N 
ATOM      5  H   UNL     1      -0.371  -4.665   1.815  0.00  0.00    +0.144 HD
ATOM      6  H   UNL     1      -1.991  -4.282   2.046  0.00  0.00    +0.144 HD
BRANCH   3   7
ATOM      7  O   UNL     1      -3.073  -2.202   1.946  0.00  0.00    -0.408 OA
ATOM      8  H   UNL     1      -3.710  -1.475   1.958  0.00  0.00    +0.328 HD
ENDBRANCH   3   7
ENDBRANCH   1   2
BRANCH   1   9
ATOM      9  C   UNL     1       1.039  -3.155  -0.035  0.00  0.00    +0.226 C 
ATOM     10  O   UNL     1       0.315  -4.025  -0.472  0.00  0.00    -0.275 OA
ATOM     11  N   UNL     1       2.264  -2.968  -0.566  0.00  0.00    -0.314 N 
ATOM     12  H   UNL     1       2.843  -2.272  -0.217  0.00  0.00    +0.149 HD
BRANCH  11  13
ATOM     13  C   UNL     1       2.720  -3.815  -1.671  0.00  0.00    +0.106 C 
BRANCH  13  14
ATOM     14  C   UNL     1       4.133  -3.397  -2.084  0.00  0.00    +0.043 C 
BRANCH  14  15
ATOM     15  C   UNL     1       4.610  -4.281  -3.237  0.00  0.00    +0.186 C 
BRANCH  15  16
ATOM     16  S   UNL     1       6.285  -3.786  -3.727  0.00  0.00    +0.027 S 
ATOM     17  O   UNL     1       6.261  -2.492  -4.313  0.00  0.00    -0.158 OA
ATOM     18  O   UNL     1       7.209  -4.095  -2.692  0.00  0.00    -0.158 OA
BRANCH  16  19
ATOM     19  N   UNL     1       6.684  -4.805  -4.969  0.00  0.00    -0.208 NA
ATOM     20  H   UNL     1       6.053  -5.479  -5.266  0.00  0.00    +0.144 HD
ATOM     21  H   UNL     1       7.550  -4.729  -5.400  0.00  0.00    +0.144 HD
ENDBRANCH  16  19
ENDBRANCH  15  16
ENDBRANCH  14  15
ENDBRANCH  13  14
ENDBRANCH  11  13
ENDBRANCH   1   9
BRANCH   1  22
ATOM     22  C   UNL     1       0.558  -0.822   0.652  0.00  0.00    +0.023 C 
BRANCH  22  24
ATOM     23  C   UNL     1      -0.401   0.801  -0.988  0.00  0.00    +0.004 C 
ATOM     24  C   UNL     1      -0.390  -0.661  -0.538  0.00  0.00    -0.002 C 
ENDBRANCH  22  24
ENDBRANCH   1  22
BRANCH   1  25
ATOM     25  C   UNL     1       1.517  -2.444   2.292  0.00  0.00    +0.023 C 
BRANCH  25  26
ATOM     26  C   UNL     1       0.994  -1.626   3.474  0.00  0.00    -0.002 C 
ATOM     27  C   UNL     1       1.883  -1.868   4.696  0.00  0.00    +0.004 C 
ENDBRANCH  25  26
ENDBRANCH   1  25
TORSDOF 12
