REMARK  Name = ZINC01005639
REMARK  7 active torsions:
REMARK  status: ('A' for Active; 'I' for Inactive)
REMARK    1  A    between atoms: C_4  and  C_7
REMARK    2  A    between atoms: C_10  and  C_37
REMARK    3  A    between atoms: C_14  and  C_17
REMARK    4  A    between atoms: N_19  and  C_20
REMARK    5  A    between atoms: C_22  and  N_33
REMARK    6  A    between atoms: C_24  and  O_26
REMARK    7  A    between atoms: O_26  and  C_27
REMARK                            x       y       z     vdW  Elec       q    Type
REMARK                         _______ _______ _______ _____ _____    ______ ____
ROOT
ATOM      1  C   UNL     1       0.174  -3.963  -3.575  0.00  0.00    +0.253 C 
ATOM      2  O   UNL     1       0.350  -3.218  -4.521  0.00  0.00    -0.270 OA
ATOM      3  N   UNL     1       0.779  -5.168  -3.545  0.00  0.00    -0.281 N 
ATOM      4  H   UNL     1       0.724  -5.718  -2.748  0.00  0.00    +0.155 HD
ENDROOT
BRANCH   1  10
ATOM      5  C   UNL     1      -2.466  -0.272  -2.971  0.00  0.00    +0.104 C 
ATOM      6  C   UNL     1      -2.515   0.002  -1.464  0.00  0.00    +0.059 C 
ATOM      7  C   UNL     1      -2.907  -1.278  -0.716  0.00  0.00    +0.177 C 
ATOM      8  N   UNL     1      -2.061  -2.379  -1.187  0.00  0.00    -0.241 N 
ATOM      9  C   UNL     1      -1.380  -2.355  -2.358  0.00  0.00    +0.130 A 
ATOM     10  C   UNL     1      -0.696  -3.551  -2.468  0.00  0.00    +0.096 A 
ATOM     11  C   UNL     1      -0.998  -4.303  -1.304  0.00  0.00    +0.149 A 
ATOM     12  N   UNL     1      -1.805  -3.597  -0.559  0.00  0.00    -0.177 NA
ATOM     13  N   UNL     1      -1.421  -1.280  -3.234  0.00  0.00    -0.322 N 
ATOM     14  H   UNL     1      -0.799  -1.193  -3.974  0.00  0.00    +0.148 HD
BRANCH   5  18
ATOM     15  C   UNL     1      -6.251  -1.754  -4.287  0.00  0.00    +0.000 A 
ATOM     16  C   UNL     1      -5.921  -0.426  -4.487  0.00  0.00    +0.000 A 
ATOM     17  C   UNL     1      -4.696   0.053  -4.061  0.00  0.00    +0.005 A 
ATOM     18  C   UNL     1      -3.802  -0.794  -3.435  0.00  0.00    -0.027 A 
ATOM     19  C   UNL     1      -4.132  -2.122  -3.234  0.00  0.00    +0.005 A 
ATOM     20  C   UNL     1      -5.356  -2.602  -3.661  0.00  0.00    +0.000 A 
ENDBRANCH   5  18
BRANCH   7  21
ATOM     21  C   UNL     1      -2.701  -1.076   0.787  0.00  0.00    +0.365 C 
ATOM     22  F   UNL     1      -3.059  -2.245   1.467  0.00  0.00    -0.207 F 
ATOM     23  F   UNL     1      -1.357  -0.783   1.038  0.00  0.00    -0.207 F 
ENDBRANCH   7  21
ENDBRANCH   1  10
BRANCH   3  24
ATOM     24  C   UNL     1       1.486  -5.624  -4.662  0.00  0.00    +0.039 A 
ATOM     25  C   UNL     1       1.536  -6.983  -4.946  0.00  0.00    +0.056 A 
ATOM     26  C   UNL     1       2.234  -7.433  -6.049  0.00  0.00    +0.131 A 
ATOM     27  C   UNL     1       2.884  -6.534  -6.874  0.00  0.00    +0.079 A 
ATOM     28  C   UNL     1       2.837  -5.176  -6.595  0.00  0.00    +0.132 A 
ATOM     29  C   UNL     1       2.133  -4.719  -5.492  0.00  0.00    +0.069 A 
BRANCH  26  30
ATOM     30  N   UNL     1       2.287  -8.882  -6.349  0.00  0.00    +0.057 N 
ATOM     31  O   UNL     1       1.719  -9.669  -5.629  0.00  0.00    -0.126 OA
ATOM     32  O   UNL     1       2.898  -9.277  -7.315  0.00  0.00    -0.126 OA
ENDBRANCH  26  30
BRANCH  28  33
ATOM     33  O   UNL     1       3.477  -4.293  -7.406  0.00  0.00    -0.456 OA
BRANCH  33  34
ATOM     34  C   UNL     1       4.836  -4.305  -7.417  0.00  0.00    +0.128 A 
ATOM     35  C   UNL     1       5.530  -5.114  -6.529  0.00  0.00    +0.046 A 
ATOM     36  C   UNL     1       6.912  -5.125  -6.542  0.00  0.00    +0.004 A 
ATOM     37  C   UNL     1       7.602  -4.331  -7.439  0.00  0.00    +0.000 A 
ATOM     38  C   UNL     1       6.912  -3.524  -8.325  0.00  0.00    +0.004 A 
ATOM     39  C   UNL     1       5.531  -3.514  -8.320  0.00  0.00    +0.046 A 
ENDBRANCH  33  34
ENDBRANCH  28  33
ENDBRANCH   3  24
TORSDOF 7
