REMARK  Name = ZINC08728308
REMARK  5 active torsions:
REMARK  status: ('A' for Active; 'I' for Inactive)
REMARK    1  A    between atoms: C_1  and  C_2
REMARK    2  A    between atoms: C_5  and  C_7
REMARK    3  A    between atoms: C_15  and  C_18
REMARK    4  A    between atoms: C_18  and  N_50
REMARK    5  A    between atoms: C_27  and  C_29
REMARK                            x       y       z     vdW  Elec       q    Type
REMARK                         _______ _______ _______ _____ _____    ______ ____
ROOT
ATOM      1  C   UNL     1       2.526  10.290  -2.901  0.00  0.00    +0.010 A 
ATOM      2  C   UNL     1       2.066  10.764  -4.086  0.00  0.00    +0.057 A 
ATOM      3  S   UNL     1       0.364  10.233  -4.106  0.00  0.00    -0.078 S 
ATOM      4  C   UNL     1       0.314   9.398  -2.544  0.00  0.00    +0.092 A 
ATOM      5  C   UNL     1       1.610   9.548  -2.042  0.00  0.00    +0.080 A 
ATOM      6  C   UNL     1       1.847   8.930  -0.720  0.00  0.00    +0.282 A 
ATOM      7  O   UNL     1       2.945   9.002  -0.190  0.00  0.00    -0.265 OA
ATOM      8  N   UNL     1       0.837   8.293  -0.108  0.00  0.00    -0.197 NA
ATOM      9  C   UNL     1      -0.348   8.189  -0.642  0.00  0.00    +0.095 A 
ATOM     10  N   UNL     1      -0.637   8.727  -1.843  0.00  0.00    -0.339 N 
ATOM     11  H   UNL     1      -1.530   8.636  -2.210  0.00  0.00    +0.167 HD
ENDROOT
BRANCH   1  16
ATOM     12  C   UNL     1       7.472  11.487  -0.477  0.00  0.00    +0.051 C 
ATOM     13  C   UNL     1       6.296  11.093  -1.332  0.00  0.00    -0.013 A 
ATOM     14  C   UNL     1       6.287  10.597  -2.595  0.00  0.00    +0.011 A 
ATOM     15  C   UNL     1       5.080  10.302  -3.194  0.00  0.00    +0.016 A 
ATOM     16  C   UNL     1       3.927  10.521  -2.489  0.00  0.00    +0.021 A 
ATOM     17  S   UNL     1       4.554  11.165  -0.947  0.00  0.00    -0.093 S 
ENDBRANCH   1  16
BRANCH   9  18
ATOM     18  C   UNL     1      -1.427   7.452   0.109  0.00  0.00    -0.002 C 
BRANCH  18  28
ATOM     19  C   UNL     1      -0.192   5.417   0.539  0.00  0.00    -0.041 C 
ATOM     20  C   UNL     1      -0.157   3.927   0.320  0.00  0.00    -0.061 A 
ATOM     21  C   UNL     1       1.020   3.246   0.598  0.00  0.00    +0.002 A 
ATOM     22  C   UNL     1       1.095   1.880   0.416  0.00  0.00    +0.000 A 
ATOM     23  C   UNL     1      -0.007   1.185  -0.045  0.00  0.00    +0.000 A 
ATOM     24  C   UNL     1      -1.177   1.861  -0.328  0.00  0.00    +0.004 A 
ATOM     25  C   UNL     1      -1.255   3.233  -0.142  0.00  0.00    -0.047 A 
ATOM     26  C   UNL     1      -2.552   3.930  -0.465  0.00  0.00    +0.029 C 
ATOM     27  C   UNL     1      -2.573   5.317   0.177  0.00  0.00    +0.024 C 
ATOM     28  N   UNL     1      -1.322   6.008  -0.198  0.00  0.00    +0.395 N 
ATOM     29  H   UNL     1      -1.163   5.891  -1.205  0.00  0.00    -0.080 HD
BRANCH  27  30
ATOM     30  C   UNL     1      -3.753   6.100  -0.338  0.00  0.00    +0.197 C 
ATOM     31  O   UNL     1      -3.665   6.713  -1.381  0.00  0.00    -0.278 OA
ATOM     32  N   UNL     1      -4.906   6.119   0.359  0.00  0.00    -0.331 N 
ATOM     33  H   UNL     1      -4.976   5.629   1.193  0.00  0.00    +0.145 HD
ATOM     34  H   UNL     1      -5.665   6.623   0.027  0.00  0.00    +0.145 HD
ENDBRANCH  27  30
ENDBRANCH  18  28
ENDBRANCH   9  18
TORSDOF 4
