REMARK  Name = ZINC20294931
REMARK  11 active torsions:
REMARK  status: ('A' for Active; 'I' for Inactive)
REMARK    1  A    between atoms: C_1  and  C_2
REMARK    2  A    between atoms: C_3  and  C_27
REMARK    3  A    between atoms: C_4  and  N_10
REMARK    4  A    between atoms: C_6  and  C_7
REMARK    5  A    between atoms: C_11  and  C_13
REMARK    6  A    between atoms: C_13  and  N_14
REMARK    7  A    between atoms: C_20  and  C_22
REMARK    8  A    between atoms: C_27  and  O_29
REMARK    9  A    between atoms: O_29  and  C_30
REMARK   10  A    between atoms: C_30  and  C_31
REMARK   11  A    between atoms: C_30  and  C_32
REMARK                            x       y       z     vdW  Elec       q    Type
REMARK                         _______ _______ _______ _____ _____    ______ ____
ROOT
ATOM      1  N   UNL     1      -5.508  -2.053  -0.098  0.00  0.00    -0.281 N 
ATOM      2  C   UNL     1      -4.945  -3.277  -0.094  0.00  0.00    +0.201 C 
ATOM      3  O   UNL     1      -3.737  -3.389  -0.120  0.00  0.00    -0.278 OA
ATOM      4  H   UNL     1      -6.603  -1.951  -0.073  0.00  0.00    +0.155 HD
ENDROOT
BRANCH   1   8
ATOM      5  C   UNL     1      -4.432   2.849  -0.189  0.00  0.00    +0.046 C 
ATOM      6  C   UNL     1      -4.100   1.379  -0.177  0.00  0.00    -0.015 A 
ATOM      7  C   UNL     1      -5.100   0.418  -0.141  0.00  0.00    +0.091 A 
ATOM      8  C   UNL     1      -4.710  -0.925  -0.132  0.00  0.00    +0.087 A 
ATOM      9  S   UNL     1      -2.981  -0.828  -0.180  0.00  0.00    -0.068 S 
ATOM     10  C   UNL     1      -2.803   0.946  -0.201  0.00  0.00    +0.079 A 
BRANCH  10  11
ATOM     11  C   UNL     1      -1.574   1.742  -0.241  0.00  0.00    +0.248 C 
ATOM     12  O   UNL     1      -1.636   2.957  -0.257  0.00  0.00    -0.270 OA
ATOM     13  N   UNL     1      -0.374   1.128  -0.261  0.00  0.00    -0.325 N 
ATOM     14  H   UNL     1       0.549   1.725  -0.290  0.00  0.00    +0.145 HD
ATOM     15  H   UNL     1      -0.318   0.029  -0.246  0.00  0.00    +0.145 HD
ENDBRANCH  10  11
BRANCH   7  16
ATOM     16  C   UNL     1      -6.517   0.798  -0.113  0.00  0.00    +0.342 C 
ATOM     17  O   UNL     1      -7.128   0.941  -1.154  0.00  0.00    -0.245 OA
BRANCH  16  18
ATOM     18  O   UNL     1      -7.141   0.988   1.067  0.00  0.00    -0.458 OA
BRANCH  18  19
ATOM     19  C   UNL     1      -8.543   1.362   1.019  0.00  0.00    +0.171 C 
ATOM     20  C   UNL     1      -9.255   0.830   2.264  0.00  0.00    +0.052 C 
ATOM     21  C   UNL     1      -8.662   2.886   0.975  0.00  0.00    +0.052 C 
ENDBRANCH  18  19
ENDBRANCH  16  18
ENDBRANCH   7  16
ENDBRANCH   1   8
BRANCH   2  22
ATOM     22  C   UNL     1      -5.815  -4.507  -0.057  0.00  0.00    +0.019 C 
BRANCH  22  23
ATOM     23  N   UNL     1      -4.968  -5.707  -0.060  0.00  0.00    +0.387 N 
ATOM     24  C   UNL     1      -4.232  -5.828  -1.326  0.00  0.00    -0.059 C 
ATOM     25  C   UNL     1      -3.230  -6.983  -1.221  0.00  0.00    +0.089 C 
ATOM     26  N   UNL     1      -3.953  -8.193  -0.803  0.00  0.00    -0.299 N 
ATOM     27  C   UNL     1      -4.822  -8.111   0.381  0.00  0.00    +0.089 C 
ATOM     28  C   UNL     1      -5.761  -6.912   0.213  0.00  0.00    -0.059 C 
ATOM     29  C   UNL     1      -3.824  -9.347  -1.488  0.00  0.00    +0.282 C 
ATOM     30  O   UNL     1      -4.375 -10.356  -1.089  0.00  0.00    -0.267 OA
ATOM     31  H   UNL     1      -4.228  -5.603   0.748  0.00  0.00    -0.081 HD
BRANCH  29  32
ATOM     32  C   UNL     1      -3.020  -9.386  -2.713  0.00  0.00    +0.189 A 
ATOM     33  C   UNL     1      -2.912 -10.445  -3.569  0.00  0.00    +0.054 A 
ATOM     34  C   UNL     1      -2.046 -10.046  -4.599  0.00  0.00    +0.042 A 
ATOM     35  C   UNL     1      -1.668  -8.777  -4.330  0.00  0.00    +0.196 A 
ATOM     36  O   UNL     1      -2.261  -8.381  -3.196  0.00  0.00    -0.458 OA
ENDBRANCH  29  32
ENDBRANCH  22  23
ENDBRANCH   2  22
TORSDOF 8
