REMARK  Name = ZINC38665432
REMARK  12 active torsions:
REMARK  status: ('A' for Active; 'I' for Inactive)
REMARK    1  A    between atoms: C_1  and  C_2
REMARK    2  A    between atoms: C_2  and  C_3
REMARK    3  A    between atoms: C_3  and  O_42
REMARK    4  A    between atoms: C_9  and  O_30
REMARK    5  A    between atoms: C_11  and  O_14
REMARK    6  A    between atoms: O_14  and  C_15
REMARK    7  A    between atoms: C_18  and  N_27
REMARK    8  A    between atoms: C_20  and  O_26
REMARK    9  A    between atoms: C_22  and  C_25
REMARK   10  A    between atoms: N_27  and  C_28
REMARK   11  A    between atoms: N_27  and  C_29
REMARK   12  A    between atoms: C_38  and  O_39
REMARK                            x       y       z     vdW  Elec       q    Type
REMARK                         _______ _______ _______ _____ _____    ______ ____
ROOT
ATOM      1  C   UNL     1       0.657  -0.379  -1.335  0.00  0.00    +0.072 C 
ATOM      2  C   UNL     1       2.111   0.086  -1.296  0.00  0.00    +0.070 C 
ATOM      3  C   UNL     1       2.931  -0.648  -2.326  0.00  0.00    -0.035 A 
ATOM      4  C   UNL     1       4.160  -0.092  -2.681  0.00  0.00    +0.016 A 
ATOM      5  C   UNL     1       4.972  -0.714  -3.616  0.00  0.00    +0.037 A 
ATOM      6  C   UNL     1       4.549  -1.918  -4.212  0.00  0.00    +0.075 A 
ATOM      7  C   UNL     1       3.318  -2.463  -3.853  0.00  0.00    +0.134 A 
ATOM      8  C   UNL     1       2.510  -1.820  -2.908  0.00  0.00    +0.027 A 
ATOM      9  C   UNL     1       1.187  -2.461  -2.576  0.00  0.00    +0.158 C 
ATOM     10  C   UNL     1       0.637  -1.910  -1.262  0.00  0.00    +0.071 C 
ATOM     11  C   UNL     1       5.412  -2.586  -5.206  0.00  0.00    +0.202 C 
ATOM     12  O   UNL     1       4.968  -3.474  -5.907  0.00  0.00    -0.286 OA
ATOM     13  C   UNL     1       6.819  -2.163  -5.339  0.00  0.00    +0.075 A 
ATOM     14  C   UNL     1       7.246  -0.958  -4.746  0.00  0.00    +0.037 A 
ATOM     15  C   UNL     1       8.571  -0.559  -4.870  0.00  0.00    +0.012 A 
ATOM     16  C   UNL     1       9.467  -1.345  -5.577  0.00  0.00    +0.004 A 
ATOM     17  C   UNL     1       9.057  -2.526  -6.160  0.00  0.00    +0.046 A 
ATOM     18  C   UNL     1       7.733  -2.945  -6.048  0.00  0.00    +0.128 A 
ATOM     19  C   UNL     1       6.277  -0.130  -3.994  0.00  0.00    +0.195 C 
ATOM     20  O   UNL     1       6.550   1.015  -3.693  0.00  0.00    -0.287 OA
ENDROOT
BRANCH   1  22
ATOM     21  C   UNL     1      -0.079   1.732  -0.218  0.00  0.00    +0.007 C 
ATOM     22  C   UNL     1      -0.102   0.204  -0.141  0.00  0.00    +0.032 C 
ENDBRANCH   1  22
BRANCH   7  23
ATOM     23  O   UNL     1       2.901  -3.621  -4.422  0.00  0.00    -0.506 OA
ATOM     24  H   UNL     1       3.171  -4.415  -3.941  0.00  0.00    +0.292 HD
ENDBRANCH   7  23
BRANCH  18  25
ATOM     25  O   UNL     1       7.335  -4.107  -6.622  0.00  0.00    -0.506 OA
ATOM     26  H   UNL     1       7.018  -4.008  -7.530  0.00  0.00    +0.292 HD
ENDBRANCH  18  25
BRANCH   1  27
ATOM     27  O   UNL     1       0.045   0.054  -2.552  0.00  0.00    -0.388 OA
ATOM     28  H   UNL     1       0.031   1.014  -2.666  0.00  0.00    +0.210 HD
ENDBRANCH   1  27
BRANCH   9  29
ATOM     29  O   UNL     1       0.256  -2.190  -3.626  0.00  0.00    -0.343 OA
BRANCH  29  30
ATOM     30  C   UNL     1      -0.642  -3.267  -3.899  0.00  0.00    +0.250 C 
ATOM     31  C   UNL     1      -1.397  -2.985  -5.200  0.00  0.00    +0.049 C 
ATOM     32  C   UNL     1      -2.400  -4.114  -5.454  0.00  0.00    -0.033 C 
ATOM     33  C   UNL     1      -3.340  -4.228  -4.250  0.00  0.00    +0.130 C 
ATOM     34  C   UNL     1      -2.510  -4.462  -2.985  0.00  0.00    +0.145 C 
ATOM     35  O   UNL     1      -1.577  -3.392  -2.825  0.00  0.00    -0.346 OA
ATOM     36  C   UNL     1      -3.438  -4.516  -1.770  0.00  0.00    +0.040 C 
BRANCH  32  37
ATOM     37  N   UNL     1      -3.180  -3.816  -6.663  0.00  0.00    +0.380 N 
ATOM     38  C   UNL     1      -2.275  -3.699  -7.814  0.00  0.00    -0.096 C 
ATOM     39  C   UNL     1      -4.142  -4.900  -6.905  0.00  0.00    -0.096 C 
ATOM     40  H   UNL     1      -3.678  -2.947  -6.536  0.00  0.00    -0.082 HD
ENDBRANCH  32  37
BRANCH  33  41
ATOM     41  O   UNL     1      -4.090  -3.019  -4.114  0.00  0.00    -0.391 OA
ATOM     42  H   UNL     1      -4.707  -3.021  -3.370  0.00  0.00    +0.210 HD
ENDBRANCH  33  41
ENDBRANCH  29  30
ENDBRANCH   9  29
TORSDOF 8
