REMARK  Name = ZINC18200816
REMARK  4 active torsions:
REMARK  status: ('A' for Active; 'I' for Inactive)
REMARK    1  A    between atoms: C_1  and  C_2
REMARK    2  A    between atoms: C_5  and  C_7
REMARK    3  A    between atoms: N_13  and  C_16
REMARK    4  A    between atoms: C_28  and  C_31
REMARK                            x       y       z     vdW  Elec       q    Type
REMARK                         _______ _______ _______ _____ _____    ______ ____
ROOT
ATOM      1  C   UNL     1       1.043  -4.062  -0.027  0.00  0.00    +0.099 C 
ATOM      2  C   UNL     1       1.877  -4.271  -1.260  0.00  0.00    +0.070 A 
ATOM      3  C   UNL     1       3.247  -4.344  -1.218  0.00  0.00    +0.125 A 
ATOM      4  N   UNL     1       3.701  -4.531  -2.487  0.00  0.00    -0.277 N 
ATOM      5  H   UNL     1       4.630  -4.616  -2.754  0.00  0.00    +0.189 HD
ATOM      6  N   UNL     1       2.587  -4.580  -3.340  0.00  0.00    -0.218 N 
ATOM      7  C   UNL     1       1.476  -4.421  -2.587  0.00  0.00    +0.278 A 
ATOM      8  O   UNL     1       0.328  -4.412  -2.996  0.00  0.00    -0.265 OA
ATOM      9  N   UNL     1       3.935  -4.235  -0.033  0.00  0.00    -0.303 N 
ATOM     10  C   UNL     1       3.240  -4.351   1.148  0.00  0.00    +0.017 C 
ATOM     11  C   UNL     1       1.895  -4.287   1.204  0.00  0.00    +0.025 C 
ATOM     12  C   UNL     1       1.214  -4.430   2.429  0.00  0.00    +0.162 C 
ATOM     13  O   UNL     1       0.002  -4.354   2.446  0.00  0.00    -0.292 OA
ATOM     14  C   UNL     1       1.953  -4.675   3.715  0.00  0.00    +0.091 C 
ATOM     15  C   UNL     1       3.267  -5.399   3.403  0.00  0.00    +0.068 C 
ATOM     16  C   UNL     1       4.056  -4.551   2.405  0.00  0.00    +0.063 C 
ATOM     17  H   UNL     1       4.892  -4.080  -0.030  0.00  0.00    +0.153 HD
ENDROOT
BRANCH   1  22
ATOM     18  C   UNL     1      -0.018   1.503   0.010  0.00  0.00    +0.051 C 
ATOM     19  C   UNL     1       0.002  -0.004   0.002  0.00  0.00    -0.013 A 
ATOM     20  C   UNL     1      -1.039  -0.872   0.002  0.00  0.00    +0.011 A 
ATOM     21  C   UNL     1      -0.780  -2.230  -0.007  0.00  0.00    +0.012 A 
ATOM     22  C   UNL     1       0.507  -2.653  -0.016  0.00  0.00    +0.002 A 
ATOM     23  S   UNL     1       1.404  -1.109  -0.018  0.00  0.00    -0.097 S 
ENDBRANCH   1  22
BRANCH   6  24
ATOM     24  C   UNL     1       2.621  -4.761  -4.727  0.00  0.00    +0.067 A 
ATOM     25  C   UNL     1       1.439  -4.784  -5.455  0.00  0.00    +0.028 A 
ATOM     26  C   UNL     1       1.476  -4.962  -6.824  0.00  0.00    +0.002 A 
ATOM     27  C   UNL     1       2.689  -5.119  -7.470  0.00  0.00    +0.000 A 
ATOM     28  C   UNL     1       3.868  -5.096  -6.747  0.00  0.00    +0.002 A 
ATOM     29  C   UNL     1       3.838  -4.912  -5.379  0.00  0.00    +0.028 A 
ENDBRANCH   6  24
BRANCH  15  30
ATOM     30  C   UNL     1       4.066  -5.570   4.669  0.00  0.00    +0.109 A 
ATOM     31  C   UNL     1       4.459  -6.742   5.198  0.00  0.00    +0.045 A 
ATOM     32  C   UNL     1       5.178  -6.439   6.377  0.00  0.00    +0.041 A 
ATOM     33  C   UNL     1       5.181  -5.099   6.498  0.00  0.00    +0.195 A 
ATOM     34  O   UNL     1       4.511  -4.578   5.457  0.00  0.00    -0.468 OA
ENDBRANCH  15  30
TORSDOF 3
