REMARK  Name = ZINC37658847
REMARK  7 active torsions:
REMARK  status: ('A' for Active; 'I' for Inactive)
REMARK    1  A    between atoms: C_1  and  C_2
REMARK    2  A    between atoms: C_2  and  C_4
REMARK    3  A    between atoms: C_2  and  N_14
REMARK    4  A    between atoms: N_14  and  C_15
REMARK    5  A    between atoms: C_15  and  C_16
REMARK    6  A    between atoms: C_16  and  C_17
REMARK    7  A    between atoms: C_17  and  C_18
REMARK                            x       y       z     vdW  Elec       q    Type
REMARK                         _______ _______ _______ _____ _____    ______ ____
ROOT
ATOM      1  C   UNL     1      -0.019   1.526   0.010  0.00  0.00    -0.006 C 
ATOM      2  C   UNL     1       0.002  -0.004   0.002  0.00  0.00    -0.007 C 
ENDROOT
BRANCH   2   3
ATOM      3  C   UNL     1      -1.412  -0.526   0.013  0.00  0.00    +0.092 A 
ATOM      4  C   UNL     1      -2.074  -0.969  -1.064  0.00  0.00    +0.051 A 
ATOM      5  C   UNL     1      -3.402  -1.375  -0.590  0.00  0.00    +0.021 A 
ATOM      6  C   UNL     1      -4.535  -1.907  -1.203  0.00  0.00    +0.027 A 
ATOM      7  C   UNL     1      -5.653  -2.183  -0.446  0.00  0.00    +0.019 A 
ATOM      8  C   UNL     1      -5.653  -1.931   0.919  0.00  0.00    +0.019 A 
ATOM      9  C   UNL     1      -4.539  -1.404   1.537  0.00  0.00    +0.048 A 
ATOM     10  C   UNL     1      -3.401  -1.120   0.792  0.00  0.00    +0.135 A 
ATOM     11  O   UNL     1      -2.189  -0.619   1.105  0.00  0.00    -0.461 OA
ATOM     12 BR   UNL     1      -7.194  -2.905  -1.270  0.00  0.00    -0.050 Br
ENDBRANCH   2   3
BRANCH   2  13
ATOM     13  N   UNL     1       0.713  -0.491   1.192  0.00  0.00    +0.385 N 
ATOM     14  H   UNL     1       0.290  -0.099   2.020  0.00  0.00    -0.085 HD
ATOM     15  H   UNL     1       0.655  -1.497   1.230  0.00  0.00    -0.085 HD
BRANCH  13  16
ATOM     16  C   UNL     1       2.122  -0.083   1.122  0.00  0.00    -0.081 C 
BRANCH  16  17
ATOM     17  C   UNL     1       2.862  -0.589   2.361  0.00  0.00    -0.010 C 
BRANCH  17  18
ATOM     18  C   UNL     1       4.330  -0.164   2.288  0.00  0.00    +0.094 C 
BRANCH  18  19
ATOM     19  C   UNL     1       5.059  -0.663   3.509  0.00  0.00    +0.210 C 
ATOM     20  O   UNL     1       4.463  -1.297   4.355  0.00  0.00    -0.276 OA
ATOM     21  N   UNL     1       6.373  -0.406   3.662  0.00  0.00    -0.329 N 
ATOM     22  H   UNL     1       6.849   0.101   2.986  0.00  0.00    +0.145 HD
ATOM     23  H   UNL     1       6.842  -0.727   4.448  0.00  0.00    +0.145 HD
ENDBRANCH  18  19
ENDBRANCH  17  18
ENDBRANCH  16  17
ENDBRANCH  13  16
ENDBRANCH   2  13
TORSDOF 6
