REMARK  Name = ZINC19312326
REMARK  8 active torsions:
REMARK  status: ('A' for Active; 'I' for Inactive)
REMARK    1  A    between atoms: C_1  and  C_2
REMARK    2  A    between atoms: C_3  and  C_32
REMARK    3  A    between atoms: C_5  and  N_24
REMARK    4  A    between atoms: C_6  and  C_7
REMARK    5  A    between atoms: C_7  and  C_9
REMARK    6  A    between atoms: C_7  and  N_17
REMARK    7  A    between atoms: N_20  and  C_23
REMARK    8  A    between atoms: C_25  and  C_27
REMARK                            x       y       z     vdW  Elec       q    Type
REMARK                         _______ _______ _______ _____ _____    ______ ____
ROOT
ATOM      1  C   UNL     1       2.523   1.017  -0.030  0.00  0.00    +0.121 C 
ENDROOT
BRANCH   1   2
ATOM      2  C   UNL     1       1.119   1.563  -0.005  0.00  0.00    -0.006 A 
ATOM      3  C   UNL     1       0.045   0.704   0.134  0.00  0.00    +0.007 A 
ATOM      4  C   UNL     1      -1.244   1.204   0.150  0.00  0.00    +0.002 A 
ATOM      5  C   UNL     1      -1.460   2.565   0.039  0.00  0.00    +0.021 A 
ATOM      6  C   UNL     1      -0.386   3.426  -0.101  0.00  0.00    +0.060 A 
ATOM      7  C   UNL     1       0.904   2.924  -0.123  0.00  0.00    +0.064 A 
ATOM      8 CL   UNL     1       2.252   4.004  -0.297  0.00  0.00    -0.082 Cl
ATOM      9 CL   UNL     1      -0.657   5.134  -0.247  0.00  0.00    -0.082 Cl
ENDBRANCH   1   2
BRANCH   1  10
ATOM     10  N   UNL     1       2.508  -0.349  -0.572  0.00  0.00    -0.295 NA
ATOM     11  C   UNL     1       3.849  -0.948  -0.527  0.00  0.00    +0.067 C 
ATOM     12  C   UNL     1       3.775  -2.393  -1.025  0.00  0.00    -0.064 C 
ATOM     13  N   UNL     1       3.239  -2.411  -2.393  0.00  0.00    +0.379 N 
ATOM     14  C   UNL     1       1.898  -1.812  -2.438  0.00  0.00    -0.064 C 
ATOM     15  C   UNL     1       1.971  -0.366  -1.940  0.00  0.00    +0.067 C 
ATOM     16  C   UNL     1       3.224  -3.776  -2.935  0.00  0.00    -0.096 C 
ATOM     17  H   UNL     1       3.903  -1.805  -3.026  0.00  0.00    -0.082 HD
ENDBRANCH   1  10
BRANCH   1  23
ATOM     18  C   UNL     1       4.583   2.913   0.777  0.00  0.00    +0.045 C 
ATOM     19  C   UNL     1       4.055   1.895   1.755  0.00  0.00    -0.034 A 
ATOM     20  C   UNL     1       4.532   1.848   3.022  0.00  0.00    -0.008 A 
ATOM     21  S   UNL     1       3.593   0.502   3.725  0.00  0.00    -0.078 S 
ATOM     22  C   UNL     1       2.622   0.092   2.284  0.00  0.00    +0.078 A 
ATOM     23  C   UNL     1       3.078   0.995   1.371  0.00  0.00    +0.006 A 
ATOM     24  C   UNL     1       5.584   2.710   3.671  0.00  0.00    +0.052 C 
BRANCH  22  25
ATOM     25  N   UNL     1       1.649  -0.898   2.132  0.00  0.00    -0.273 N 
ATOM     26  C   UNL     1       1.336  -1.700   3.168  0.00  0.00    +0.284 C 
ATOM     27  O   UNL     1       1.902  -1.562   4.237  0.00  0.00    -0.266 OA
ATOM     28  H   UNL     1       1.137  -1.022   1.166  0.00  0.00    +0.156 HD
BRANCH  26  29
ATOM     29  C   UNL     1       0.314  -2.739   3.009  0.00  0.00    +0.189 A 
ATOM     30  C   UNL     1      -0.097  -3.616   3.972  0.00  0.00    +0.054 A 
ATOM     31  C   UNL     1      -1.083  -4.426   3.387  0.00  0.00    +0.042 A 
ATOM     32  C   UNL     1      -1.229  -4.013   2.108  0.00  0.00    +0.196 A 
ATOM     33  O   UNL     1      -0.390  -2.993   1.886  0.00  0.00    -0.458 OA
ENDBRANCH  26  29
ENDBRANCH  22  25
ENDBRANCH   1  23
TORSDOF 5
