REMARK  Name = ZINC02838753
REMARK  9 active torsions:
REMARK  status: ('A' for Active; 'I' for Inactive)
REMARK    1  A    between atoms: C_1  and  C_2
REMARK    2  A    between atoms: C_2  and  C_3
REMARK    3  A    between atoms: C_6  and  C_9
REMARK    4  A    between atoms: C_9  and  C_11
REMARK    5  A    between atoms: C_9  and  N_23
REMARK    6  A    between atoms: C_17  and  C_22
REMARK    7  A    between atoms: C_20  and  O_21
REMARK    8  A    between atoms: N_23  and  C_24
REMARK    9  A    between atoms: C_26  and  C_29
REMARK                            x       y       z     vdW  Elec       q    Type
REMARK                         _______ _______ _______ _____ _____    ______ ____
ROOT
ATOM      1  C   UNL     1       4.797   4.114  -0.022  0.00  0.00    +0.136 C 
ENDROOT
BRANCH   1   2
ATOM      2  C   UNL     1       3.570   3.241   0.016  0.00  0.00    +0.021 A 
ATOM      3  C   UNL     1       3.705   1.861  -0.121  0.00  0.00    +0.010 A 
ATOM      4  C   UNL     1       2.615   1.045  -0.091  0.00  0.00    +0.010 A 
ATOM      5  C   UNL     1       1.335   1.597   0.080  0.00  0.00    +0.004 A 
ATOM      6  C   UNL     1       0.186   0.785   0.116  0.00  0.00    +0.012 A 
ATOM      7  C   UNL     1      -1.026   1.392   0.280  0.00  0.00    +0.023 A 
ATOM      8  C   UNL     1      -1.098   2.777   0.414  0.00  0.00    +0.039 A 
ATOM      9  N   UNL     1      -0.025   3.529   0.381  0.00  0.00    -0.248 NA
ATOM     10  C   UNL     1       1.190   2.999   0.219  0.00  0.00    +0.113 A 
ATOM     11  C   UNL     1       2.341   3.814   0.183  0.00  0.00    +0.148 A 
ATOM     12  C   UNL     1      -2.445   3.427   0.599  0.00  0.00    +0.065 C 
BRANCH  11  13
ATOM     13  O   UNL     1       2.229   5.161   0.315  0.00  0.00    -0.504 OA
ATOM     14  H   UNL     1       2.114   5.630  -0.523  0.00  0.00    +0.292 HD
ENDBRANCH  11  13
ENDBRANCH   1   2
BRANCH   1  18
ATOM     15  C   UNL     1       5.439   5.497  -4.012  0.00  0.00    -0.048 A 
ATOM     16  C   UNL     1       4.956   6.363  -3.050  0.00  0.00    +0.004 A 
ATOM     17  C   UNL     1       4.748   5.916  -1.758  0.00  0.00    +0.006 A 
ATOM     18  C   UNL     1       5.024   4.602  -1.430  0.00  0.00    -0.023 A 
ATOM     19  C   UNL     1       5.512   3.736  -2.391  0.00  0.00    +0.006 A 
ATOM     20  C   UNL     1       5.715   4.183  -3.683  0.00  0.00    +0.004 A 
BRANCH  15  22
ATOM     21  C   UNL     1       7.095   6.519  -5.550  0.00  0.00    +0.009 C 
ATOM     22  C   UNL     1       5.667   5.985  -5.420  0.00  0.00    +0.032 C 
ENDBRANCH  15  22
ENDBRANCH   1  18
BRANCH   1  23
ATOM     23  N   UNL     1       5.960   3.341   0.420  0.00  0.00    -0.320 N 
ATOM     24  H   UNL     1       6.563   2.954  -0.235  0.00  0.00    +0.148 HD
BRANCH  23  25
ATOM     25  C   UNL     1       6.200   3.160   1.777  0.00  0.00    +0.097 A 
ATOM     26  C   UNL     1       5.394   3.802   2.711  0.00  0.00    +0.045 A 
ATOM     27  C   UNL     1       5.643   3.614   4.058  0.00  0.00    -0.046 A 
ATOM     28  C   UNL     1       6.696   2.786   4.428  0.00  0.00    +0.021 A 
ATOM     29  C   UNL     1       7.456   2.180   3.448  0.00  0.00    +0.084 A 
ATOM     30  C   UNL     1       4.793   4.291   5.102  0.00  0.00    +0.044 C 
ATOM     31  N   UNL     1       7.235   2.338   2.115  0.00  0.00    -0.350 N 
ATOM     32  H   UNL     1       7.812   1.868   1.407  0.00  0.00    +0.166 HD
ENDBRANCH  23  25
ENDBRANCH   1  23
TORSDOF 6
