REMARK  Name = ZINC67373400
REMARK  8 active torsions:
REMARK  status: ('A' for Active; 'I' for Inactive)
REMARK    1  A    between atoms: C_3  and  N_14
REMARK    2  A    between atoms: C_4  and  S_10
REMARK    3  A    between atoms: C_6  and  N_7
REMARK    4  A    between atoms: S_10  and  N_13
REMARK    5  A    between atoms: N_14  and  C_15
REMARK    6  A    between atoms: C_15  and  C_16
REMARK    7  A    between atoms: N_21  and  C_22
REMARK    8  A    between atoms: C_22  and  C_23
REMARK                            x       y       z     vdW  Elec       q    Type
REMARK                         _______ _______ _______ _____ _____    ______ ____
ROOT
ATOM      1  N   UNL     1       3.692   2.321  -0.566  0.00  0.00    -0.344 N 
ATOM      2  H   UNL     1       3.799   1.984  -1.469  0.00  0.00    +0.146 HD
ENDROOT
BRANCH   1   5
ATOM      3  C   UNL     1       3.281   1.019   2.846  0.00  0.00    +0.034 A 
ATOM      4  C   UNL     1       3.477   1.901   1.801  0.00  0.00    +0.027 A 
ATOM      5  C   UNL     1       3.496   1.432   0.493  0.00  0.00    +0.054 A 
ATOM      6  C   UNL     1       3.318   0.078   0.241  0.00  0.00    +0.128 A 
ATOM      7  C   UNL     1       3.123  -0.798   1.291  0.00  0.00    +0.063 A 
ATOM      8  C   UNL     1       3.105  -0.329   2.592  0.00  0.00    +0.128 A 
BRANCH   8   9
ATOM      9  N   UNL     1       2.896  -1.270   3.714  0.00  0.00    +0.056 N 
ATOM     10  O   UNL     1       2.879  -0.861   4.851  0.00  0.00    -0.126 OA
ATOM     11  O   UNL     1       2.741  -2.449   3.493  0.00  0.00    -0.126 OA
ENDBRANCH   8   9
BRANCH   6  12
ATOM     12  S   UNL     1       3.341  -0.522  -1.415  0.00  0.00    +0.058 S 
ATOM     13  O   UNL     1       4.500   0.024  -2.029  0.00  0.00    -0.153 OA
ATOM     14  O   UNL     1       3.103  -1.921  -1.344  0.00  0.00    -0.153 OA
BRANCH  12  15
ATOM     15  N   UNL     1       2.038   0.140  -2.193  0.00  0.00    -0.203 NA
ATOM     16  H   UNL     1       1.481   0.792  -1.739  0.00  0.00    +0.144 HD
ATOM     17  H   UNL     1       1.830  -0.124  -3.103  0.00  0.00    +0.144 HD
ENDBRANCH  12  15
ENDBRANCH   6  12
ENDBRANCH   1   5
BRANCH   1  18
ATOM     18  C   UNL     1       3.738   3.764  -0.313  0.00  0.00    +0.086 C 
BRANCH  18  19
ATOM     19  C   UNL     1       5.153   4.162   0.112  0.00  0.00    -0.051 C 
ATOM     20  C   UNL     1       5.245   5.696   0.256  0.00  0.00    -0.016 C 
ATOM     21  C   UNL     1       6.657   6.015  -0.301  0.00  0.00    -0.020 C 
ATOM     22  C   UNL     1       6.784   4.978  -1.444  0.00  0.00    -0.078 C 
ATOM     23  N   UNL     1       6.120   3.759  -0.925  0.00  0.00    +0.383 N 
ATOM     24  H   UNL     1       5.637   3.288  -1.675  0.00  0.00    -0.081 HD
BRANCH  23  25
ATOM     25  C   UNL     1       7.122   2.857  -0.342  0.00  0.00    -0.075 C 
BRANCH  25  26
ATOM     26  C   UNL     1       8.035   2.324  -1.448  0.00  0.00    -0.028 C 
ATOM     27  C   UNL     1       7.221   1.450  -2.404  0.00  0.00    +0.002 C 
ATOM     28  C   UNL     1       8.133   0.917  -3.511  0.00  0.00    +0.000 C 
ATOM     29  C   UNL     1       9.257   0.085  -2.889  0.00  0.00    +0.000 C 
ATOM     30  C   UNL     1      10.071   0.960  -1.933  0.00  0.00    +0.000 C 
ATOM     31  C   UNL     1       9.158   1.492  -0.827  0.00  0.00    +0.002 C 
ENDBRANCH  25  26
ENDBRANCH  23  25
ENDBRANCH  18  19
ENDBRANCH   1  18
TORSDOF 8
