REMARK  Name = ZINC38551111
REMARK  9 active torsions:
REMARK  status: ('A' for Active; 'I' for Inactive)
REMARK    1  A    between atoms: C_1  and  C_2
REMARK    2  A    between atoms: C_6  and  N_8
REMARK    3  A    between atoms: N_8  and  C_9
REMARK    4  A    between atoms: C_9  and  C_11
REMARK    5  A    between atoms: C_9  and  C_19
REMARK    6  A    between atoms: C_14  and  S_17
REMARK    7  A    between atoms: S_17  and  C_18
REMARK    8  A    between atoms: C_23  and  N_24
REMARK    9  A    between atoms: C_25  and  C_27
REMARK                            x       y       z     vdW  Elec       q    Type
REMARK                         _______ _______ _______ _____ _____    ______ ____
ROOT
ATOM      1  C   UNL     1       0.230  -4.189   2.529  0.00  0.00    +0.135 C 
ENDROOT
BRANCH   1   2
ATOM      2  C   UNL     1      -1.025  -4.796   1.956  0.00  0.00    +0.009 A 
ATOM      3  C   UNL     1      -1.683  -5.818   2.642  0.00  0.00    -0.030 A 
ATOM      4  C   UNL     1      -2.808  -6.315   2.061  0.00  0.00    -0.005 A 
ATOM      5  S   UNL     1      -2.966  -5.375   0.566  0.00  0.00    -0.078 S 
ATOM      6  C   UNL     1      -1.521  -4.346   0.773  0.00  0.00    +0.078 A 
ATOM      7  C   UNL     1      -3.695  -7.402   2.575  0.00  0.00    +0.043 C 
ATOM      8  C   UNL     1      -2.949  -8.144   3.695  0.00  0.00    +0.005 C 
ATOM      9  C   UNL     1      -2.351  -7.111   4.655  0.00  0.00    +0.005 C 
ATOM     10  C   UNL     1      -1.196  -6.374   3.976  0.00  0.00    +0.036 C 
BRANCH   6  11
ATOM     11  N   UNL     1      -1.028  -3.342  -0.063  0.00  0.00    -0.273 N 
ATOM     12  C   UNL     1      -1.707  -2.998  -1.176  0.00  0.00    +0.284 C 
ATOM     13  O   UNL     1      -2.795  -3.494  -1.402  0.00  0.00    -0.266 OA
ATOM     14  H   UNL     1      -0.197  -2.892   0.157  0.00  0.00    +0.156 HD
BRANCH  12  15
ATOM     15  C   UNL     1      -1.134  -2.027  -2.113  0.00  0.00    +0.189 A 
ATOM     16  C   UNL     1      -1.752  -1.520  -3.220  0.00  0.00    +0.054 A 
ATOM     17  C   UNL     1      -0.844  -0.631  -3.818  0.00  0.00    +0.042 A 
ATOM     18  C   UNL     1       0.274  -0.635  -3.058  0.00  0.00    +0.196 A 
ATOM     19  O   UNL     1       0.093  -1.473  -2.029  0.00  0.00    -0.458 OA
ENDBRANCH  12  15
ENDBRANCH   6  11
ENDBRANCH   1   2
BRANCH   1  20
ATOM     20  C   UNL     1       1.431  -4.744   1.808  0.00  0.00    -0.023 A 
ATOM     21  C   UNL     1       1.903  -4.116   0.669  0.00  0.00    +0.007 A 
ATOM     22  C   UNL     1       3.003  -4.622   0.005  0.00  0.00    +0.015 A 
ATOM     23  C   UNL     1       3.636  -5.763   0.483  0.00  0.00    +0.008 A 
ATOM     24  C   UNL     1       3.160  -6.391   1.627  0.00  0.00    +0.015 A 
ATOM     25  C   UNL     1       2.062  -5.877   2.289  0.00  0.00    +0.007 A 
BRANCH  23  26
ATOM     26  S   UNL     1       5.040  -6.413  -0.361  0.00  0.00    -0.129 S 
ATOM     27  C   UNL     1       5.505  -7.869   0.616  0.00  0.00    +0.090 C 
ENDBRANCH  23  26
ENDBRANCH   1  20
BRANCH   1  28
ATOM     28  N   UNL     1       0.189  -2.734   2.361  0.00  0.00    -0.320 N 
ATOM     29  H   UNL     1       0.631  -2.321   1.603  0.00  0.00    +0.148 HD
BRANCH  28  35
ATOM     30  C   UNL     1      -0.928   1.653   3.917  0.00  0.00    +0.063 C 
ATOM     31  C   UNL     1      -1.038   0.157   4.060  0.00  0.00    +0.014 A 
ATOM     32  C   UNL     1      -1.789  -0.376   5.089  0.00  0.00    +0.021 A 
ATOM     33  C   UNL     1      -1.886  -1.755   5.216  0.00  0.00    +0.005 A 
ATOM     34  C   UNL     1      -1.222  -2.551   4.300  0.00  0.00    +0.041 A 
ATOM     35  C   UNL     1      -0.483  -1.946   3.288  0.00  0.00    +0.097 A 
ATOM     36  N   UNL     1      -0.419  -0.627   3.197  0.00  0.00    -0.347 N 
ATOM     37  H   UNL     1       0.099  -0.226   2.482  0.00  0.00    +0.167 HD
ENDBRANCH  28  35
ENDBRANCH   1  28
TORSDOF 7
