REMARK  Name = ZINC34750193
REMARK  11 active torsions:
REMARK  status: ('A' for Active; 'I' for Inactive)
REMARK    1  A    between atoms: C_1  and  C_2
REMARK    2  A    between atoms: C_2  and  N_3
REMARK    3  A    between atoms: N_3  and  C_4
REMARK    4  A    between atoms: C_4  and  C_5
REMARK    5  A    between atoms: C_6  and  C_8
REMARK    6  A    between atoms: C_8  and  S_9
REMARK    7  A    between atoms: S_9  and  C_10
REMARK    8  A    between atoms: C_21  and  C_23
REMARK    9  A    between atoms: C_21  and  C_24
REMARK   10  A    between atoms: N_28  and  C_31
REMARK   11  A    between atoms: C_31  and  C_32
REMARK                            x       y       z     vdW  Elec       q    Type
REMARK                         _______ _______ _______ _____ _____    ______ ____
ROOT
ATOM      1  C   UNL     1      -5.609  -2.087   2.754  0.00  0.00    +0.191 A 
ATOM      2  N   UNL     1      -6.312  -2.351   3.849  0.00  0.00    -0.206 NA
ATOM      3  C   UNL     1      -7.548  -2.817   3.795  0.00  0.00    +0.134 A 
ATOM      4  C   UNL     1      -8.152  -3.046   2.526  0.00  0.00    +0.051 A 
ATOM      5  C   UNL     1      -9.489  -3.553   2.225  0.00  0.00    -0.020 A 
ATOM      6  C   UNL     1      -9.820  -3.679   0.922  0.00  0.00    +0.021 A 
ATOM      7  S   UNL     1      -8.391  -3.138   0.029  0.00  0.00    -0.071 S 
ATOM      8  C   UNL     1      -7.347  -2.744   1.409  0.00  0.00    +0.115 A 
ATOM      9  N   UNL     1      -6.122  -2.276   1.545  0.00  0.00    -0.214 NA
ATOM     10  C   UNL     1     -11.126  -4.176   0.384  0.00  0.00    +0.203 C 
ATOM     11  O   UNL     1     -11.844  -4.792   1.465  0.00  0.00    -0.368 OA
ATOM     12  C   UNL     1     -11.889  -3.990   2.648  0.00  0.00    +0.068 C 
ATOM     13  C   UNL     1     -10.504  -3.935   3.300  0.00  0.00    +0.071 C 
ATOM     14  C   UNL     1     -12.335  -2.572   2.285  0.00  0.00    +0.041 C 
ATOM     15  C   UNL     1     -12.890  -4.596   3.634  0.00  0.00    +0.041 C 
ATOM     16  N   UNL     1      -8.248  -3.079   4.959  0.00  0.00    -0.318 N 
ATOM     17  C   UNL     1      -8.277  -4.433   5.535  0.00  0.00    +0.088 C 
ATOM     18  C   UNL     1      -7.907  -4.337   7.019  0.00  0.00    -0.059 C 
ATOM     19  N   UNL     1      -8.797  -3.376   7.683  0.00  0.00    +0.387 N 
ATOM     20  C   UNL     1      -8.580  -2.031   7.135  0.00  0.00    -0.059 C 
ATOM     21  C   UNL     1      -8.978  -2.012   5.659  0.00  0.00    +0.088 C 
ATOM     22  H   UNL     1      -9.757  -3.649   7.533  0.00  0.00    -0.081 HD
ENDROOT
BRANCH   1  23
ATOM     23  S   UNL     1      -3.967  -1.468   2.909  0.00  0.00    -0.077 S 
BRANCH  23  24
ATOM     24  C   UNL     1      -3.414  -1.253   1.195  0.00  0.00    +0.173 C 
BRANCH  24  26
ATOM     25  N   UNL     1      -1.383  -0.482   0.012  0.00  0.00    -0.301 N 
ATOM     26  C   UNL     1      -2.005  -0.721   1.184  0.00  0.00    +0.226 C 
ATOM     27  O   UNL     1      -1.429  -0.507   2.230  0.00  0.00    -0.275 OA
BRANCH  25  29
ATOM     28  C   UNL     1      -0.045   1.565   0.003  0.00  0.00    +0.024 C 
ATOM     29  C   UNL     1      -0.013   0.036   0.002  0.00  0.00    +0.104 C 
ENDBRANCH  25  29
BRANCH  25  30
ATOM     30  C   UNL     1      -2.079  -0.739  -1.251  0.00  0.00    +0.104 C 
ATOM     31  C   UNL     1      -1.811  -2.179  -1.696  0.00  0.00    +0.024 C 
ENDBRANCH  25  30
ENDBRANCH  24  26
ENDBRANCH  23  24
ENDBRANCH   1  23
BRANCH  19  32
ATOM     32  C   UNL     1      -8.515  -3.366   9.125  0.00  0.00    +0.019 C 
BRANCH  32  33
ATOM     33  C   UNL     1      -9.507  -2.474   9.825  0.00  0.00    +0.199 C 
ATOM     34  O   UNL     1     -10.365  -1.902   9.185  0.00  0.00    -0.278 OA
ATOM     35  N   UNL     1      -9.441  -2.311  11.161  0.00  0.00    -0.300 N 
ATOM     36  C   UNL     1      -8.774  -2.624  12.427  0.00  0.00    +0.126 C 
ATOM     37  C   UNL     1      -9.984  -1.690  12.372  0.00  0.00    +0.126 C 
ENDBRANCH  32  33
ENDBRANCH  19  32
TORSDOF 7
