REMARK  Name = ZINC16136377
REMARK  6 active torsions:
REMARK  status: ('A' for Active; 'I' for Inactive)
REMARK    1  A    between atoms: C_1  and  N_2
REMARK    2  A    between atoms: C_1  and  N_7
REMARK    3  A    between atoms: N_2  and  N_3
REMARK    4  A    between atoms: N_13  and  C_14
REMARK    5  A    between atoms: C_14  and  N_15
REMARK    6  A    between atoms: N_15  and  N_16
REMARK                            x       y       z     vdW  Elec       q    Type
REMARK                         _______ _______ _______ _____ _____    ______ ____
ROOT
ATOM      1  N   UNL     1      -2.295   4.145   0.035  0.00  0.00    -0.253 N 
ATOM      2  C   UNL     1      -2.905   4.475  -1.127  0.00  0.00    +0.144 A 
ATOM      3  S   UNL     1      -2.378   4.212  -2.735  0.00  0.00    -0.023 S 
ATOM      4  S   UNL     1      -4.404   5.254  -0.547  0.00  0.00    -0.036 S 
ATOM      5  C   UNL     1      -4.105   5.092   1.206  0.00  0.00    +0.144 A 
ATOM      6  S   UNL     1      -5.080   5.601   2.518  0.00  0.00    -0.023 S 
ATOM      7  N   UNL     1      -2.907   4.463   1.227  0.00  0.00    -0.253 N 
ENDROOT
BRANCH   1   8
ATOM      8  C   UNL     1      -0.998   3.464   0.026  0.00  0.00    +0.245 C 
BRANCH   8   9
ATOM      9  N   UNL     1      -1.208   2.010   0.019  0.00  0.00    -0.218 NA
ATOM     10  H   UNL     1      -1.777   1.724   0.801  0.00  0.00    +0.146 HD
BRANCH   9  11
ATOM     11  N   UNL     1      -0.016   1.344   0.009  0.00  0.00    -0.233 N 
ATOM     12  C   UNL     1       0.002  -0.004   0.002  0.00  0.00    +0.311 C 
ATOM     13  O   UNL     1       1.063  -0.598  -0.011  0.00  0.00    -0.252 OA
ATOM     14  N   UNL     1      -1.156  -0.694   0.009  0.00  0.00    -0.312 N 
ATOM     15  H   UNL     1       0.817   1.840   0.004  0.00  0.00    +0.171 HD
ATOM     16  H   UNL     1      -2.002  -0.220   0.020  0.00  0.00    +0.147 HD
ATOM     17  H   UNL     1      -1.143  -1.664   0.004  0.00  0.00    +0.147 HD
ENDBRANCH   9  11
ENDBRANCH   8   9
ENDBRANCH   1   8
BRANCH   7  18
ATOM     18  C   UNL     1      -2.269   4.124   2.501  0.00  0.00    +0.245 C 
BRANCH  18  19
ATOM     19  N   UNL     1      -1.412   5.237   2.931  0.00  0.00    -0.218 NA
ATOM     20  H   UNL     1      -0.733   5.466   2.220  0.00  0.00    +0.146 HD
BRANCH  19  21
ATOM     21  N   UNL     1      -0.800   4.954   4.119  0.00  0.00    -0.233 N 
ATOM     22  C   UNL     1       0.030   5.854   4.681  0.00  0.00    +0.311 C 
ATOM     23  O   UNL     1       0.574   5.602   5.739  0.00  0.00    -0.252 OA
ATOM     24  N   UNL     1       0.257   7.034   4.071  0.00  0.00    -0.312 N 
ATOM     25  H   UNL     1      -0.964   4.104   4.558  0.00  0.00    +0.171 HD
ATOM     26  H   UNL     1      -0.177   7.236   3.227  0.00  0.00    +0.147 HD
ATOM     27  H   UNL     1       0.855   7.682   4.476  0.00  0.00    +0.147 HD
ENDBRANCH  19  21
ENDBRANCH  18  19
ENDBRANCH   7  18
TORSDOF 6
