REMARK  Name = ZINC54440398
REMARK  9 active torsions:
REMARK  status: ('A' for Active; 'I' for Inactive)
REMARK    1  A    between atoms: C_1  and  C_2
REMARK    2  A    between atoms: C_2  and  C_4
REMARK    3  A    between atoms: C_2  and  N_10
REMARK    4  A    between atoms: C_13  and  N_16
REMARK    5  A    between atoms: N_19  and  C_20
REMARK    6  A    between atoms: C_25  and  O_26
REMARK    7  A    between atoms: O_26  and  C_27
REMARK    8  A    between atoms: C_27  and  C_28
REMARK    9  A    between atoms: C_28  and  C_29
REMARK                            x       y       z     vdW  Elec       q    Type
REMARK                         _______ _______ _______ _____ _____    ______ ____
ROOT
ATOM      1  N   UNL     1       1.815  -3.165   3.068  0.00  0.00    -0.298 N 
ATOM      2  C   UNL     1       1.763  -4.006   4.120  0.00  0.00    +0.304 C 
ATOM      3  O   UNL     1       0.720  -4.160   4.725  0.00  0.00    -0.253 OA
ATOM      4  N   UNL     1       2.868  -4.676   4.501  0.00  0.00    -0.266 N 
ATOM      5  H   UNL     1       2.647  -3.043   2.585  0.00  0.00    +0.150 HD
ATOM      6  H   UNL     1       3.683  -4.604   3.981  0.00  0.00    +0.156 HD
ENDROOT
BRANCH   1  10
ATOM      7  N   UNL     1       0.699  -0.522   1.162  0.00  0.00    +0.385 N 
ATOM      8  C   UNL     1      -0.032  -0.118   2.390  0.00  0.00    -0.076 C 
ATOM      9  C   UNL     1       0.481  -1.121   3.454  0.00  0.00    +0.002 C 
ATOM     10  C   UNL     1       0.613  -2.436   2.653  0.00  0.00    +0.056 C 
ATOM     11  C   UNL     1       0.731  -2.001   1.181  0.00  0.00    -0.056 C 
ATOM     12  H   UNL     1       1.637  -0.153   1.177  0.00  0.00    -0.081 HD
BRANCH   7  14
ATOM     13  C   UNL     1      -0.039   1.483  -0.035  0.00  0.00    -0.008 C 
ATOM     14  C   UNL     1      -0.015  -0.047  -0.031  0.00  0.00    -0.041 C 
BRANCH  14  15
ATOM     15  C   UNL     1       0.691  -0.541  -1.268  0.00  0.00    -0.061 A 
ATOM     16  C   UNL     1       2.072  -0.559  -1.316  0.00  0.00    +0.002 A 
ATOM     17  C   UNL     1       2.719  -1.012  -2.450  0.00  0.00    +0.000 A 
ATOM     18  C   UNL     1       1.984  -1.448  -3.537  0.00  0.00    +0.000 A 
ATOM     19  C   UNL     1       0.603  -1.431  -3.489  0.00  0.00    +0.000 A 
ATOM     20  C   UNL     1      -0.044  -0.982  -2.353  0.00  0.00    +0.002 A 
ENDBRANCH  14  15
ENDBRANCH   7  14
ENDBRANCH   1  10
BRANCH   4  21
ATOM     21  C   UNL     1       2.840  -5.479   5.651  0.00  0.00    +0.077 A 
ATOM     22  C   UNL     1       1.685  -6.170   5.988  0.00  0.00    +0.027 A 
ATOM     23  C   UNL     1       1.659  -6.960   7.121  0.00  0.00    +0.002 A 
ATOM     24  C   UNL     1       2.782  -7.064   7.921  0.00  0.00    +0.004 A 
ATOM     25  C   UNL     1       3.936  -6.378   7.592  0.00  0.00    +0.047 A 
ATOM     26  C   UNL     1       3.972  -5.588   6.454  0.00  0.00    +0.142 A 
BRANCH  26  27
ATOM     27  O   UNL     1       5.108  -4.918   6.125  0.00  0.00    -0.490 OA
BRANCH  27  28
ATOM     28  C   UNL     1       6.231  -5.077   6.995  0.00  0.00    +0.238 C 
BRANCH  28  29
ATOM     29  C   UNL     1       7.407  -4.254   6.467  0.00  0.00    +0.136 C 
BRANCH  29  30
ATOM     30  C   UNL     1       8.590  -4.422   7.384  0.00  0.00    +0.214 C 
ATOM     31  O   UNL     1       8.502  -5.131   8.364  0.00  0.00    -0.276 OA
ATOM     32  N   UNL     1       9.747  -3.785   7.116  0.00  0.00    -0.329 N 
ATOM     33  H   UNL     1       9.818  -3.218   6.332  0.00  0.00    +0.145 HD
ATOM     34  H   UNL     1      10.509  -3.893   7.707  0.00  0.00    +0.145 HD
ENDBRANCH  29  30
ENDBRANCH  28  29
ENDBRANCH  27  28
ENDBRANCH  26  27
ENDBRANCH   4  21
TORSDOF 8
