REMARK  Name = ZINC63376184
REMARK  7 active torsions:
REMARK  status: ('A' for Active; 'I' for Inactive)
REMARK    1  A    between atoms: C_1  and  C_2
REMARK    2  A    between atoms: C_2  and  C_4
REMARK    3  A    between atoms: C_2  and  N_15
REMARK    4  A    between atoms: N_6  and  C_7
REMARK    5  A    between atoms: C_7  and  C_8
REMARK    6  A    between atoms: C_8  and  C_9
REMARK    7  A    between atoms: C_16  and  C_18
REMARK                            x       y       z     vdW  Elec       q    Type
REMARK                         _______ _______ _______ _____ _____    ______ ____
ROOT
ATOM      1  C   UNL     1      -3.465  -1.164  -1.134  0.00  0.00    +0.167 C 
ATOM      2  C   UNL     1      -3.475  -2.631  -0.662  0.00  0.00    +0.065 C 
ATOM      3  C   UNL     1      -4.113  -3.444  -1.760  0.00  0.00    -0.034 C 
ATOM      4  C   UNL     1      -3.691  -4.545  -2.376  0.00  0.00    -0.001 A 
ATOM      5  C   UNL     1      -2.520  -5.406  -2.145  0.00  0.00    +0.010 A 
ATOM      6  C   UNL     1      -2.378  -6.464  -2.987  0.00  0.00    +0.001 A 
ATOM      7  C   UNL     1      -3.273  -6.746  -4.024  0.00  0.00    +0.002 A 
ATOM      8  C   UNL     1      -4.379  -6.011  -4.305  0.00  0.00    +0.026 A 
ATOM      9  C   UNL     1      -4.639  -4.878  -3.481  0.00  0.00    +0.043 A 
ATOM     10  N   UNL     1      -5.620  -4.025  -3.510  0.00  0.00    -0.375 N 
ATOM     11  C   UNL     1      -5.447  -3.086  -2.401  0.00  0.00    +0.131 C 
ATOM     12  C   UNL     1      -5.346  -1.640  -2.883  0.00  0.00    +0.134 C 
ATOM     13  N   UNL     1      -4.021  -1.119  -2.492  0.00  0.00    -0.276 N 
ATOM     14  C   UNL     1      -3.416  -0.620  -3.587  0.00  0.00    +0.248 C 
ATOM     15  O   UNL     1      -2.364  -0.011  -3.586  0.00  0.00    -0.270 OA
ATOM     16  C   UNL     1      -4.212  -0.918  -4.780  0.00  0.00    +0.042 A 
ATOM     17  C   UNL     1      -5.415  -1.552  -4.372  0.00  0.00    -0.013 A 
ATOM     18  C   UNL     1      -6.374  -1.957  -5.274  0.00  0.00    +0.006 A 
ATOM     19  C   UNL     1      -6.119  -1.712  -6.620  0.00  0.00    +0.000 A 
ATOM     20  C   UNL     1      -4.961  -1.088  -7.040  0.00  0.00    +0.001 A 
ATOM     21  C   UNL     1      -3.960  -0.669  -6.132  0.00  0.00    +0.013 A 
ATOM     22  H   UNL     1      -6.343  -4.013  -4.156  0.00  0.00    +0.160 HD
ENDROOT
BRANCH   1  24
ATOM     23  N   UNL     1      -1.681   0.319  -0.276  0.00  0.00    -0.303 N 
ATOM     24  C   UNL     1      -2.051  -0.643  -1.145  0.00  0.00    +0.234 C 
ATOM     25  O   UNL     1      -1.246  -1.089  -1.935  0.00  0.00    -0.274 OA
ATOM     26  H   UNL     1      -2.325   0.676   0.356  0.00  0.00    +0.149 HD
BRANCH  23  28
ATOM     27  C   UNL     1      -0.178   1.931  -1.338  0.00  0.00    +0.038 C 
ATOM     28  C   UNL     1      -0.306   0.826  -0.286  0.00  0.00    +0.156 C 
BRANCH  28  29
ATOM     29  C   UNL     1       0.034   1.383   1.072  0.00  0.00    +0.233 C 
ATOM     30  O   UNL     1      -0.791   1.359   1.961  0.00  0.00    -0.274 OA
ATOM     31  N   UNL     1       1.254   1.909   1.298  0.00  0.00    -0.313 N 
ATOM     32  H   UNL     1       1.913   1.928   0.587  0.00  0.00    +0.149 HD
BRANCH  31  33
ATOM     33  C   UNL     1       1.585   2.450   2.619  0.00  0.00    +0.109 C 
BRANCH  33  34
ATOM     34  C   UNL     1       3.020   2.980   2.608  0.00  0.00    +0.054 C 
BRANCH  34  35
ATOM     35  C   UNL     1       3.360   3.537   3.966  0.00  0.00    -0.046 A 
ATOM     36  C   UNL     1       3.111   4.867   4.250  0.00  0.00    +0.004 A 
ATOM     37  C   UNL     1       3.424   5.378   5.495  0.00  0.00    +0.000 A 
ATOM     38  C   UNL     1       3.984   4.559   6.458  0.00  0.00    +0.000 A 
ATOM     39  C   UNL     1       4.232   3.229   6.175  0.00  0.00    +0.000 A 
ATOM     40  C   UNL     1       3.916   2.717   4.930  0.00  0.00    +0.004 A 
ENDBRANCH  34  35
ENDBRANCH  33  34
ENDBRANCH  31  33
ENDBRANCH  28  29
ENDBRANCH  23  28
ENDBRANCH   1  24
TORSDOF 6
