REMARK  Name = ZINC09165697
REMARK  5 active torsions:
REMARK  status: ('A' for Active; 'I' for Inactive)
REMARK    1  A    between atoms: C_4  and  C_7
REMARK    2  A    between atoms: C_7  and  C_9
REMARK    3  A    between atoms: C_17  and  C_21
REMARK    4  A    between atoms: C_21  and  C_23
REMARK    5  A    between atoms: N_32  and  C_35
REMARK                            x       y       z     vdW  Elec       q    Type
REMARK                         _______ _______ _______ _____ _____    ______ ____
ROOT
ATOM      1  C   UNL     1      -1.019  -1.910  -1.407  0.00  0.00    +0.021 C 
ATOM      2  C   UNL     1      -0.930  -0.677  -0.862  0.00  0.00    +0.006 C 
ATOM      3  C   UNL     1       0.237  -0.369   0.043  0.00  0.00    +0.093 C 
ATOM      4  C   UNL     1       0.690   1.082  -0.093  0.00  0.00    +0.113 C 
ATOM      5  C   UNL     1       2.248   1.002  -0.051  0.00  0.00    +0.116 C 
ATOM      6  C   UNL     1       2.554  -0.416  -0.573  0.00  0.00    +0.141 C 
ATOM      7  C   UNL     1       1.192  -2.586  -0.620  0.00  0.00    +0.054 C 
ATOM      8  C   UNL     1      -0.007  -2.947  -1.122  0.00  0.00    +0.025 C 
ATOM      9  C   UNL     1       2.629   1.996  -1.136  0.00  0.00    +0.232 C 
ATOM     10  O   UNL     1       3.707   2.538  -1.255  0.00  0.00    -0.274 OA
ATOM     11  N   UNL     1       1.568   2.172  -1.940  0.00  0.00    -0.210 N 
ATOM     12  C   UNL     1       0.440   1.595  -1.495  0.00  0.00    +0.232 C 
ATOM     13  O   UNL     1      -0.600   1.500  -2.111  0.00  0.00    -0.274 OA
ATOM     14  N   UNL     1       1.406  -1.209  -0.036  0.00  0.00    -0.384 NA
ATOM     15  H   UNL     1       1.655  -1.399   0.942  0.00  0.00    +0.127 HD
ENDROOT
BRANCH  11  16
ATOM     16  C   UNL     1       1.633   2.894  -3.140  0.00  0.00    +0.044 A 
ATOM     17  C   UNL     1       1.501   2.237  -4.356  0.00  0.00    +0.024 A 
ATOM     18  C   UNL     1       1.560   2.952  -5.536  0.00  0.00    +0.002 A 
ATOM     19  C   UNL     1       1.761   4.319  -5.508  0.00  0.00    +0.000 A 
ATOM     20  C   UNL     1       1.898   4.976  -4.299  0.00  0.00    +0.002 A 
ATOM     21  C   UNL     1       1.835   4.268  -3.115  0.00  0.00    +0.024 A 
ENDBRANCH  11  16
BRANCH   1  22
ATOM     22  C   UNL     1      -2.149  -2.227  -2.304  0.00  0.00    +0.193 C 
ATOM     23  O   UNL     1      -3.286  -2.225  -1.873  0.00  0.00    -0.287 OA
BRANCH  22  27
ATOM     24  C   UNL     1      -1.427  -3.142  -6.388  0.00  0.00    +0.000 A 
ATOM     25  C   UNL     1      -2.709  -3.244  -5.875  0.00  0.00    +0.001 A 
ATOM     26  C   UNL     1      -2.950  -2.949  -4.550  0.00  0.00    +0.012 A 
ATOM     27  C   UNL     1      -1.898  -2.545  -3.725  0.00  0.00    +0.022 A 
ATOM     28  C   UNL     1      -0.608  -2.438  -4.250  0.00  0.00    +0.012 A 
ATOM     29  C   UNL     1      -0.380  -2.742  -5.576  0.00  0.00    +0.001 A 
ENDBRANCH  22  27
ENDBRANCH   1  22
BRANCH   6  30
ATOM     30  C   UNL     1       2.907  -0.357  -2.037  0.00  0.00    +0.183 C 
ATOM     31  O   UNL     1       2.074  -0.635  -2.874  0.00  0.00    -0.290 OA
BRANCH  30  32
ATOM     32  C   UNL     1       4.262   0.038  -2.451  0.00  0.00    +0.019 A 
ATOM     33  C   UNL     1       5.224   0.365  -1.489  0.00  0.00    +0.013 A 
ATOM     34  C   UNL     1       6.493   0.729  -1.885  0.00  0.00    +0.020 A 
ATOM     35  C   UNL     1       6.814   0.782  -3.231  0.00  0.00    +0.041 A 
ATOM     36  C   UNL     1       5.865   0.465  -4.190  0.00  0.00    +0.020 A 
ATOM     37  C   UNL     1       4.594   0.094  -3.809  0.00  0.00    +0.013 A 
ATOM     38 CL   UNL     1       8.414   1.248  -3.720  0.00  0.00    -0.084 Cl
ENDBRANCH  30  32
ENDBRANCH   6  30
TORSDOF 5
