REMARK  Name = ZINC62017445
REMARK  8 active torsions:
REMARK  status: ('A' for Active; 'I' for Inactive)
REMARK    1  A    between atoms: C_1  and  C_2
REMARK    2  A    between atoms: C_2  and  C_4
REMARK    3  A    between atoms: C_2  and  N_11
REMARK    4  A    between atoms: N_11  and  C_12
REMARK    5  A    between atoms: N_11  and  C_13
REMARK    6  A    between atoms: C_13  and  C_14
REMARK    7  A    between atoms: C_18  and  N_20
REMARK    8  A    between atoms: N_20  and  N_21
REMARK                            x       y       z     vdW  Elec       q    Type
REMARK                         _______ _______ _______ _____ _____    ______ ____
ROOT
ATOM      1  C   UNL     1      -0.021   0.009  -2.397  0.00  0.00    -0.020 C 
ENDROOT
BRANCH   1   2
ATOM      2  C   UNL     1       0.751  -0.373  -3.634  0.00  0.00    +0.045 A 
ATOM      3  C   UNL     1       1.712   0.487  -4.130  0.00  0.00    +0.060 A 
ATOM      4  C   UNL     1       2.420   0.130  -5.270  0.00  0.00    +0.025 A 
ATOM      5  C   UNL     1       2.135  -1.083  -5.872  0.00  0.00    +0.046 A 
ATOM      6  C   UNL     1       1.154  -1.899  -5.317  0.00  0.00    +0.132 A 
ATOM      7  N   UNL     1       0.504  -1.526  -4.226  0.00  0.00    -0.236 NA
ATOM      8 CL   UNL     1       2.031   1.998  -3.337  0.00  0.00    -0.082 Cl
BRANCH   6   9
ATOM      9  N   UNL     1       0.857  -3.120  -5.912  0.00  0.00    -0.268 N 
ATOM     10  H   UNL     1       1.333  -3.400  -6.710  0.00  0.00    +0.167 HD
BRANCH   9  11
ATOM     11  N   UNL     1      -0.105  -3.927  -5.373  0.00  0.00    -0.255 NA
ATOM     12  H   UNL     1      -0.984  -3.438  -5.295  0.00  0.00    +0.140 HD
ATOM     13  H   UNL     1      -0.209  -4.774  -5.910  0.00  0.00    +0.140 HD
ENDBRANCH   9  11
ENDBRANCH   6   9
ENDBRANCH   1   2
BRANCH   1  14
ATOM     14  N   UNL     1       0.690  -0.478  -1.207  0.00  0.00    +0.386 N 
ATOM     15  C   UNL     1       0.710  -1.947  -1.215  0.00  0.00    -0.095 C 
ATOM     16  H   UNL     1       1.636  -0.129  -1.214  0.00  0.00    -0.081 HD
BRANCH  14  18
ATOM     17  C   UNL     1      -0.019   1.526   0.010  0.00  0.00    -0.008 C 
ATOM     18  C   UNL     1       0.002  -0.004   0.002  0.00  0.00    -0.039 C 
BRANCH  18  19
ATOM     19  C   UNL     1       0.731  -0.503   1.223  0.00  0.00    -0.043 A 
ATOM     20  C   UNL     1       2.077  -0.808   1.148  0.00  0.00    +0.003 A 
ATOM     21  C   UNL     1       2.746  -1.266   2.268  0.00  0.00    +0.000 A 
ATOM     22  C   UNL     1       2.069  -1.419   3.463  0.00  0.00    +0.001 A 
ATOM     23  C   UNL     1       0.723  -1.115   3.539  0.00  0.00    +0.020 A 
ATOM     24  C   UNL     1       0.054  -0.651   2.420  0.00  0.00    +0.043 A 
ATOM     25 CL   UNL     1      -1.635  -0.263   2.517  0.00  0.00    -0.083 Cl
ENDBRANCH  18  19
ENDBRANCH  14  18
ENDBRANCH   1  14
TORSDOF 6
