REMARK  Name = ZINC64886570
REMARK  7 active torsions:
REMARK  status: ('A' for Active; 'I' for Inactive)
REMARK    1  A    between atoms: C_4  and  C_7
REMARK    2  A    between atoms: C_9  and  C_12
REMARK    3  A    between atoms: N_14  and  N_15
REMARK    4  A    between atoms: N_18  and  C_19
REMARK    5  A    between atoms: C_19  and  C_20
REMARK    6  A    between atoms: C_20  and  C_21
REMARK    7  A    between atoms: C_21  and  N_22
REMARK                            x       y       z     vdW  Elec       q    Type
REMARK                         _______ _______ _______ _____ _____    ______ ____
ROOT
ATOM      1  C   UNL     1       5.490  -3.846  -0.082  0.00  0.00    +0.279 C 
ATOM      2  O   UNL     1       6.647  -4.221  -0.094  0.00  0.00    -0.267 OA
ATOM      3  N   UNL     1       4.489  -4.748  -0.083  0.00  0.00    -0.228 N 
ATOM      4  H   UNL     1       3.566  -4.449  -0.074  0.00  0.00    +0.173 HD
ENDROOT
BRANCH   3   5
ATOM      5  N   UNL     1       4.780  -6.118  -0.099  0.00  0.00    -0.218 N 
ATOM      6  C   UNL     1       3.779  -7.020  -0.101  0.00  0.00    +0.316 C 
ATOM      7  O   UNL     1       4.032  -8.209  -0.114  0.00  0.00    -0.251 OA
ATOM      8  N   UNL     1       2.497  -6.604  -0.087  0.00  0.00    -0.298 N 
ATOM      9  H   UNL     1       5.703  -6.418  -0.108  0.00  0.00    +0.174 HD
ATOM     10  H   UNL     1       2.295  -5.655  -0.077  0.00  0.00    +0.150 HD
BRANCH   8  11
ATOM     11  C   UNL     1       1.409  -7.585  -0.089  0.00  0.00    +0.107 C 
BRANCH  11  12
ATOM     12  C   UNL     1       0.064  -6.855  -0.073  0.00  0.00    +0.040 C 
BRANCH  12  13
ATOM     13  C   UNL     1      -1.073  -7.879  -0.074  0.00  0.00    +0.124 C 
BRANCH  13  14
ATOM     14  N   UNL     1      -2.360  -7.179  -0.059  0.00  0.00    -0.338 N 
ATOM     15  C   UNL     1      -3.063  -6.797   1.052  0.00  0.00    +0.104 A 
ATOM     16  C   UNL     1      -4.182  -6.189   0.615  0.00  0.00    +0.101 A 
ATOM     17  N   UNL     1      -4.162  -6.199  -0.727  0.00  0.00    -0.352 N 
ATOM     18  C   UNL     1      -3.071  -6.786  -1.137  0.00  0.00    +0.173 A 
ATOM     19  H   UNL     1      -4.849  -5.825  -1.301  0.00  0.00    +0.166 HD
ENDBRANCH  13  14
ENDBRANCH  12  13
ENDBRANCH  11  12
ENDBRANCH   8  11
ENDBRANCH   3   5
BRANCH   1  22
ATOM     20  C   UNL     1       3.696  -0.685  -0.037  0.00  0.00    +0.109 A 
ATOM     21  N   UNL     1       3.926  -1.986  -0.052  0.00  0.00    -0.234 NA
ATOM     22  C   UNL     1       5.183  -2.405  -0.066  0.00  0.00    +0.135 A 
ATOM     23  C   UNL     1       6.194  -1.480  -0.064  0.00  0.00    +0.080 A 
ATOM     24  S   UNL     1       5.352  -0.022  -0.051  0.00  0.00    -0.075 S 
BRANCH  20  28
ATOM     25  C   UNL     1      -0.017   1.379   0.010  0.00  0.00    +0.000 A 
ATOM     26  C   UNL     1       1.168   2.093   0.002  0.00  0.00    +0.001 A 
ATOM     27  C   UNL     1       2.377   1.429  -0.013  0.00  0.00    +0.010 A 
ATOM     28  C   UNL     1       2.403   0.034  -0.021  0.00  0.00    +0.007 A 
ATOM     29  C   UNL     1       1.204  -0.680  -0.013  0.00  0.00    +0.010 A 
ATOM     30  C   UNL     1       0.002  -0.004   0.002  0.00  0.00    +0.001 A 
ENDBRANCH  20  28
ENDBRANCH   1  22
TORSDOF 7
