REMARK  Name = ZINC67594932
REMARK  6 active torsions:
REMARK  status: ('A' for Active; 'I' for Inactive)
REMARK    1  A    between atoms: C_3  and  C_26
REMARK    2  A    between atoms: C_8  and  C_10
REMARK    3  A    between atoms: C_10  and  C_11
REMARK    4  A    between atoms: C_11  and  C_12
REMARK    5  A    between atoms: C_12  and  C_13
REMARK    6  A    between atoms: C_13  and  C_14
REMARK                            x       y       z     vdW  Elec       q    Type
REMARK                         _______ _______ _______ _____ _____    ______ ____
ROOT
ATOM      1  C   UNL     1      -1.111  -1.854  -1.859  0.00  0.00    +0.096 C 
ENDROOT
BRANCH   1   8
ATOM      2  C   UNL     1      -0.019   1.528   0.010  0.00  0.00    +0.020 C 
ATOM      3  C   UNL     1       1.419   2.053  -0.001  0.00  0.00    +0.016 C 
ATOM      4  C   UNL     1       2.124   1.587  -1.276  0.00  0.00    +0.092 C 
ATOM      5  C   UNL     1       2.170   0.056  -1.299  0.00  0.00    +0.120 C 
ATOM      6  N   UNL     1       0.803  -0.460  -1.143  0.00  0.00    -0.301 N 
ATOM      7  C   UNL     1       0.002  -0.004   0.002  0.00  0.00    +0.108 C 
ATOM      8  C   UNL     1       0.293  -1.334  -2.033  0.00  0.00    +0.216 C 
ATOM      9  O   UNL     1       0.964  -1.702  -2.973  0.00  0.00    -0.276 OA
BRANCH   4  10
ATOM     10  C   UNL     1       3.529   2.133  -1.301  0.00  0.00    +0.215 C 
ATOM     11  O   UNL     1       4.474   1.373  -1.337  0.00  0.00    -0.276 OA
ATOM     12  N   UNL     1       3.735   3.464  -1.284  0.00  0.00    -0.329 N 
ATOM     13  H   UNL     1       2.979   4.072  -1.255  0.00  0.00    +0.145 HD
ATOM     14  H   UNL     1       4.639   3.816  -1.301  0.00  0.00    +0.145 HD
ENDBRANCH   4  10
ENDBRANCH   1   8
BRANCH   1  15
ATOM     15  C   UNL     1      -1.440  -2.823  -2.996  0.00  0.00    +0.009 C 
BRANCH  15  16
ATOM     16  C   UNL     1      -2.866  -3.351  -2.819  0.00  0.00    +0.002 C 
BRANCH  16  17
ATOM     17  C   UNL     1      -3.195  -4.320  -3.957  0.00  0.00    +0.016 C 
BRANCH  17  18
ATOM     18  C   UNL     1      -4.620  -4.848  -3.780  0.00  0.00    +0.069 C 
ATOM     19  C   UNL     1      -4.997  -5.783  -4.900  0.00  0.00    +0.108 C 
ATOM     20  C   UNL     1      -4.423  -7.198  -4.581  0.00  0.00    +0.105 C 
ATOM     21  C   UNL     1      -5.043  -7.595  -3.243  0.00  0.00    +0.093 C 
ATOM     22  S   UNL     1      -4.736  -5.990  -2.325  0.00  0.00    -0.154 S 
ATOM     23  N   UNL     1      -4.777  -7.876  -5.807  0.00  0.00    -0.294 N 
ATOM     24  C   UNL     1      -4.700  -6.924  -6.785  0.00  0.00    +0.300 C 
ATOM     25  O   UNL     1      -4.689  -7.179  -7.974  0.00  0.00    -0.253 OA
ATOM     26  N   UNL     1      -4.622  -5.664  -6.278  0.00  0.00    -0.294 N 
ATOM     27  H   UNL     1      -5.019  -8.809  -5.914  0.00  0.00    +0.151 HD
ATOM     28  H   UNL     1      -4.371  -4.856  -6.754  0.00  0.00    +0.151 HD
ENDBRANCH  17  18
ENDBRANCH  16  17
ENDBRANCH  15  16
ENDBRANCH   1  15
TORSDOF 6
