REMARK  Name = ZINC12483805
REMARK  11 active torsions:
REMARK  status: ('A' for Active; 'I' for Inactive)
REMARK    1  A    between atoms: C_1  and  C_2
REMARK    2  A    between atoms: C_5  and  S_8
REMARK    3  A    between atoms: S_8  and  N_11
REMARK    4  A    between atoms: N_11  and  C_12
REMARK    5  A    between atoms: C_15  and  O_18
REMARK    6  A    between atoms: O_18  and  C_19
REMARK    7  A    between atoms: C_21  and  O_34
REMARK    8  A    between atoms: C_23  and  O_33
REMARK    9  A    between atoms: C_25  and  O_32
REMARK   10  A    between atoms: C_27  and  C_30
REMARK   11  A    between atoms: C_30  and  O_31
REMARK                            x       y       z     vdW  Elec       q    Type
REMARK                         _______ _______ _______ _____ _____    ______ ____
ROOT
ATOM      1  C   UNL     1       1.085   1.647  -0.359  0.00  0.00    +0.048 A 
ATOM      2  C   UNL     1       1.079   2.521  -1.437  0.00  0.00    +0.028 A 
ATOM      3  C   UNL     1       2.223   3.225  -1.761  0.00  0.00    +0.047 A 
ATOM      4  C   UNL     1       3.379   3.051  -1.016  0.00  0.00    +0.124 A 
ATOM      5  C   UNL     1       3.387   2.173   0.059  0.00  0.00    +0.047 A 
ATOM      6  C   UNL     1       2.244   1.472   0.387  0.00  0.00    +0.028 A 
ENDROOT
BRANCH   1   7
ATOM      7  N   UNL     1      -0.074   0.937  -0.027  0.00  0.00    -0.216 N 
ATOM      8  H   UNL     1      -0.360   0.190  -0.576  0.00  0.00    +0.174 HD
BRANCH   7   9
ATOM      9  S   UNL     1      -0.963   1.377   1.300  0.00  0.00    +0.072 S 
ATOM     10  O   UNL     1      -2.093   0.516   1.335  0.00  0.00    -0.150 OA
ATOM     11  O   UNL     1      -0.050   1.479   2.384  0.00  0.00    -0.150 OA
BRANCH   9  16
ATOM     12  C   UNL     1      -3.061   6.941   0.279  0.00  0.00    +0.044 C 
ATOM     13  C   UNL     1      -2.537   5.551   0.534  0.00  0.00    -0.050 A 
ATOM     14  C   UNL     1      -3.299   4.451   0.188  0.00  0.00    +0.005 A 
ATOM     15  C   UNL     1      -2.818   3.176   0.421  0.00  0.00    +0.029 A 
ATOM     16  C   UNL     1      -1.575   3.002   1.002  0.00  0.00    +0.109 A 
ATOM     17  C   UNL     1      -0.816   4.102   1.353  0.00  0.00    +0.029 A 
ATOM     18  C   UNL     1      -1.295   5.377   1.115  0.00  0.00    +0.005 A 
ENDBRANCH   9  16
ENDBRANCH   7   9
ENDBRANCH   1   7
BRANCH   4  19
ATOM     19  O   UNL     1       4.506   3.740  -1.339  0.00  0.00    -0.461 OA
BRANCH  19  20
ATOM     20  C   UNL     1       4.427   4.626  -2.457  0.00  0.00    +0.339 C 
ATOM     21  C   UNL     1       5.741   5.400  -2.590  0.00  0.00    +0.214 C 
ATOM     22  C   UNL     1       5.670   6.303  -3.825  0.00  0.00    +0.180 C 
ATOM     23  C   UNL     1       5.376   5.442  -5.057  0.00  0.00    +0.177 C 
ATOM     24  C   UNL     1       4.075   4.666  -4.829  0.00  0.00    +0.179 C 
ATOM     25  O   UNL     1       4.198   3.871  -3.648  0.00  0.00    -0.331 OA
BRANCH  23  26
ATOM     26  O   UNL     1       5.236   6.282  -6.205  0.00  0.00    -0.386 OA
ATOM     27  H   UNL     1       6.022   6.807  -6.406  0.00  0.00    +0.210 HD
ENDBRANCH  23  26
BRANCH  22  28
ATOM     28  O   UNL     1       4.630   7.267  -3.653  0.00  0.00    -0.386 OA
ATOM     29  H   UNL     1       4.750   7.843  -2.886  0.00  0.00    +0.210 HD
ENDBRANCH  22  28
BRANCH  21  30
ATOM     30  O   UNL     1       6.825   4.479  -2.731  0.00  0.00    -0.383 OA
ATOM     31  H   UNL     1       6.926   3.873  -1.985  0.00  0.00    +0.210 HD
ENDBRANCH  21  30
BRANCH  24  32
ATOM     32  C   UNL     1       3.805   3.758  -6.030  0.00  0.00    +0.190 C 
BRANCH  32  33
ATOM     33  O   UNL     1       2.535   3.123  -5.871  0.00  0.00    -0.392 OA
ATOM     34  H   UNL     1       2.298   2.531  -6.598  0.00  0.00    +0.210 HD
ENDBRANCH  32  33
ENDBRANCH  24  32
ENDBRANCH  19  20
ENDBRANCH   4  19
TORSDOF 10
