REMARK  Name = ZINC44282538
REMARK  8 active torsions:
REMARK  status: ('A' for Active; 'I' for Inactive)
REMARK    1  A    between atoms: C_1  and  C_2
REMARK    2  A    between atoms: C_3  and  C_14
REMARK    3  A    between atoms: C_4  and  O_13
REMARK    4  A    between atoms: C_6  and  C_11
REMARK    5  A    between atoms: C_7  and  N_8
REMARK    6  A    between atoms: C_14  and  C_15
REMARK    7  A    between atoms: C_15  and  C_16
REMARK    8  A    between atoms: C_16  and  N_17
REMARK                            x       y       z     vdW  Elec       q    Type
REMARK                         _______ _______ _______ _____ _____    ______ ____
ROOT
ATOM      1  C   UNL     1      -0.018   1.503   0.010  0.00  0.00    +0.046 C 
ATOM      2  C   UNL     1       0.002  -0.004   0.002  0.00  0.00    -0.013 A 
ATOM      3  C   UNL     1       0.006  -0.688  -1.199  0.00  0.00    +0.000 A 
ATOM      4  C   UNL     1       0.025  -2.074  -1.206  0.00  0.00    +0.135 A 
ATOM      5  C   UNL     1       0.041  -2.772  -0.006  0.00  0.00    +0.065 A 
ATOM      6  C   UNL     1       0.037  -2.084   1.192  0.00  0.00    -0.003 A 
ATOM      7  C   UNL     1       0.023  -0.701   1.196  0.00  0.00    +0.133 A 
ATOM      8  C   UNL     1       0.053  -2.840   2.495  0.00  0.00    +0.047 C 
ATOM      9 BR   UNL     1       0.066  -4.663  -0.011  0.00  0.00    -0.046 Br
ENDROOT
BRANCH   7  10
ATOM     10  N   UNL     1       0.025   0.034   2.480  0.00  0.00    +0.057 N 
ATOM     11  O   UNL     1      -1.021   0.320   3.015  0.00  0.00    -0.126 OA
ATOM     12  O   UNL     1       1.073   0.349   2.995  0.00  0.00    -0.126 OA
ENDBRANCH   7  10
BRANCH   4  13
ATOM     13  O   UNL     1       0.028  -2.749  -2.386  0.00  0.00    -0.505 OA
ATOM     14  H   UNL     1       0.912  -2.932  -2.732  0.00  0.00    +0.292 HD
ENDBRANCH   4  13
BRANCH   3  15
ATOM     15  C   UNL     1      -0.012   0.073  -2.500  0.00  0.00    +0.037 C 
BRANCH  15  16
ATOM     16  C   UNL     1       1.425   0.351  -2.947  0.00  0.00    -0.015 C 
BRANCH  16  17
ATOM     17  C   UNL     1       1.407   1.124  -4.268  0.00  0.00    -0.086 C 
BRANCH  17  18
ATOM     18  N   UNL     1       2.786   1.391  -4.697  0.00  0.00    +0.378 N 
ATOM     19  H   UNL     1       3.258   1.938  -3.993  0.00  0.00    -0.090 HD
ATOM     20  H   UNL     1       3.274   0.516  -4.825  0.00  0.00    -0.090 HD
ATOM     21  H   UNL     1       2.775   1.900  -5.568  0.00  0.00    -0.090 HD
ENDBRANCH  17  18
ENDBRANCH  16  17
ENDBRANCH  15  16
ENDBRANCH   3  15
TORSDOF 6
