REMARK  Name = ZINC08774043
REMARK  11 active torsions:
REMARK  status: ('A' for Active; 'I' for Inactive)
REMARK    1  A    between atoms: C_1  and  C_2
REMARK    2  A    between atoms: C_2  and  C_4
REMARK    3  A    between atoms: C_2  and  O_17
REMARK    4  A    between atoms: N_6  and  C_7
REMARK    5  A    between atoms: C_10  and  S_13
REMARK    6  A    between atoms: S_13  and  N_16
REMARK    7  A    between atoms: O_17  and  C_18
REMARK    8  A    between atoms: C_18  and  C_20
REMARK    9  A    between atoms: C_20  and  N_28
REMARK   10  A    between atoms: C_21  and  C_22
REMARK   11  A    between atoms: C_29  and  C_31
REMARK                            x       y       z     vdW  Elec       q    Type
REMARK                         _______ _______ _______ _____ _____    ______ ____
ROOT
ATOM      1  C   UNL     1      -3.521   2.064  -1.092  0.00  0.00    +0.062 C 
ATOM      2  C   UNL     1      -2.928   2.049   0.318  0.00  0.00    +0.259 C 
ENDROOT
BRANCH   2   3
ATOM      3  C   UNL     1      -3.713   2.982   1.204  0.00  0.00    +0.258 C 
ATOM      4  O   UNL     1      -3.183   3.970   1.665  0.00  0.00    -0.271 OA
ATOM      5  N   UNL     1      -5.005   2.717   1.483  0.00  0.00    -0.282 N 
ATOM      6  H   UNL     1      -5.407   1.889   1.178  0.00  0.00    +0.155 HD
BRANCH   5   7
ATOM      7  C   UNL     1      -5.765   3.638   2.213  0.00  0.00    +0.034 A 
ATOM      8  C   UNL     1      -6.753   3.191   3.081  0.00  0.00    +0.025 A 
ATOM      9  C   UNL     1      -7.497   4.102   3.805  0.00  0.00    +0.030 A 
ATOM     10  C   UNL     1      -7.269   5.458   3.656  0.00  0.00    +0.105 A 
ATOM     11  C   UNL     1      -6.290   5.906   2.788  0.00  0.00    +0.030 A 
ATOM     12  C   UNL     1      -5.538   5.000   2.066  0.00  0.00    +0.025 A 
BRANCH  10  13
ATOM     13  S   UNL     1      -8.226   6.617   4.576  0.00  0.00    +0.056 S 
ATOM     14  O   UNL     1      -8.704   5.929   5.724  0.00  0.00    -0.153 OA
ATOM     15  O   UNL     1      -7.449   7.803   4.667  0.00  0.00    -0.153 OA
BRANCH  13  16
ATOM     16  N   UNL     1      -9.554   6.990   3.660  0.00  0.00    -0.204 NA
ATOM     17  H   UNL     1      -9.675   6.580   2.790  0.00  0.00    +0.144 HD
ATOM     18  H   UNL     1     -10.213   7.619   3.995  0.00  0.00    +0.144 HD
ENDBRANCH  13  16
ENDBRANCH  10  13
ENDBRANCH   5   7
ENDBRANCH   2   3
BRANCH   2  19
ATOM     19  O   UNL     1      -1.543   2.483   0.266  0.00  0.00    -0.448 OA
BRANCH  19  20
ATOM     20  C   UNL     1      -0.609   1.527   0.084  0.00  0.00    +0.354 C 
ATOM     21  O   UNL     1      -0.943   0.364  -0.028  0.00  0.00    -0.244 OA
BRANCH  20  22
ATOM     22  C   UNL     1       0.812   1.893   0.015  0.00  0.00    +0.119 C 
ATOM     23  C   UNL     1       1.756   0.928  -0.080  0.00  0.00    +0.038 C 
BRANCH  23  24
ATOM     24  C   UNL     1       3.181   1.280   0.018  0.00  0.00    -0.023 A 
ATOM     25  C   UNL     1       4.153   0.437  -0.531  0.00  0.00    +0.008 A 
ATOM     26  C   UNL     1       5.486   0.777  -0.440  0.00  0.00    +0.001 A 
ATOM     27  C   UNL     1       5.864   1.943   0.203  0.00  0.00    +0.000 A 
ATOM     28  C   UNL     1       4.909   2.779   0.754  0.00  0.00    +0.001 A 
ATOM     29  C   UNL     1       3.571   2.457   0.666  0.00  0.00    +0.008 A 
ENDBRANCH  23  24
BRANCH  22  30
ATOM     30  N   UNL     1       1.190   3.240   0.047  0.00  0.00    -0.280 N 
ATOM     31  C   UNL     1       0.812   4.021   1.078  0.00  0.00    +0.214 C 
ATOM     32  O   UNL     1       0.227   3.537   2.024  0.00  0.00    -0.276 OA
ATOM     33  C   UNL     1       1.115   5.497   1.056  0.00  0.00    +0.109 C 
ATOM     34  H   UNL     1       1.724   3.611  -0.673  0.00  0.00    +0.155 HD
ENDBRANCH  22  30
ENDBRANCH  20  22
ENDBRANCH  19  20
ENDBRANCH   2  19
TORSDOF 9
