REMARK  Name = ZINC24898821
REMARK  10 active torsions:
REMARK  status: ('A' for Active; 'I' for Inactive)
REMARK    1  A    between atoms: C_1  and  C_2
REMARK    2  A    between atoms: C_5  and  C_36
REMARK    3  A    between atoms: C_10  and  C_12
REMARK    4  A    between atoms: C_12  and  N_13
REMARK    5  A    between atoms: N_16  and  C_19
REMARK    6  A    between atoms: C_19  and  C_20
REMARK    7  A    between atoms: C_20  and  C_21
REMARK    8  A    between atoms: N_23  and  C_24
REMARK    9  A    between atoms: C_29  and  C_30
REMARK   10  A    between atoms: N_32  and  C_33
REMARK                            x       y       z     vdW  Elec       q    Type
REMARK                         _______ _______ _______ _____ _____    ______ ____
ROOT
ATOM      1  C   UNL     1       0.935   7.065  -7.827  0.00  0.00    +0.093 C 
ENDROOT
BRANCH   1   5
ATOM      2  N   UNL     1       0.487   4.653  -4.388  0.00  0.00    +0.387 N 
ATOM      3  C   UNL     1      -0.700   5.352  -4.898  0.00  0.00    -0.063 C 
ATOM      4  C   UNL     1      -0.260   6.511  -5.795  0.00  0.00    +0.066 C 
ATOM      5  N   UNL     1       0.556   5.990  -6.900  0.00  0.00    -0.305 NA
ATOM      6  C   UNL     1       1.744   5.291  -6.390  0.00  0.00    +0.066 C 
ATOM      7  C   UNL     1       1.304   4.131  -5.493  0.00  0.00    -0.063 C 
ATOM      8  H   UNL     1       1.096   5.379  -3.829  0.00  0.00    -0.081 HD
BRANCH   2   9
ATOM      9  C   UNL     1       0.108   3.578  -3.461  0.00  0.00    +0.019 C 
BRANCH   9  17
ATOM     10  C   UNL     1      -0.044  -0.136  -0.123  0.00  0.00    +0.009 C 
ATOM     11  C   UNL     1      -0.071   1.394  -0.096  0.00  0.00    +0.004 C 
ATOM     12  C   UNL     1      -0.800   1.869   1.163  0.00  0.00    +0.009 C 
ATOM     13  C   UNL     1      -0.799   3.399   1.208  0.00  0.00    +0.004 C 
ATOM     14  C   UNL     1      -1.543   3.942  -0.017  0.00  0.00    +0.111 C 
ATOM     15  N   UNL     1      -0.938   3.374  -1.229  0.00  0.00    -0.303 N 
ATOM     16  C   UNL     1      -0.806   1.914  -1.335  0.00  0.00    +0.111 C 
ATOM     17  C   UNL     1      -0.511   4.176  -2.224  0.00  0.00    +0.199 C 
ATOM     18  O   UNL     1      -0.624   5.379  -2.124  0.00  0.00    -0.278 OA
ATOM     19  C   UNL     1      -1.500   3.873   2.483  0.00  0.00    +0.009 C 
ENDBRANCH   9  17
ENDBRANCH   2   9
ENDBRANCH   1   5
BRANCH   1  20
ATOM     20  C   UNL     1      -0.316   7.602  -8.524  0.00  0.00    +0.111 C 
BRANCH  20  21
ATOM     21  C   UNL     1       0.073   8.705  -9.475  0.00  0.00    +0.218 C 
ATOM     22  O   UNL     1       1.237   9.029  -9.584  0.00  0.00    -0.275 OA
ATOM     23  N   UNL     1      -0.872   9.331 -10.204  0.00  0.00    -0.285 N 
ATOM     24  H   UNL     1      -1.916   8.989 -10.161  0.00  0.00    +0.155 HD
BRANCH  23  25
ATOM     25  C   UNL     1      -0.526  10.411 -11.013  0.00  0.00    +0.046 A 
ATOM     26  C   UNL     1       0.702  10.431 -11.661  0.00  0.00    +0.024 A 
ATOM     27  C   UNL     1       1.041  11.501 -12.466  0.00  0.00    +0.002 A 
ATOM     28  C   UNL     1       0.166  12.563 -12.625  0.00  0.00    +0.001 A 
ATOM     29  C   UNL     1      -1.054  12.562 -11.986  0.00  0.00    +0.015 A 
ATOM     30  C   UNL     1      -1.413  11.485 -11.172  0.00  0.00    +0.058 A 
BRANCH  30  31
ATOM     31  C   UNL     1      -2.718  11.477 -10.484  0.00  0.00    +0.246 C 
ATOM     32  O   UNL     1      -2.987  10.588  -9.700  0.00  0.00    -0.270 OA
ATOM     33  N   UNL     1      -3.613  12.457 -10.725  0.00  0.00    -0.308 N 
ATOM     34  H   UNL     1      -3.370  13.261 -11.434  0.00  0.00    +0.149 HD
BRANCH  33  35
ATOM     35  C   UNL     1      -4.909  12.449 -10.041  0.00  0.00    +0.073 C 
ATOM     36  C   UNL     1      -6.150  12.767 -10.877  0.00  0.00    +0.024 C 
ATOM     37  C   UNL     1      -5.624  13.790  -9.869  0.00  0.00    +0.024 C 
ENDBRANCH  33  35
ENDBRANCH  30  31
ENDBRANCH  23  25
ENDBRANCH  20  21
ENDBRANCH   1  20
TORSDOF 8
