REMARK  Name = ZINC39953552
REMARK  15 active torsions:
REMARK  status: ('A' for Active; 'I' for Inactive)
REMARK    1  A    between atoms: C_1  and  C_2
REMARK    2  A    between atoms: C_2  and  C_3
REMARK    3  A    between atoms: C_3  and  C_4
REMARK    4  A    between atoms: C_7  and  C_12
REMARK    5  A    between atoms: N_9  and  C_11
REMARK    6  A    between atoms: N_14  and  C_15
REMARK    7  A    between atoms: C_15  and  C_17
REMARK    8  A    between atoms: C_15  and  C_33
REMARK    9  A    between atoms: C_19  and  O_32
REMARK   10  A    between atoms: C_21  and  O_31
REMARK   11  A    between atoms: C_23  and  O_30
REMARK   12  A    between atoms: C_25  and  S_28
REMARK   13  A    between atoms: S_28  and  C_29
REMARK   14  A    between atoms: C_33  and  C_35
REMARK   15  A    between atoms: C_33  and  O_36
REMARK                            x       y       z     vdW  Elec       q    Type
REMARK                         _______ _______ _______ _____ _____    ______ ____
ROOT
ATOM      1  C   UNL     1      -0.725  -4.658  -5.161  0.00  0.00    +0.132 C 
ENDROOT
BRANCH   1   2
ATOM      2  C   UNL     1       0.686  -4.393  -5.689  0.00  0.00    +0.173 C 
ATOM      3  C   UNL     1       1.001  -2.899  -5.577  0.00  0.00    +0.176 C 
ATOM      4  C   UNL     1       2.391  -2.633  -6.162  0.00  0.00    +0.177 C 
ATOM      5  C   UNL     1       2.425  -3.127  -7.612  0.00  0.00    +0.184 C 
ATOM      6  C   UNL     1       2.055  -4.612  -7.646  0.00  0.00    +0.207 C 
ATOM      7  O   UNL     1       0.765  -4.793  -7.059  0.00  0.00    -0.356 OA
BRANCH   6   8
ATOM      8  S   UNL     1       2.024  -5.188  -9.366  0.00  0.00    -0.131 S 
ATOM      9  C   UNL     1       1.726  -6.972  -9.225  0.00  0.00    +0.087 C 
ENDBRANCH   6   8
BRANCH   5  10
ATOM     10  O   UNL     1       3.739  -2.948  -8.147  0.00  0.00    -0.386 OA
ATOM     11  H   UNL     1       3.833  -3.240  -9.064  0.00  0.00    +0.210 HD
ENDBRANCH   5  10
BRANCH   4  12
ATOM     12  O   UNL     1       2.665  -1.231  -6.127  0.00  0.00    -0.386 OA
ATOM     13  H   UNL     1       3.531  -0.990  -6.483  0.00  0.00    +0.210 HD
ENDBRANCH   4  12
BRANCH   3  14
ATOM     14  O   UNL     1       0.025  -2.149  -6.301  0.00  0.00    -0.387 OA
ATOM     15  H   UNL     1       0.163  -1.192  -6.273  0.00  0.00    +0.210 HD
ENDBRANCH   3  14
ENDBRANCH   1   2
BRANCH   1  18
ATOM     16  C   UNL     1      -1.970  -3.962  -3.185  0.00  0.00    +0.200 C 
ATOM     17  O   UNL     1      -2.978  -3.954  -3.860  0.00  0.00    -0.278 OA
ATOM     18  N   UNL     1      -0.790  -4.301  -3.741  0.00  0.00    -0.309 N 
ATOM     19  H   UNL     1       0.016  -4.307  -3.202  0.00  0.00    +0.149 HD
BRANCH  16  22
ATOM     20  C   UNL     1      -1.814  -1.765  -0.156  0.00  0.00    -0.029 C 
ATOM     21  C   UNL     1      -1.169  -2.344  -1.436  0.00  0.00    -0.005 C 
ATOM     22  C   UNL     1      -2.037  -3.595  -1.725  0.00  0.00    +0.019 C 
ATOM     23  N   UNL     1      -3.406  -3.152  -1.355  0.00  0.00    +0.386 N 
ATOM     24  C   UNL     1      -3.247  -2.328  -0.134  0.00  0.00    -0.075 C 
ATOM     25  C   UNL     1      -4.256  -4.316  -1.072  0.00  0.00    -0.095 C 
ATOM     26  H   UNL     1      -3.806  -2.600  -2.099  0.00  0.00    -0.081 HD
BRANCH  20  27
ATOM     27  C   UNL     1      -1.845  -0.236  -0.222  0.00  0.00    +0.001 C 
BRANCH  27  29
ATOM     28  C   UNL     1      -0.448   1.835  -0.218  0.00  0.00    +0.004 C 
ATOM     29  C   UNL     1      -0.416   0.306  -0.152  0.00  0.00    -0.003 C 
ENDBRANCH  27  29
ENDBRANCH  20  27
ENDBRANCH  16  22
ENDBRANCH   1  18
BRANCH   1  30
ATOM     30  C   UNL     1      -1.062  -6.141  -5.329  0.00  0.00    +0.134 C 
ATOM     31  C   UNL     1      -0.147  -6.977  -4.433  0.00  0.00    +0.039 C 
BRANCH  30  32
ATOM     32  O   UNL     1      -2.425  -6.364  -4.960  0.00  0.00    -0.390 OA
ATOM     33  H   UNL     1      -3.066  -5.933  -5.542  0.00  0.00    +0.210 HD
ENDBRANCH  30  32
ENDBRANCH   1  30
TORSDOF 11
