REMARK  Name = ZINC35099373
REMARK  8 active torsions:
REMARK  status: ('A' for Active; 'I' for Inactive)
REMARK    1  A    between atoms: C_1  and  O_2
REMARK    2  A    between atoms: O_2  and  C_3
REMARK    3  A    between atoms: C_5  and  C_10
REMARK    4  A    between atoms: C_8  and  O_9
REMARK    5  A    between atoms: C_12  and  C_27
REMARK    6  A    between atoms: C_14  and  C_19
REMARK    7  A    between atoms: C_14  and  O_26
REMARK    8  A    between atoms: C_27  and  C_29
REMARK                            x       y       z     vdW  Elec       q    Type
REMARK                         _______ _______ _______ _____ _____    ______ ____
ROOT
ATOM      1  C   UNL     1       2.403   0.379  -4.230  0.00  0.00    +0.120 C 
ATOM      2  C   UNL     1       3.899   0.563  -3.953  0.00  0.00    +0.144 C 
ATOM      3  C   UNL     1       4.580  -0.808  -4.026  0.00  0.00    +0.172 C 
ATOM      4  N   UNL     1       4.291  -1.419  -5.324  0.00  0.00    -0.267 N 
ATOM      5  C   UNL     1       3.158  -1.146  -5.987  0.00  0.00    +0.302 C 
ATOM      6  O   UNL     1       2.962  -1.690  -7.057  0.00  0.00    -0.253 OA
ATOM      7  N   UNL     1       2.231  -0.296  -5.517  0.00  0.00    -0.292 N 
ATOM      8  H   UNL     1       4.933  -2.034  -5.713  0.00  0.00    +0.153 HD
ATOM      9  H   UNL     1       1.432  -0.126  -6.040  0.00  0.00    +0.151 HD
ENDROOT
BRANCH   3  10
ATOM     10  C   UNL     1       6.069  -0.639  -3.869  0.00  0.00    +0.003 A 
ATOM     11  C   UNL     1       6.863  -0.437  -4.983  0.00  0.00    +0.009 A 
ATOM     12  C   UNL     1       8.229  -0.281  -4.840  0.00  0.00    +0.020 A 
ATOM     13  C   UNL     1       8.802  -0.328  -3.581  0.00  0.00    +0.041 A 
ATOM     14  C   UNL     1       8.007  -0.530  -2.467  0.00  0.00    +0.020 A 
ATOM     15  C   UNL     1       6.641  -0.680  -2.611  0.00  0.00    +0.009 A 
ATOM     16 CL   UNL     1      10.518  -0.134  -3.401  0.00  0.00    -0.084 Cl
ENDBRANCH   3  10
BRANCH   1  19
ATOM     17  C   UNL     1       0.844  -0.631  -0.940  0.00  0.00    +0.162 A 
ATOM     18  C   UNL     1       1.410   0.136  -1.946  0.00  0.00    +0.055 A 
ATOM     19  C   UNL     1       1.787  -0.456  -3.137  0.00  0.00    -0.023 A 
ATOM     20  C   UNL     1       1.600  -1.812  -3.328  0.00  0.00    +0.009 A 
ATOM     21  C   UNL     1       1.035  -2.583  -2.329  0.00  0.00    +0.049 A 
ATOM     22  C   UNL     1       0.661  -1.997  -1.130  0.00  0.00    +0.158 A 
BRANCH  17  24
ATOM     23  C   UNL     1       0.691   1.357   0.357  0.00  0.00    +0.277 C 
ATOM     24  O   UNL     1       0.473  -0.050   0.232  0.00  0.00    -0.491 OA
ENDBRANCH  17  24
BRANCH  22  25
ATOM     25  O   UNL     1       0.110  -2.754  -0.144  0.00  0.00    -0.503 OA
ATOM     26  H   UNL     1      -0.853  -2.820  -0.189  0.00  0.00    +0.292 HD
ENDBRANCH  22  25
ENDBRANCH   1  19
BRANCH   3  27
ATOM     27  O   UNL     1       4.081  -1.646  -2.982  0.00  0.00    -0.367 OA
ATOM     28  H   UNL     1       4.470  -2.531  -2.968  0.00  0.00    +0.212 HD
ENDBRANCH   3  27
BRANCH   2  29
ATOM     29  C   UNL     1       4.495   1.485  -4.985  0.00  0.00    +0.245 C 
ATOM     30  O   UNL     1       4.948   1.032  -6.009  0.00  0.00    -0.287 OA
BRANCH  29  31
ATOM     31  C   UNL     1       4.526   2.971  -4.740  0.00  0.00    +0.451 C 
ATOM     32  F   UNL     1       5.123   3.611  -5.831  0.00  0.00    -0.163 F 
ATOM     33  F   UNL     1       3.220   3.445  -4.579  0.00  0.00    -0.163 F 
ATOM     34  F   UNL     1       5.265   3.237  -3.582  0.00  0.00    -0.163 F 
ENDBRANCH  29  31
ENDBRANCH   2  29
TORSDOF 7
