REMARK  Name = ZINC50286041
REMARK  2 active torsions:
REMARK  status: ('A' for Active; 'I' for Inactive)
REMARK    1  A    between atoms: C_1  and  N_2
REMARK    2  A    between atoms: C_10  and  C_12
REMARK                            x       y       z     vdW  Elec       q    Type
REMARK                         _______ _______ _______ _____ _____    ______ ____
ROOT
ATOM      1  C   UNL     1      -0.018   1.461   0.010  0.00  0.00    +0.129 C 
ATOM      2  N   UNL     1       0.002  -0.004   0.002  0.00  0.00    -0.333 N 
ATOM      3  C   UNL     1      -1.248  -0.767   0.114  0.00  0.00    +0.105 C 
ATOM      4  C   UNL     1      -1.017  -1.901   1.122  0.00  0.00    +0.024 C 
ATOM      5  C   UNL     1       0.057  -2.838   0.571  0.00  0.00    +0.038 C 
ATOM      6  C   UNL     1       1.276  -2.057   0.155  0.00  0.00    -0.026 A 
ATOM      7  C   UNL     1       1.207  -0.695  -0.118  0.00  0.00    +0.033 A 
ATOM      8  C   UNL     1       2.348   0.002  -0.511  0.00  0.00    +0.024 A 
ATOM      9  C   UNL     1       3.551  -0.653  -0.634  0.00  0.00    +0.013 A 
ATOM     10  C   UNL     1       3.627  -2.021  -0.364  0.00  0.00    +0.012 A 
ATOM     11  C   UNL     1       2.482  -2.717   0.039  0.00  0.00    +0.016 A 
ENDROOT
BRANCH  10  12
ATOM     12  C   UNL     1       4.916  -2.731  -0.494  0.00  0.00    +0.094 C 
ATOM     13  N   UNL     1       5.821  -2.313  -1.379  0.00  0.00    -0.387 N 
ATOM     14  N   UNL     1       5.174  -3.789   0.275  0.00  0.00    -0.345 N 
ATOM     15  H   UNL     1       5.633  -1.544  -1.938  0.00  0.00    +0.157 HD
ATOM     16  H   UNL     1       4.516  -4.093   0.919  0.00  0.00    +0.144 HD
ATOM     17  H   UNL     1       6.021  -4.255   0.190  0.00  0.00    +0.144 HD
ATOM     18  H   UNL     1       6.667  -2.780  -1.464  0.00  0.00    +0.157 HD
ENDBRANCH  10  12
TORSDOF 1
