REMARK  Name = ZINC56898917
REMARK  7 active torsions:
REMARK  status: ('A' for Active; 'I' for Inactive)
REMARK    1  A    between atoms: C_1  and  C_2
REMARK    2  A    between atoms: C_2  and  C_4
REMARK    3  A    between atoms: C_2  and  N_17
REMARK    4  A    between atoms: C_7  and  N_10
REMARK    5  A    between atoms: N_13  and  C_16
REMARK    6  A    between atoms: N_20  and  N_21
REMARK    7  A    between atoms: N_24  and  C_25
REMARK                            x       y       z     vdW  Elec       q    Type
REMARK                         _______ _______ _______ _____ _____    ______ ____
ROOT
ATOM      1  N   UNL     1      -1.963  -0.638   0.189  0.00  0.00    -0.292 N 
ATOM      2  C   UNL     1      -2.566  -0.811  -1.004  0.00  0.00    +0.316 C 
ATOM      3  O   UNL     1      -1.974  -0.538  -2.030  0.00  0.00    -0.251 OA
ATOM      4  N   UNL     1      -3.826  -1.287  -1.059  0.00  0.00    -0.217 N 
ATOM      5  H   UNL     1      -2.436  -0.856   1.008  0.00  0.00    +0.151 HD
ATOM      6  H   UNL     1      -4.260  -1.411  -1.918  0.00  0.00    +0.174 HD
ENDROOT
BRANCH   4   7
ATOM      7  N   UNL     1      -4.508  -1.602   0.123  0.00  0.00    -0.217 N 
ATOM      8  C   UNL     1      -5.768  -2.077   0.068  0.00  0.00    +0.320 C 
ATOM      9  O   UNL     1      -6.361  -2.351   1.094  0.00  0.00    -0.251 OA
ATOM     10  N   UNL     1      -6.371  -2.250  -1.125  0.00  0.00    -0.268 N 
ATOM     11  H   UNL     1      -4.074  -1.477   0.981  0.00  0.00    +0.174 HD
ATOM     12  H   UNL     1      -5.873  -2.109  -1.946  0.00  0.00    +0.156 HD
BRANCH  10  13
ATOM     13  C   UNL     1      -7.716  -2.634  -1.180  0.00  0.00    +0.035 A 
ATOM     14  C   UNL     1      -8.158  -3.478  -2.191  0.00  0.00    +0.023 A 
ATOM     15  C   UNL     1      -9.486  -3.855  -2.243  0.00  0.00    +0.002 A 
ATOM     16  C   UNL     1     -10.375  -3.393  -1.290  0.00  0.00    +0.000 A 
ATOM     17  C   UNL     1      -9.938  -2.553  -0.282  0.00  0.00    +0.002 A 
ATOM     18  C   UNL     1      -8.610  -2.177  -0.221  0.00  0.00    +0.023 A 
ENDBRANCH  10  13
ENDBRANCH   4   7
BRANCH   1  20
ATOM     19  C   UNL     1      -0.624   1.408   0.208  0.00  0.00    +0.033 C 
ATOM     20  C   UNL     1      -0.594  -0.121   0.249  0.00  0.00    +0.102 C 
BRANCH  20  21
ATOM     21  C   UNL     1       0.059  -0.576   1.529  0.00  0.00    -0.027 A 
ATOM     22  C   UNL     1      -0.668  -0.598   2.705  0.00  0.00    +0.007 A 
ATOM     23  C   UNL     1      -0.073  -1.014   3.879  0.00  0.00    +0.023 A 
ATOM     24  C   UNL     1       1.258  -1.412   3.878  0.00  0.00    +0.030 A 
ATOM     25  C   UNL     1       1.986  -1.389   2.696  0.00  0.00    +0.023 A 
ATOM     26  C   UNL     1       1.383  -0.977   1.524  0.00  0.00    +0.007 A 
BRANCH  24  27
ATOM     27  N   UNL     1       1.863  -1.833   5.065  0.00  0.00    -0.333 N 
ATOM     28  C   UNL     1       3.236  -2.362   5.067  0.00  0.00    +0.086 C 
ATOM     29  C   UNL     1       4.038  -1.629   6.147  0.00  0.00    -0.060 C 
ATOM     30  N   UNL     1       3.342  -1.744   7.435  0.00  0.00    +0.380 N 
ATOM     31  C   UNL     1       2.047  -1.055   7.367  0.00  0.00    -0.060 C 
ATOM     32  C   UNL     1       1.149  -1.755   6.348  0.00  0.00    +0.086 C 
ATOM     33  C   UNL     1       4.163  -1.137   8.490  0.00  0.00    -0.096 C 
ATOM     34  H   UNL     1       3.191  -2.719   7.649  0.00  0.00    -0.082 HD
ENDBRANCH  24  27
ENDBRANCH  20  21
ENDBRANCH   1  20
TORSDOF 5
