REMARK  Name = ZINC56184301
REMARK  10 active torsions:
REMARK  status: ('A' for Active; 'I' for Inactive)
REMARK    1  A    between atoms: C_1  and  C_2
REMARK    2  A    between atoms: C_2  and  C_4
REMARK    3  A    between atoms: C_2  and  N_18
REMARK    4  A    between atoms: C_7  and  O_10
REMARK    5  A    between atoms: O_10  and  C_11
REMARK    6  A    between atoms: C_11  and  C_12
REMARK    7  A    between atoms: N_14  and  C_15
REMARK    8  A    between atoms: N_18  and  C_19
REMARK    9  A    between atoms: C_19  and  C_21
REMARK   10  A    between atoms: C_19  and  C_27
REMARK                            x       y       z     vdW  Elec       q    Type
REMARK                         _______ _______ _______ _____ _____    ______ ____
ROOT
ATOM      1  C   UNL     1      -0.019   1.526   0.010  0.00  0.00    -0.009 C 
ATOM      2  C   UNL     1       0.002  -0.004   0.002  0.00  0.00    -0.043 C 
ENDROOT
BRANCH   2   3
ATOM      3  C   UNL     1       0.731  -0.503   1.223  0.00  0.00    -0.061 A 
ATOM      4  C   UNL     1       2.113  -0.513   1.245  0.00  0.00    +0.005 A 
ATOM      5  C   UNL     1       2.784  -0.971   2.363  0.00  0.00    +0.046 A 
ATOM      6  C   UNL     1       2.069  -1.420   3.464  0.00  0.00    +0.121 A 
ATOM      7  C   UNL     1       0.682  -1.409   3.439  0.00  0.00    +0.046 A 
ATOM      8  C   UNL     1       0.016  -0.945   2.321  0.00  0.00    +0.005 A 
BRANCH   6   9
ATOM      9  O   UNL     1       2.726  -1.871   4.565  0.00  0.00    -0.483 OA
BRANCH   9  10
ATOM     10  C   UNL     1       1.926  -2.318   5.660  0.00  0.00    +0.324 C 
BRANCH  10  11
ATOM     11  C   UNL     1       2.821  -2.778   6.782  0.00  0.00    +0.251 C 
ATOM     12  O   UNL     1       4.026  -2.728   6.655  0.00  0.00    -0.272 OA
ATOM     13  N   UNL     1       2.283  -3.245   7.926  0.00  0.00    -0.310 N 
ATOM     14  H   UNL     1       1.319  -3.286   8.027  0.00  0.00    +0.149 HD
BRANCH  13  15
ATOM     15  C   UNL     1       3.153  -3.692   9.016  0.00  0.00    +0.073 C 
ATOM     16  C   UNL     1       2.781  -4.995   9.728  0.00  0.00    +0.024 C 
ATOM     17  C   UNL     1       2.584  -3.653  10.436  0.00  0.00    +0.024 C 
ENDBRANCH  13  15
ENDBRANCH  10  11
ENDBRANCH   9  10
ENDBRANCH   6   9
ENDBRANCH   2   3
BRANCH   2  18
ATOM     18  N   UNL     1       0.690  -0.478  -1.207  0.00  0.00    +0.394 N 
ATOM     19  H   UNL     1       1.608  -0.063  -1.256  0.00  0.00    -0.083 HD
ATOM     20  H   UNL     1       0.776  -1.482  -1.172  0.00  0.00    -0.083 HD
BRANCH  18  21
ATOM     21  C   UNL     1      -0.086  -0.093  -2.394  0.00  0.00    +0.047 C 
BRANCH  21  22
ATOM     22  C   UNL     1       0.679  -0.470  -3.637  0.00  0.00    -0.053 A 
ATOM     23  C   UNL     1       1.361  -1.671  -3.691  0.00  0.00    +0.002 A 
ATOM     24  C   UNL     1       2.062  -2.017  -4.831  0.00  0.00    +0.000 A 
ATOM     25  C   UNL     1       2.080  -1.162  -5.917  0.00  0.00    +0.000 A 
ATOM     26  C   UNL     1       1.397   0.039  -5.863  0.00  0.00    +0.000 A 
ATOM     27  C   UNL     1       0.693   0.383  -4.724  0.00  0.00    +0.002 A 
ENDBRANCH  21  22
BRANCH  21  28
ATOM     28  C   UNL     1      -1.411  -0.810  -2.382  0.00  0.00    +0.201 C 
ATOM     29  O   UNL     1      -1.683  -1.567  -1.474  0.00  0.00    -0.277 OA
ATOM     30  N   UNL     1      -2.294  -0.610  -3.380  0.00  0.00    -0.330 N 
ATOM     31  H   UNL     1      -2.077  -0.005  -4.106  0.00  0.00    +0.145 HD
ATOM     32  H   UNL     1      -3.147  -1.072  -3.373  0.00  0.00    +0.145 HD
ENDBRANCH  21  28
ENDBRANCH  18  21
ENDBRANCH   2  18
TORSDOF 9
