REMARK  Name = ZINC31959922
REMARK  5 active torsions:
REMARK  status: ('A' for Active; 'I' for Inactive)
REMARK    1  A    between atoms: C_1  and  C_2
REMARK    2  A    between atoms: C_3  and  C_13
REMARK    3  A    between atoms: N_6  and  C_7
REMARK    4  A    between atoms: C_7  and  C_9
REMARK    5  A    between atoms: C_9  and  N_10
REMARK                            x       y       z     vdW  Elec       q    Type
REMARK                         _______ _______ _______ _____ _____    ______ ____
ROOT
ATOM      1  C   UNL     1      -2.501   0.895   0.019  0.00  0.00    +0.064 C 
ATOM      2  C   UNL     1      -1.190   1.640   0.017  0.00  0.00    +0.024 A 
ATOM      3  C   UNL     1      -1.166   2.977   0.029  0.00  0.00    +0.009 A 
ATOM      4  S   UNL     1       0.586   3.314   0.014  0.00  0.00    -0.057 S 
ATOM      5  C   UNL     1       1.153   1.674   0.000  0.00  0.00    +0.163 A 
ATOM      6  N   UNL     1       2.409   1.222  -0.015  0.00  0.00    -0.158 NA
ATOM      7  N   UNL     1      -0.011   0.966   0.007  0.00  0.00    -0.339 N 
ATOM      8  H   UNL     1      -0.006  -0.134   0.006  0.00  0.00    +0.167 HD
ATOM      9  C   UNL     1      -2.319   3.947   0.045  0.00  0.00    +0.053 C 
ENDROOT
BRANCH   6  10
ATOM     10  C   UNL     1       2.644  -0.084  -0.025  0.00  0.00    +0.221 C 
ATOM     11  O   UNL     1       1.715  -0.869  -0.020  0.00  0.00    -0.276 OA
BRANCH  10  12
ATOM     12  C   UNL     1       4.062  -0.595  -0.041  0.00  0.00    +0.013 C 
BRANCH  12  13
ATOM     13  N   UNL     1       4.053  -2.063  -0.050  0.00  0.00    +0.384 N 
ATOM     14  H   UNL     1       5.088  -2.436  -0.062  0.00  0.00    -0.089 HD
ATOM     15  H   UNL     1       3.524  -2.422  -0.945  0.00  0.00    -0.089 HD
ATOM     16  H   UNL     1       3.541  -2.432   0.852  0.00  0.00    -0.089 HD
ENDBRANCH  12  13
ENDBRANCH  10  12
ENDBRANCH   6  10
TORSDOF 3
