REMARK  Name = ZINC08951914
REMARK  10 active torsions:
REMARK  status: ('A' for Active; 'I' for Inactive)
REMARK    1  A    between atoms: C_5  and  O_8
REMARK    2  A    between atoms: C_6  and  O_7
REMARK    3  A    between atoms: C_12  and  O_35
REMARK    4  A    between atoms: C_13  and  C_19
REMARK    5  A    between atoms: C_14  and  O_18
REMARK    6  A    between atoms: C_21  and  O_34
REMARK    7  A    between atoms: C_23  and  O_33
REMARK    8  A    between atoms: C_25  and  O_32
REMARK    9  A    between atoms: C_27  and  C_30
REMARK   10  A    between atoms: C_30  and  O_31
REMARK                            x       y       z     vdW  Elec       q    Type
REMARK                         _______ _______ _______ _____ _____    ______ ____
ROOT
ATOM      1  C   UNL     1       7.386   0.229   0.831  0.00  0.00    +0.064 A 
ATOM      2  C   UNL     1       6.247   0.988   0.550  0.00  0.00    +0.068 A 
ATOM      3  C   UNL     1       6.361   2.349   0.225  0.00  0.00    +0.143 A 
ATOM      4  C   UNL     1       7.622   2.932   0.185  0.00  0.00    +0.096 A 
ATOM      5  C   UNL     1       8.746   2.177   0.465  0.00  0.00    +0.162 A 
ATOM      6  C   UNL     1       8.630   0.823   0.788  0.00  0.00    +0.159 A 
ATOM      7  O   UNL     1       5.269   3.092  -0.047  0.00  0.00    -0.454 OA
ATOM      8  C   UNL     1       4.012   2.603  -0.031  0.00  0.00    +0.146 A 
ATOM      9  C   UNL     1       2.942   3.436  -0.324  0.00  0.00    +0.093 A 
ATOM     10  C   UNL     1       1.648   2.940  -0.315  0.00  0.00    +0.130 A 
ATOM     11  C   UNL     1       1.401   1.608  -0.003  0.00  0.00    +0.067 A 
ATOM     12  C   UNL     1       2.453   0.760   0.293  0.00  0.00    +0.140 A 
ATOM     13  C   UNL     1       3.764   1.255   0.280  0.00  0.00    +0.106 A 
ATOM     14  C   UNL     1       4.904   0.376   0.590  0.00  0.00    +0.204 A 
ATOM     15  O   UNL     1       4.747  -0.800   0.866  0.00  0.00    -0.286 OA
ENDROOT
BRANCH  11  16
ATOM     16  C   UNL     1      -0.013   1.086   0.008  0.00  0.00    +0.187 C 
ATOM     17  C   UNL     1      -0.730   1.580   1.267  0.00  0.00    +0.179 C 
ATOM     18  C   UNL     1      -2.183   1.095   1.241  0.00  0.00    +0.177 C 
ATOM     19  C   UNL     1      -2.853   1.594  -0.043  0.00  0.00    +0.176 C 
ATOM     20  C   UNL     1      -2.054   1.100  -1.251  0.00  0.00    +0.175 C 
ATOM     21  O   UNL     1      -0.704   1.559  -1.149  0.00  0.00    -0.361 OA
BRANCH  19  22
ATOM     22  O   UNL     1      -4.187   1.088  -0.113  0.00  0.00    -0.386 OA
ATOM     23  H   UNL     1      -4.750   1.358   0.626  0.00  0.00    +0.210 HD
ENDBRANCH  19  22
BRANCH  18  24
ATOM     24  O   UNL     1      -2.211  -0.333   1.274  0.00  0.00    -0.386 OA
ATOM     25  H   UNL     1      -3.102  -0.709   1.259  0.00  0.00    +0.210 HD
ENDBRANCH  18  24
BRANCH  17  26
ATOM     26  O   UNL     1      -0.073   1.061   2.425  0.00  0.00    -0.386 OA
ATOM     27  H   UNL     1      -0.475   1.334   3.261  0.00  0.00    +0.210 HD
ENDBRANCH  17  26
BRANCH  20  28
ATOM     28  C   UNL     1      -2.682   1.644  -2.536  0.00  0.00    +0.190 C 
BRANCH  28  29
ATOM     29  O   UNL     1      -2.009   1.089  -3.668  0.00  0.00    -0.392 OA
ATOM     30  H   UNL     1      -2.355   1.391  -4.518  0.00  0.00    +0.210 HD
ENDBRANCH  28  29
ENDBRANCH  20  28
ENDBRANCH  11  16
BRANCH   6  31
ATOM     31  O   UNL     1       9.743   0.090   1.060  0.00  0.00    -0.503 OA
ATOM     32  H   UNL     1      10.136  -0.332   0.283  0.00  0.00    +0.292 HD
ENDBRANCH   6  31
BRANCH   5  33
ATOM     33  O   UNL     1       9.974   2.756   0.424  0.00  0.00    -0.503 OA
ATOM     34  H   UNL     1      10.400   2.714  -0.443  0.00  0.00    +0.292 HD
ENDBRANCH   5  33
BRANCH  12  35
ATOM     35  O   UNL     1       2.217  -0.542   0.593  0.00  0.00    -0.505 OA
ATOM     36  H   UNL     1       2.219  -1.129  -0.175  0.00  0.00    +0.292 HD
ENDBRANCH  12  35
BRANCH  10  37
ATOM     37  O   UNL     1       0.610   3.764  -0.610  0.00  0.00    -0.506 OA
ATOM     38  H   UNL     1       0.237   4.216   0.159  0.00  0.00    +0.292 HD
ENDBRANCH  10  37
TORSDOF 10
