REMARK  Name = ZINC09672712
REMARK  7 active torsions:
REMARK  status: ('A' for Active; 'I' for Inactive)
REMARK    1  A    between atoms: C_1  and  C_2
REMARK    2  A    between atoms: C_4  and  C_33
REMARK    3  A    between atoms: C_8  and  N_28
REMARK    4  A    between atoms: C_9  and  C_11
REMARK    5  A    between atoms: N_13  and  C_14
REMARK    6  A    between atoms: C_18  and  S_20
REMARK    7  A    between atoms: S_20  and  N_23
REMARK                            x       y       z     vdW  Elec       q    Type
REMARK                         _______ _______ _______ _____ _____    ______ ____
ROOT
ATOM      1  C   UNL     1       5.553  -0.571  -4.042  0.00  0.00    +0.257 C 
ATOM      2  O   UNL     1       5.370   0.156  -5.001  0.00  0.00    -0.269 OA
ATOM      3  N   UNL     1       5.200  -0.161  -2.808  0.00  0.00    -0.281 N 
ATOM      4  H   UNL     1       5.409  -0.710  -2.036  0.00  0.00    +0.155 HD
ENDROOT
BRANCH   1  13
ATOM      5  C   UNL     1       7.631  -4.101  -7.816  0.00  0.00    +0.044 C 
ATOM      6  C   UNL     1       7.655  -4.609  -6.397  0.00  0.00    -0.037 A 
ATOM      7  C   UNL     1       8.160  -5.855  -6.111  0.00  0.00    +0.027 A 
ATOM      8  C   UNL     1       8.181  -6.320  -4.804  0.00  0.00    +0.040 A 
ATOM      9  N   UNL     1       7.716  -5.574  -3.822  0.00  0.00    -0.245 NA
ATOM     10  C   UNL     1       7.222  -4.375  -4.045  0.00  0.00    +0.111 A 
ATOM     11  C   UNL     1       7.155  -3.810  -5.339  0.00  0.00    +0.035 A 
ATOM     12  C   UNL     1       6.579  -2.476  -5.401  0.00  0.00    +0.075 A 
ATOM     13  C   UNL     1       6.158  -1.891  -4.230  0.00  0.00    +0.101 A 
ATOM     14  S   UNL     1       6.531  -3.120  -2.995  0.00  0.00    -0.062 S 
ATOM     15  C   UNL     1       8.739  -7.688  -4.506  0.00  0.00    +0.065 C 
BRANCH  12  16
ATOM     16  N   UNL     1       6.457  -1.807  -6.619  0.00  0.00    -0.321 N 
ATOM     17  C   UNL     1       7.489  -1.293  -7.353  0.00  0.00    +0.091 A 
ATOM     18  C   UNL     1       6.975  -0.726  -8.463  0.00  0.00    +0.019 A 
ATOM     19  C   UNL     1       5.575  -0.887  -8.411  0.00  0.00    +0.019 A 
ATOM     20  C   UNL     1       5.286  -1.551  -7.274  0.00  0.00    +0.091 A 
ENDBRANCH  12  16
ENDBRANCH   1  13
BRANCH   3  21
ATOM     21  C   UNL     1       4.532   1.056  -2.639  0.00  0.00    +0.036 A 
ATOM     22  C   UNL     1       3.647   1.504  -3.612  0.00  0.00    +0.023 A 
ATOM     23  C   UNL     1       2.989   2.706  -3.443  0.00  0.00    +0.004 A 
ATOM     24  C   UNL     1       3.210   3.463  -2.307  0.00  0.00    +0.029 A 
ATOM     25  C   UNL     1       4.090   3.020  -1.337  0.00  0.00    +0.110 A 
ATOM     26  C   UNL     1       4.756   1.821  -1.503  0.00  0.00    +0.052 A 
BRANCH  25  27
ATOM     27  S   UNL     1       4.368   3.989   0.108  0.00  0.00    +0.073 S 
ATOM     28  O   UNL     1       4.043   5.329  -0.233  0.00  0.00    -0.150 OA
ATOM     29  O   UNL     1       5.647   3.618   0.606  0.00  0.00    -0.150 OA
BRANCH  27  30
ATOM     30  N   UNL     1       3.261   3.506   1.241  0.00  0.00    -0.205 N 
ATOM     31  C   UNL     1       3.309   2.234   1.748  0.00  0.00    +0.088 C 
ATOM     32  C   UNL     1       3.981   0.076   2.116  0.00  0.00    +0.114 C 
ATOM     33  C   UNL     1       2.553   0.155   2.703  0.00  0.00    +0.028 C 
ATOM     34  C   UNL     1       2.355   1.690   2.788  0.00  0.00    +0.072 C 
ATOM     35  H   UNL     1       2.576   4.123   1.544  0.00  0.00    +0.175 HD
ATOM     36  N   UNL     1       4.188   1.349   1.393  0.00  0.00    -0.375 N 
ATOM     37  H   UNL     1       4.930   1.511   0.702  0.00  0.00    +0.161 HD
ENDBRANCH  27  30
ENDBRANCH  25  27
ENDBRANCH   3  21
TORSDOF 5
