REMARK  Name = ZINC22309423
REMARK  8 active torsions:
REMARK  status: ('A' for Active; 'I' for Inactive)
REMARK    1  A    between atoms: C_1  and  C_2
REMARK    2  A    between atoms: C_2  and  N_3
REMARK    3  A    between atoms: C_7  and  S_30
REMARK    4  A    between atoms: C_11  and  S_12
REMARK    5  A    between atoms: S_12  and  C_13
REMARK    6  A    between atoms: C_13  and  C_14
REMARK    7  A    between atoms: N_19  and  C_20
REMARK    8  A    between atoms: S_30  and  N_33
REMARK                            x       y       z     vdW  Elec       q    Type
REMARK                         _______ _______ _______ _____ _____    ______ ____
ROOT
ATOM      1  C   UNL     1      -8.606   0.679   2.110  0.00  0.00    +0.173 C 
ENDROOT
BRANCH   1   2
ATOM      2  C   UNL     1      -7.192   1.201   2.099  0.00  0.00    +0.231 C 
ATOM      3  O   UNL     1      -6.796   1.898   3.008  0.00  0.00    -0.274 OA
ATOM      4  N   UNL     1      -6.368   0.892   1.079  0.00  0.00    -0.239 N 
ATOM      5  C   UNL     1      -5.103   1.358   1.069  0.00  0.00    +0.306 C 
ATOM      6  O   UNL     1      -4.707   2.057   1.980  0.00  0.00    -0.252 OA
ATOM      7  N   UNL     1      -4.279   1.049   0.049  0.00  0.00    -0.294 N 
ATOM      8  H   UNL     1      -6.727   0.259   0.254  0.00  0.00    +0.159 HD
ATOM      9  H   UNL     1      -4.638   0.417  -0.776  0.00  0.00    +0.151 HD
BRANCH   7  10
ATOM     10  C   UNL     1      -2.904   1.556   0.038  0.00  0.00    +0.037 C 
ATOM     11  C   UNL     1      -2.188   1.063  -1.221  0.00  0.00    +0.029 C 
ATOM     12  C   UNL     1      -0.753   1.593  -1.232  0.00  0.00    -0.008 C 
ATOM     13  C   UNL     1      -0.013   1.086   0.008  0.00  0.00    +0.007 C 
ATOM     14  C   UNL     1      -0.729   1.579   1.267  0.00  0.00    -0.008 C 
ATOM     15  C   UNL     1      -2.164   1.050   1.278  0.00  0.00    +0.029 C 
ATOM     16  C   UNL     1      -0.750   3.109   1.275  0.00  0.00    +0.007 C 
ATOM     17  C   UNL     1      -1.490   3.616   0.036  0.00  0.00    -0.008 C 
ATOM     18  C   UNL     1      -0.773   3.123  -1.223  0.00  0.00    +0.007 C 
ATOM     19  C   UNL     1      -2.925   3.086   0.047  0.00  0.00    +0.029 C 
ENDBRANCH   7  10
ENDBRANCH   1   2
BRANCH   1  20
ATOM     20  S   UNL     1      -9.453   1.263   3.599  0.00  0.00    -0.078 S 
BRANCH  20  29
ATOM     21  N   UNL     1     -12.094   0.642   4.216  0.00  0.00    -0.319 N 
ATOM     22  C   UNL     1     -13.145  -0.075   3.669  0.00  0.00    +0.070 A 
ATOM     23  C   UNL     1     -14.450  -0.323   4.067  0.00  0.00    +0.030 A 
ATOM     24  C   UNL     1     -15.271  -1.105   3.282  0.00  0.00    +0.030 A 
ATOM     25  C   UNL     1     -14.801  -1.647   2.095  0.00  0.00    +0.107 A 
ATOM     26  C   UNL     1     -13.508  -1.412   1.684  0.00  0.00    +0.058 A 
ATOM     27  C   UNL     1     -12.663  -0.621   2.468  0.00  0.00    +0.092 A 
ATOM     28  N   UNL     1     -11.372  -0.219   2.335  0.00  0.00    -0.222 NA
ATOM     29  C   UNL     1     -11.036   0.526   3.359  0.00  0.00    +0.170 A 
BRANCH  25  30
ATOM     30  S   UNL     1     -15.865  -2.643   1.106  0.00  0.00    +0.056 S 
ATOM     31  O   UNL     1     -15.026  -3.480   0.322  0.00  0.00    -0.153 OA
ATOM     32  O   UNL     1     -16.860  -3.164   1.978  0.00  0.00    -0.153 OA
BRANCH  30  33
ATOM     33  N   UNL     1     -16.643  -1.631   0.051  0.00  0.00    -0.204 NA
ATOM     34  H   UNL     1     -17.320  -2.217  -0.587  0.00  0.00    +0.144 HD
ATOM     35  H   UNL     1     -15.901  -1.116  -0.577  0.00  0.00    +0.144 HD
ENDBRANCH  30  33
ENDBRANCH  25  30
BRANCH  21  37
ATOM     36  C   UNL     1     -12.562   2.827   5.210  0.00  0.00    +0.027 C 
ATOM     37  C   UNL     1     -12.114   1.389   5.476  0.00  0.00    +0.121 C 
ENDBRANCH  21  37
ENDBRANCH  20  29
ENDBRANCH   1  20
TORSDOF 7
