REMARK  Name = ZINC65381931
REMARK  5 active torsions:
REMARK  status: ('A' for Active; 'I' for Inactive)
REMARK    1  A    between atoms: C_1  and  C_2
REMARK    2  A    between atoms: C_8  and  C_12
REMARK    3  A    between atoms: N_10  and  C_11
REMARK    4  A    between atoms: C_12  and  N_13
REMARK    5  A    between atoms: C_18  and  C_20
REMARK                            x       y       z     vdW  Elec       q    Type
REMARK                         _______ _______ _______ _____ _____    ______ ____
ROOT
ATOM      1  N   UNL     1      -1.323  -2.795   4.192  0.00  0.00    -0.323 N 
ATOM      2  C   UNL     1      -1.573  -2.574   5.536  0.00  0.00    +0.126 A 
ATOM      3  C   UNL     1      -2.888  -2.518   6.015  0.00  0.00    +0.010 A 
ATOM      4  C   UNL     1      -3.087  -2.283   7.351  0.00  0.00    +0.022 A 
ATOM      5  N   UNL     1      -2.030  -2.149   8.148  0.00  0.00    -0.347 N 
ATOM      6  C   UNL     1      -0.805  -2.210   7.671  0.00  0.00    +0.106 A 
ATOM      7  N   UNL     1      -0.569  -2.417   6.392  0.00  0.00    -0.219 NA
ATOM      8  C   UNL     1       0.359  -2.046   8.615  0.00  0.00    +0.086 C 
ATOM      9  C   UNL     1      -4.462  -2.136   7.944  0.00  0.00    +0.034 C 
ATOM     10  C   UNL     1      -5.359  -3.299   7.507  0.00  0.00    -0.076 C 
ATOM     11  N   UNL     1      -6.093  -2.888   6.310  0.00  0.00    +0.380 N 
ATOM     12  C   UNL     1      -5.274  -1.987   5.491  0.00  0.00    -0.078 C 
ATOM     13  C   UNL     1      -4.018  -2.736   5.042  0.00  0.00    +0.021 C 
ATOM     14  H   UNL     1      -2.061  -2.909   3.573  0.00  0.00    +0.148 HD
ATOM     15  H   UNL     1      -6.333  -3.705   5.769  0.00  0.00    -0.086 HD
ATOM     16  H   UNL     1      -2.165  -2.002   9.098  0.00  0.00    +0.167 HD
ATOM     17  H   UNL     1      -6.939  -2.412   6.584  0.00  0.00    -0.086 HD
ENDROOT
BRANCH   1  18
ATOM     18  C   UNL     1       0.057  -2.858   3.704  0.00  0.00    +0.161 C 
BRANCH  18  26
ATOM     19  C   UNL     1      -0.018   1.503   0.010  0.00  0.00    +0.044 C 
ATOM     20  C   UNL     1       0.002  -0.004   0.002  0.00  0.00    -0.050 A 
ATOM     21  C   UNL     1       0.006  -0.686  -1.209  0.00  0.00    +0.005 A 
ATOM     22  C   UNL     1       0.024  -2.051  -1.243  0.00  0.00    +0.028 A 
ATOM     23  C   UNL     1       0.040  -2.774  -0.053  0.00  0.00    +0.069 A 
ATOM     24  C   UNL     1       0.036  -2.086   1.175  0.00  0.00    +0.025 A 
ATOM     25  C   UNL     1       0.023  -0.686   1.184  0.00  0.00    +0.015 A 
ATOM     26  C   UNL     1       0.054  -3.106   2.218  0.00  0.00    +0.088 A 
ATOM     27  N   UNL     1       0.067  -4.271   1.634  0.00  0.00    -0.174 NA
ATOM     28  N   UNL     1       0.058  -4.112   0.245  0.00  0.00    -0.266 N 
ATOM     29  C   UNL     1       0.068  -5.201  -0.735  0.00  0.00    +0.173 C 
ENDBRANCH  18  26
ENDBRANCH   1  18
TORSDOF 2
