REMARK  Name = ZINC55748998
REMARK  9 active torsions:
REMARK  status: ('A' for Active; 'I' for Inactive)
REMARK    1  A    between atoms: C_1  and  C_2
REMARK    2  A    between atoms: C_5  and  C_28
REMARK    3  A    between atoms: N_8  and  C_10
REMARK    4  A    between atoms: C_10  and  C_11
REMARK    5  A    between atoms: C_11  and  C_13
REMARK    6  A    between atoms: C_11  and  N_14
REMARK    7  A    between atoms: C_15  and  C_17
REMARK    8  A    between atoms: C_19  and  S_24
REMARK    9  A    between atoms: S_24  and  N_27
REMARK                            x       y       z     vdW  Elec       q    Type
REMARK                         _______ _______ _______ _____ _____    ______ ____
ROOT
ATOM      1  N   UNL     1       3.510  -2.495   0.951  0.00  0.00    -0.310 N 
ATOM      2  C   UNL     1       4.540  -1.852   0.365  0.00  0.00    +0.246 C 
ATOM      3  O   UNL     1       5.039  -0.884   0.906  0.00  0.00    -0.270 OA
ATOM      4  H   UNL     1       3.112  -3.266   0.519  0.00  0.00    +0.149 HD
ENDROOT
BRANCH   2   5
ATOM      5  C   UNL     1       5.062  -2.322  -0.935  0.00  0.00    +0.057 A 
ATOM      6  C   UNL     1       4.487  -3.429  -1.562  0.00  0.00    +0.043 A 
ATOM      7  C   UNL     1       4.978  -3.863  -2.776  0.00  0.00    +0.106 A 
ATOM      8  C   UNL     1       6.039  -3.205  -3.372  0.00  0.00    +0.030 A 
ATOM      9  C   UNL     1       6.614  -2.108  -2.758  0.00  0.00    +0.022 A 
ATOM     10  C   UNL     1       6.129  -1.658  -1.545  0.00  0.00    +0.053 A 
ATOM     11 CL   UNL     1       6.847  -0.276  -0.778  0.00  0.00    -0.083 Cl
BRANCH   7  12
ATOM     12  S   UNL     1       4.253  -5.260  -3.568  0.00  0.00    +0.056 S 
ATOM     13  O   UNL     1       5.246  -5.798  -4.431  0.00  0.00    -0.153 OA
ATOM     14  O   UNL     1       3.633  -6.030  -2.547  0.00  0.00    -0.153 OA
BRANCH  12  15
ATOM     15  N   UNL     1       3.037  -4.696  -4.540  0.00  0.00    -0.204 NA
ATOM     16  H   UNL     1       2.852  -3.744  -4.582  0.00  0.00    +0.144 HD
ATOM     17  H   UNL     1       2.510  -5.316  -5.067  0.00  0.00    +0.144 HD
ENDBRANCH  12  15
ENDBRANCH   7  12
ENDBRANCH   2   5
BRANCH   1  18
ATOM     18  C   UNL     1       2.993  -2.028   2.239  0.00  0.00    +0.054 C 
ATOM     19  C   UNL     1       3.825  -2.634   3.372  0.00  0.00    +0.026 C 
BRANCH  18  20
ATOM     20  C   UNL     1       1.534  -2.461   2.390  0.00  0.00    -0.057 C 
BRANCH  20  26
ATOM     21  C   UNL     1      -0.019   1.526   0.010  0.00  0.00    +0.005 C 
ATOM     22  C   UNL     1       0.002  -0.004   0.002  0.00  0.00    -0.031 C 
ATOM     23  C   UNL     1      -1.434  -0.535   0.015  0.00  0.00    +0.003 C 
ATOM     24  C   UNL     1      -1.402  -2.064   0.086  0.00  0.00    -0.031 C 
ATOM     25  C   UNL     1      -0.613  -2.496   1.324  0.00  0.00    -0.076 C 
ATOM     26  N   UNL     1       0.758  -1.980   1.239  0.00  0.00    +0.381 N 
ATOM     27  C   UNL     1       0.740  -0.512   1.242  0.00  0.00    -0.076 C 
ATOM     28  C   UNL     1      -2.832  -2.602   0.177  0.00  0.00    +0.005 C 
ATOM     29  H   UNL     1       1.188  -2.307   0.386  0.00  0.00    -0.082 HD
ENDBRANCH  20  26
ENDBRANCH  18  20
ENDBRANCH   1  18
TORSDOF 6
