REMARK  Name = ZINC37969113
REMARK  4 active torsions:
REMARK  status: ('A' for Active; 'I' for Inactive)
REMARK    1  A    between atoms: C_2  and  C_9
REMARK    2  A    between atoms: C_9  and  C_11
REMARK    3  A    between atoms: C_9  and  N_14
REMARK    4  A    between atoms: N_14  and  C_15
REMARK                            x       y       z     vdW  Elec       q    Type
REMARK                         _______ _______ _______ _____ _____    ______ ____
ROOT
ATOM      1  C   UNL     1       1.240   3.518  -0.013  0.00  0.00    +0.047 C 
ENDROOT
BRANCH   1   3
ATOM      2  C   UNL     1       1.668   1.054   0.087  0.00  0.00    +0.022 A 
ATOM      3  C   UNL     1       2.167   2.341   0.151  0.00  0.00    -0.050 A 
ATOM      4  C   UNL     1       3.517   2.550   0.364  0.00  0.00    +0.022 A 
ATOM      5  C   UNL     1       4.369   1.471   0.513  0.00  0.00    +0.043 A 
ATOM      6  C   UNL     1       3.870   0.182   0.449  0.00  0.00    +0.040 A 
ATOM      7  C   UNL     1       2.520  -0.027   0.236  0.00  0.00    +0.043 A 
ATOM      8 CL   UNL     1       1.893  -1.643   0.156  0.00  0.00    -0.083 Cl
ATOM      9 CL   UNL     1       6.064   1.733   0.780  0.00  0.00    -0.083 Cl
ENDBRANCH   1   3
BRANCH   1  10
ATOM     10  C   UNL     1       1.342   4.047  -1.420  0.00  0.00    +0.201 C 
ATOM     11  O   UNL     1       2.107   4.953  -1.673  0.00  0.00    -0.277 OA
ATOM     12  N   UNL     1       0.583   3.513  -2.397  0.00  0.00    -0.330 N 
ATOM     13  H   UNL     1      -0.029   2.788  -2.195  0.00  0.00    +0.145 HD
ATOM     14  H   UNL     1       0.649   3.853  -3.303  0.00  0.00    +0.145 HD
ENDBRANCH   1  10
BRANCH   1  15
ATOM     15  N   UNL     1       1.616   4.574   0.936  0.00  0.00    +0.391 N 
ATOM     16  H   UNL     1       2.593   4.799   0.819  0.00  0.00    -0.084 HD
ATOM     17  H   UNL     1       1.058   5.396   0.763  0.00  0.00    -0.084 HD
BRANCH  15  18
ATOM     18  C   UNL     1       1.384   4.104   2.309  0.00  0.00    -0.070 C 
ATOM     19  C   UNL     1      -0.129   3.935   2.561  0.00  0.00    -0.016 C 
ATOM     20  C   UNL     1      -0.323   4.393   4.027  0.00  0.00    -0.002 C 
ATOM     21  C   UNL     1       0.655   5.588   4.145  0.00  0.00    -0.002 C 
ATOM     22  C   UNL     1       1.882   5.155   3.317  0.00  0.00    -0.016 C 
ENDBRANCH  15  18
ENDBRANCH   1  15
TORSDOF 4
