REMARK  Name = ZINC12292116
REMARK  7 active torsions:
REMARK  status: ('A' for Active; 'I' for Inactive)
REMARK    1  A    between atoms: C_1  and  C_2
REMARK    2  A    between atoms: C_6  and  C_8
REMARK    3  A    between atoms: C_8  and  O_27
REMARK    4  A    between atoms: C_13  and  C_14
REMARK    5  A    between atoms: C_13  and  N_54
REMARK    6  A    between atoms: C_14  and  C_16
REMARK    7  A    between atoms: C_14  and  O_26
REMARK                            x       y       z     vdW  Elec       q    Type
REMARK                         _______ _______ _______ _____ _____    ______ ____
ROOT
ATOM      1  C   UNL     1      -8.349  -1.842  -1.955  0.00  0.00    +0.088 C 
ATOM      2  C   UNL     1      -7.322  -2.399  -2.946  0.00  0.00    +0.021 C 
ATOM      3  C   UNL     1      -6.041  -1.567  -2.866  0.00  0.00    -0.076 C 
ATOM      4  C   UNL     1      -6.455  -1.046  -0.536  0.00  0.00    -0.076 C 
ATOM      5  C   UNL     1      -7.749  -1.863  -0.546  0.00  0.00    +0.021 C 
ATOM      6  N   UNL     1      -5.501  -1.647  -1.492  0.00  0.00    +0.382 N 
ATOM      7  H   UNL     1      -5.361  -2.634  -1.246  0.00  0.00    -0.082 HD
ENDROOT
BRANCH   1  13
ATOM      8  C   UNL     1     -13.306  -2.292  -1.442  0.00  0.00    +0.044 C 
ATOM      9  C   UNL     1     -11.964  -2.908  -1.741  0.00  0.00    -0.050 A 
ATOM     10  C   UNL     1     -11.873  -4.254  -2.046  0.00  0.00    +0.003 A 
ATOM     11  C   UNL     1     -10.642  -4.819  -2.321  0.00  0.00    +0.001 A 
ATOM     12  C   UNL     1      -9.502  -4.037  -2.296  0.00  0.00    +0.006 A 
ATOM     13  C   UNL     1      -9.592  -2.693  -1.986  0.00  0.00    -0.016 A 
ATOM     14  C   UNL     1     -10.824  -2.128  -1.712  0.00  0.00    +0.009 A 
ENDBRANCH   1  13
BRANCH   1  15
ATOM     15  O   UNL     1      -8.680  -0.499  -2.313  0.00  0.00    -0.384 OA
ATOM     16  H   UNL     1      -9.326  -0.084  -1.727  0.00  0.00    +0.211 HD
ENDBRANCH   1  15
BRANCH   6  17
ATOM     17  C   UNL     1      -4.203  -0.946  -1.418  0.00  0.00    -0.042 C 
BRANCH  17  18
ATOM     18  C   UNL     1      -3.174  -1.725  -2.239  0.00  0.00    +0.128 C 
BRANCH  18  19
ATOM     19  C   UNL     1      -1.833  -1.044  -2.143  0.00  0.00    -0.017 A 
ATOM     20  C   UNL     1      -0.995  -1.317  -1.078  0.00  0.00    +0.010 A 
ATOM     21  C   UNL     1       0.233  -0.690  -0.984  0.00  0.00    +0.050 A 
ATOM     22  C   UNL     1       0.631   0.210  -1.962  0.00  0.00    +0.162 A 
ATOM     23  C   UNL     1      -0.211   0.483  -3.033  0.00  0.00    +0.162 A 
ATOM     24  C   UNL     1      -1.444  -0.146  -3.119  0.00  0.00    +0.055 A 
ATOM     25  O   UNL     1       0.159   1.362  -4.003  0.00  0.00    -0.485 OA
ATOM     26  C   UNL     1       1.236   2.252  -3.688  0.00  0.00    +0.270 C 
ATOM     27  C   UNL     1       2.361   1.434  -3.040  0.00  0.00    +0.270 C 
ATOM     28  O   UNL     1       1.843   0.820  -1.855  0.00  0.00    -0.485 OA
ENDBRANCH  18  19
BRANCH  18  29
ATOM     29  O   UNL     1      -3.069  -3.057  -1.731  0.00  0.00    -0.389 OA
ATOM     30  H   UNL     1      -2.790  -3.104  -0.806  0.00  0.00    +0.210 HD
ENDBRANCH  18  29
ENDBRANCH  17  18
ENDBRANCH   6  17
TORSDOF 6
