REMARK  Name = ZINC39638749
REMARK  12 active torsions:
REMARK  status: ('A' for Active; 'I' for Inactive)
REMARK    1  A    between atoms: C_1  and  C_2
REMARK    2  A    between atoms: C_2  and  O_3
REMARK    3  A    between atoms: O_3  and  C_4
REMARK    4  A    between atoms: C_9  and  C_10
REMARK    5  A    between atoms: C_10  and  N_11
REMARK    6  A    between atoms: C_12  and  C_14
REMARK    7  A    between atoms: C_25  and  C_27
REMARK    8  A    between atoms: C_27  and  C_29
REMARK    9  A    between atoms: C_27  and  O_32
REMARK   10  A    between atoms: C_29  and  C_30
REMARK   11  A    between atoms: C_29  and  C_31
REMARK   12  A    between atoms: O_32  and  C_33
REMARK                            x       y       z     vdW  Elec       q    Type
REMARK                         _______ _______ _______ _____ _____    ______ ____
ROOT
ATOM      1  C   UNL     1       5.956   0.262  -3.459  0.00  0.00    +0.100 C 
ATOM      2  C   UNL     1       5.542   1.003  -2.168  0.00  0.00    +0.121 C 
ATOM      3  N   UNL     1       6.059   2.380  -2.344  0.00  0.00    -0.297 N 
ATOM      4  C   UNL     1       5.814   2.686  -3.773  0.00  0.00    +0.115 C 
ATOM      5  C   UNL     1       6.133   1.371  -4.510  0.00  0.00    -0.004 C 
ATOM      6  C   UNL     1       7.571   1.388  -5.023  0.00  0.00    -0.010 C 
ATOM      7  C   UNL     1       7.707   2.460  -6.107  0.00  0.00    -0.082 C 
ATOM      8  N   UNL     1       6.779   2.169  -7.206  0.00  0.00    +0.379 N 
ATOM      9  C   UNL     1       5.394   2.245  -6.725  0.00  0.00    -0.082 C 
ATOM     10  C   UNL     1       5.159   1.164  -5.666  0.00  0.00    -0.010 C 
ATOM     11  C   UNL     1       6.625   3.175  -1.414  0.00  0.00    +0.257 C 
ATOM     12  O   UNL     1       6.911   4.321  -1.689  0.00  0.00    -0.272 OA
ATOM     13  H   UNL     1       6.913   2.841  -7.946  0.00  0.00    -0.086 HD
ATOM     14  H   UNL     1       6.959   1.242  -7.560  0.00  0.00    -0.086 HD
ENDROOT
BRANCH   1  16
ATOM     15  N   UNL     1       5.172  -1.734  -4.691  0.00  0.00    -0.311 N 
ATOM     16  C   UNL     1       4.874  -0.696  -3.884  0.00  0.00    +0.218 C 
ATOM     17  O   UNL     1       3.735  -0.534  -3.501  0.00  0.00    -0.275 OA
ATOM     18  H   UNL     1       6.083  -1.864  -4.998  0.00  0.00    +0.149 HD
BRANCH  15  19
ATOM     19  C   UNL     1       4.120  -2.666  -5.104  0.00  0.00    +0.143 C 
BRANCH  19  25
ATOM     20  C   UNL     1       5.395  -4.799  -5.442  0.00  0.00    +0.125 A 
ATOM     21  C   UNL     1       5.933  -5.777  -6.266  0.00  0.00    +0.046 A 
ATOM     22  C   UNL     1       5.792  -5.678  -7.636  0.00  0.00    +0.004 A 
ATOM     23  C   UNL     1       5.115  -4.606  -8.187  0.00  0.00    +0.001 A 
ATOM     24  C   UNL     1       4.578  -3.630  -7.369  0.00  0.00    +0.009 A 
ATOM     25  C   UNL     1       4.712  -3.727  -5.997  0.00  0.00    +0.011 A 
BRANCH  20  26
ATOM     26  O   UNL     1       5.532  -4.894  -4.093  0.00  0.00    -0.492 OA
BRANCH  26  28
ATOM     27  C   UNL     1       6.298  -5.961  -2.064  0.00  0.00    +0.048 C 
ATOM     28  C   UNL     1       6.247  -6.025  -3.592  0.00  0.00    +0.225 C 
ENDBRANCH  26  28
ENDBRANCH  20  26
ENDBRANCH  19  25
ENDBRANCH  15  19
ENDBRANCH   1  16
BRANCH  11  29
ATOM     29  C   UNL     1       6.902   2.640  -0.033  0.00  0.00    +0.261 C 
BRANCH  29  30
ATOM     30  C   UNL     1       8.286   1.989  -0.006  0.00  0.00    +0.033 C 
ATOM     31  C   UNL     1       8.624   1.567   1.425  0.00  0.00    +0.011 C 
ATOM     32  C   UNL     1       8.287   0.757  -0.914  0.00  0.00    +0.011 C 
ENDBRANCH  29  30
BRANCH  29  33
ATOM     33  O   UNL     1       6.862   3.713   0.911  0.00  0.00    -0.479 OA
BRANCH  33  34
ATOM     34  C   UNL     1       6.362   3.433   2.143  0.00  0.00    +0.122 A 
ATOM     35  C   UNL     1       6.308   4.424   3.112  0.00  0.00    +0.045 A 
ATOM     36  C   UNL     1       5.798   4.137   4.364  0.00  0.00    +0.004 A 
ATOM     37  C   UNL     1       5.344   2.863   4.651  0.00  0.00    +0.000 A 
ATOM     38  C   UNL     1       5.398   1.873   3.687  0.00  0.00    +0.004 A 
ATOM     39  C   UNL     1       5.901   2.157   2.432  0.00  0.00    +0.045 A 
ENDBRANCH  33  34
ENDBRANCH  29  33
ENDBRANCH  11  29
TORSDOF 9
