REMARK  Name = ZINC39596889
REMARK  8 active torsions:
REMARK  status: ('A' for Active; 'I' for Inactive)
REMARK    1  A    between atoms: C_1  and  C_2
REMARK    2  A    between atoms: C_2  and  C_3
REMARK    3  A    between atoms: C_3  and  C_5
REMARK    4  A    between atoms: C_3  and  C_11
REMARK    5  A    between atoms: C_15  and  C_24
REMARK    6  A    between atoms: N_26  and  C_27
REMARK    7  A    between atoms: C_27  and  C_29
REMARK    8  A    between atoms: C_27  and  C_30
REMARK                            x       y       z     vdW  Elec       q    Type
REMARK                         _______ _______ _______ _____ _____    ______ ____
ROOT
ATOM      1  C   UNL     1      -1.245  -1.747   0.171  0.00  0.00    +0.223 C 
ATOM      2  O   UNL     1      -1.735  -2.340  -0.767  0.00  0.00    -0.275 OA
ATOM      3  N   UNL     1      -0.740  -2.436   1.214  0.00  0.00    -0.300 N 
ATOM      4  C   UNL     1      -0.113  -1.893   2.442  0.00  0.00    +0.121 C 
ATOM      5  C   UNL     1      -0.626  -2.806   3.578  0.00  0.00    +0.100 C 
ATOM      6  C   UNL     1      -1.000  -4.126   2.883  0.00  0.00    -0.004 C 
ATOM      7  C   UNL     1      -0.693  -3.906   1.395  0.00  0.00    +0.115 C 
ATOM      8  C   UNL     1      -2.485  -4.420   3.072  0.00  0.00    -0.010 C 
ATOM      9  C   UNL     1      -2.820  -5.765   2.421  0.00  0.00    -0.082 C 
ATOM     10  N   UNL     1      -2.008  -6.824   3.035  0.00  0.00    +0.379 N 
ATOM     11  C   UNL     1      -0.585  -6.581   2.769  0.00  0.00    -0.082 C 
ATOM     12  C   UNL     1      -0.155  -5.271   3.434  0.00  0.00    -0.010 C 
ATOM     13  H   UNL     1      -2.166  -6.832   4.031  0.00  0.00    -0.086 HD
ATOM     14  H   UNL     1      -2.274  -7.717   2.648  0.00  0.00    -0.086 HD
ENDROOT
BRANCH   5  15
ATOM     15  C   UNL     1      -1.837  -2.195   4.235  0.00  0.00    +0.219 C 
ATOM     16  O   UNL     1      -2.589  -1.495   3.590  0.00  0.00    -0.275 OA
ATOM     17  N   UNL     1      -2.085  -2.426   5.540  0.00  0.00    -0.308 N 
ATOM     18  H   UNL     1      -1.484  -2.986   6.056  0.00  0.00    +0.149 HD
BRANCH  17  19
ATOM     19  C   UNL     1      -3.262  -1.833   6.178  0.00  0.00    +0.100 C 
ATOM     20  C   UNL     1      -4.479  -2.729   5.939  0.00  0.00    +0.033 C 
BRANCH  19  21
ATOM     21  C   UNL     1      -3.018  -1.702   7.660  0.00  0.00    -0.027 A 
ATOM     22  C   UNL     1      -2.361  -2.708   8.343  0.00  0.00    +0.005 A 
ATOM     23  C   UNL     1      -2.136  -2.589   9.702  0.00  0.00    +0.000 A 
ATOM     24  C   UNL     1      -2.569  -1.463  10.377  0.00  0.00    +0.000 A 
ATOM     25  C   UNL     1      -3.225  -0.456   9.694  0.00  0.00    +0.000 A 
ATOM     26  C   UNL     1      -3.445  -0.574   8.334  0.00  0.00    +0.005 A 
ENDBRANCH  19  21
ENDBRANCH  17  19
ENDBRANCH   5  15
BRANCH   1  27
ATOM     27  C   UNL     1      -1.201  -0.241   0.170  0.00  0.00    +0.105 C 
BRANCH  27  28
ATOM     28  C   UNL     1      -1.824   0.279  -1.100  0.00  0.00    -0.036 A 
ATOM     29  C   UNL     1      -1.295  -0.076  -2.326  0.00  0.00    +0.004 A 
ATOM     30  C   UNL     1      -1.867   0.401  -3.490  0.00  0.00    +0.000 A 
ATOM     31  C   UNL     1      -2.969   1.233  -3.429  0.00  0.00    +0.000 A 
ATOM     32  C   UNL     1      -3.499   1.587  -2.202  0.00  0.00    +0.000 A 
ATOM     33  C   UNL     1      -2.930   1.107  -1.038  0.00  0.00    +0.004 A 
ENDBRANCH  27  28
BRANCH  27  35
ATOM     34  C   UNL     1       0.293   1.751   0.376  0.00  0.00    +0.005 C 
ATOM     35  C   UNL     1       0.254   0.227   0.252  0.00  0.00    +0.014 C 
ENDBRANCH  27  35
ENDBRANCH   1  27
TORSDOF 6
