REMARK  Name = ZINC41584992
REMARK  10 active torsions:
REMARK  status: ('A' for Active; 'I' for Inactive)
REMARK    1  A    between atoms: C_1  and  C_2
REMARK    2  A    between atoms: C_2  and  O_3
REMARK    3  A    between atoms: O_3  and  C_4
REMARK    4  A    between atoms: C_9  and  C_10
REMARK    5  A    between atoms: C_15  and  C_39
REMARK    6  A    between atoms: C_17  and  O_38
REMARK    7  A    between atoms: C_18  and  C_21
REMARK    8  A    between atoms: C_21  and  N_22
REMARK    9  A    between atoms: N_25  and  C_28
REMARK   10  A    between atoms: C_28  and  C_29
REMARK                            x       y       z     vdW  Elec       q    Type
REMARK                         _______ _______ _______ _____ _____    ______ ____
ROOT
ATOM      1  C   UNL     1      -3.969  -1.535   0.031  0.00  0.00    +0.061 C 
ATOM      2  C   UNL     1      -5.211  -2.075  -0.062  0.00  0.00    +0.176 C 
ATOM      3  C   UNL     1      -6.475  -1.333  -0.170  0.00  0.00    +0.232 C 
ATOM      4  O   UNL     1      -6.631  -0.124  -0.194  0.00  0.00    -0.283 OA
ATOM      5  C   UNL     1      -7.513  -2.377  -0.242  0.00  0.00    +0.071 A 
ATOM      6  C   UNL     1      -8.903  -2.336  -0.353  0.00  0.00    -0.033 A 
ATOM      7  C   UNL     1      -9.618  -3.499  -0.398  0.00  0.00    +0.050 A 
ATOM      8  C   UNL     1      -8.962  -4.726  -0.334  0.00  0.00    +0.122 A 
ATOM      9  C   UNL     1      -7.582  -4.782  -0.224  0.00  0.00    +0.020 A 
ATOM     10  C   UNL     1      -6.840  -3.608  -0.177  0.00  0.00    +0.145 A 
ATOM     11  O   UNL     1      -5.510  -3.396  -0.080  0.00  0.00    -0.451 OA
ATOM     12  C   UNL     1      -9.615  -1.010  -0.421  0.00  0.00    +0.045 C 
ENDROOT
BRANCH   1  18
ATOM     13  C   UNL     1      -1.518  -1.867  -0.261  0.00  0.00    +0.128 A 
ATOM     14  C   UNL     1      -0.409  -2.698  -0.271  0.00  0.00    +0.046 A 
ATOM     15  C   UNL     1      -0.553  -4.049  -0.020  0.00  0.00    +0.004 A 
ATOM     16  C   UNL     1      -1.803  -4.585   0.244  0.00  0.00    +0.001 A 
ATOM     17  C   UNL     1      -2.918  -3.776   0.259  0.00  0.00    +0.011 A 
ATOM     18  C   UNL     1      -2.787  -2.404   0.012  0.00  0.00    +0.020 A 
BRANCH  13  19
ATOM     19  O   UNL     1      -1.378  -0.540  -0.508  0.00  0.00    -0.492 OA
BRANCH  19  21
ATOM     20  C   UNL     1      -0.098   1.442  -1.030  0.00  0.00    +0.048 C 
ATOM     21  C   UNL     1      -0.057  -0.066  -0.778  0.00  0.00    +0.226 C 
ENDBRANCH  19  21
ENDBRANCH  13  19
ENDBRANCH   1  18
BRANCH   8  22
ATOM     22  O   UNL     1      -9.680  -5.877  -0.379  0.00  0.00    -0.506 OA
ATOM     23  H   UNL     1      -9.819  -6.219  -1.273  0.00  0.00    +0.292 HD
ENDBRANCH   8  22
BRANCH   9  24
ATOM     24  C   UNL     1      -6.885  -6.117  -0.154  0.00  0.00    -0.035 C 
BRANCH  24  25
ATOM     25  N   UNL     1      -6.550  -6.565  -1.512  0.00  0.00    +0.384 N 
ATOM     26  C   UNL     1      -5.570  -5.644  -2.103  0.00  0.00    -0.063 C 
ATOM     27  C   UNL     1      -5.234  -6.100  -3.525  0.00  0.00    +0.066 C 
ATOM     28  N   UNL     1      -4.687  -7.463  -3.483  0.00  0.00    -0.302 NA
ATOM     29  C   UNL     1      -5.647  -8.392  -2.870  0.00  0.00    +0.066 C 
ATOM     30  C   UNL     1      -5.979  -7.918  -1.454  0.00  0.00    -0.063 C 
ATOM     31  H   UNL     1      -7.385  -6.576  -2.079  0.00  0.00    -0.081 HD
BRANCH  28  32
ATOM     32  C   UNL     1      -4.298  -7.917  -4.825  0.00  0.00    +0.119 C 
BRANCH  32  33
ATOM     33  C   UNL     1      -3.523  -9.204  -4.715  0.00  0.00    -0.030 A 
ATOM     34  C   UNL     1      -2.148  -9.172  -4.574  0.00  0.00    +0.009 A 
ATOM     35  C   UNL     1      -1.432 -10.350  -4.473  0.00  0.00    +0.050 A 
ATOM     36  C   UNL     1      -2.092 -11.568  -4.513  0.00  0.00    +0.166 A 
ATOM     37  C   UNL     1      -3.477 -11.600  -4.656  0.00  0.00    +0.167 A 
ATOM     38  C   UNL     1      -4.189 -10.415  -4.751  0.00  0.00    +0.054 A 
ATOM     39  O   UNL     1      -3.884 -12.903  -4.668  0.00  0.00    -0.453 OA
ATOM     40  C   UNL     1      -2.699 -13.673  -4.943  0.00  0.00    +0.466 C 
ATOM     41  O   UNL     1      -1.631 -12.850  -4.436  0.00  0.00    -0.453 OA
ENDBRANCH  32  33
ENDBRANCH  28  32
ENDBRANCH  24  25
ENDBRANCH   9  24
TORSDOF 8
