REMARK  Name = ZINC38667412
REMARK  8 active torsions:
REMARK  status: ('A' for Active; 'I' for Inactive)
REMARK    1  A    between atoms: C_1  and  C_2
REMARK    2  A    between atoms: C_6  and  N_12
REMARK    3  A    between atoms: C_9  and  C_11
REMARK    4  A    between atoms: C_13  and  C_15
REMARK    5  A    between atoms: C_15  and  S_16
REMARK    6  A    between atoms: S_16  and  C_17
REMARK    7  A    between atoms: N_22  and  C_23
REMARK    8  A    between atoms: C_26  and  O_29
REMARK                            x       y       z     vdW  Elec       q    Type
REMARK                         _______ _______ _______ _____ _____    ______ ____
ROOT
ATOM      1  N   UNL     1       3.120  -0.129  -3.289  0.00  0.00    -0.285 N 
ATOM      2  C   UNL     1       4.135  -0.407  -4.131  0.00  0.00    +0.225 C 
ATOM      3  O   UNL     1       4.483  -1.556  -4.302  0.00  0.00    -0.275 OA
ATOM      4  H   UNL     1       2.841   0.790  -3.152  0.00  0.00    +0.151 HD
ENDROOT
BRANCH   1   9
ATOM      5  C   UNL     1      -0.019   1.526   0.010  0.00  0.00    +0.030 C 
ATOM      6  C   UNL     1       0.002  -0.004   0.002  0.00  0.00    +0.099 C 
ATOM      7  C   UNL     1       0.712  -0.492  -1.232  0.00  0.00    -0.011 C 
ATOM      8  C   UNL     1       2.029  -0.763  -1.215  0.00  0.00    +0.065 C 
ATOM      9  C   UNL     1       2.437  -1.214  -2.581  0.00  0.00    +0.243 C 
ATOM     10  O   UNL     1       1.211  -1.562  -3.261  0.00  0.00    -0.347 OA
ATOM     11  C   UNL     1       0.198  -0.762  -2.613  0.00  0.00    +0.146 C 
ATOM     12  C   UNL     1       0.002   0.554  -3.369  0.00  0.00    +0.043 C 
ATOM     13  C   UNL     1       2.797  -0.603   0.029  0.00  0.00    +0.258 C 
ATOM     14  O   UNL     1       4.009  -0.695   0.056  0.00  0.00    -0.269 OA
ATOM     15  N   UNL     1       2.069  -0.345   1.144  0.00  0.00    -0.247 N 
ATOM     16  N   UNL     1       0.718  -0.493   1.188  0.00  0.00    -0.233 NA
ATOM     17  H   UNL     1       2.530  -0.044   1.943  0.00  0.00    +0.169 HD
ATOM     18  H   UNL     1       0.464  -1.448   1.395  0.00  0.00    +0.145 HD
ENDBRANCH   1   9
BRANCH   2  19
ATOM     19  C   UNL     1       4.838   0.710  -4.859  0.00  0.00    +0.168 C 
BRANCH  19  20
ATOM     20  S   UNL     1       6.147   0.018  -5.907  0.00  0.00    -0.107 S 
BRANCH  20  21
ATOM     21  C   UNL     1       6.885   1.471  -6.703  0.00  0.00    +0.260 C 
ATOM     22  N   UNL     1       7.348   2.442  -5.693  0.00  0.00    -0.218 N 
ATOM     23  N   UNL     1       6.609   3.610  -5.917  0.00  0.00    -0.063 NA
ATOM     24  N   UNL     1       5.820   3.499  -6.851  0.00  0.00    -0.056 NA
ATOM     25  N   UNL     1       5.866   2.231  -7.452  0.00  0.00    -0.174 N 
ATOM     26  H   UNL     1       8.024   2.299  -5.013  0.00  0.00    +0.173 HD
BRANCH  25  27
ATOM     27  C   UNL     1       5.105   1.779  -8.534  0.00  0.00    +0.056 A 
ATOM     28  C   UNL     1       5.269   0.483  -9.007  0.00  0.00    +0.028 A 
ATOM     29  C   UNL     1       4.517   0.037 -10.076  0.00  0.00    +0.047 A 
ATOM     30  C   UNL     1       3.598   0.884 -10.678  0.00  0.00    +0.117 A 
ATOM     31  C   UNL     1       3.433   2.178 -10.207  0.00  0.00    +0.047 A 
ATOM     32  C   UNL     1       4.179   2.624  -9.134  0.00  0.00    +0.028 A 
BRANCH  30  33
ATOM     33  O   UNL     1       2.858   0.445 -11.731  0.00  0.00    -0.507 OA
ATOM     34  H   UNL     1       2.019   0.035 -11.479  0.00  0.00    +0.292 HD
ENDBRANCH  30  33
ENDBRANCH  25  27
ENDBRANCH  20  21
ENDBRANCH  19  20
ENDBRANCH   2  19
TORSDOF 6
