REMARK  Name = ZINC57379535
REMARK  7 active torsions:
REMARK  status: ('A' for Active; 'I' for Inactive)
REMARK    1  A    between atoms: C_4  and  C_7
REMARK    2  A    between atoms: N_9  and  N_10
REMARK    3  A    between atoms: N_13  and  C_14
REMARK    4  A    between atoms: C_14  and  C_15
REMARK    5  A    between atoms: C_15  and  C_16
REMARK    6  A    between atoms: C_16  and  C_17
REMARK    7  A    between atoms: C_17  and  N_18
REMARK                            x       y       z     vdW  Elec       q    Type
REMARK                         _______ _______ _______ _____ _____    ______ ____
ROOT
ATOM      1  N   UNL     1       4.942  -2.713  -0.060  0.00  0.00    -0.218 N 
ATOM      2  C   UNL     1       4.963  -4.061  -0.068  0.00  0.00    +0.316 C 
ATOM      3  O   UNL     1       6.026  -4.651  -0.082  0.00  0.00    -0.251 OA
ATOM      4  N   UNL     1       3.807  -4.753  -0.060  0.00  0.00    -0.298 N 
ATOM      5  H   UNL     1       5.774  -2.215  -0.066  0.00  0.00    +0.174 HD
ATOM      6  H   UNL     1       2.959  -4.282  -0.049  0.00  0.00    +0.150 HD
ENDROOT
BRANCH   1   9
ATOM      7  C   UNL     1       3.696  -0.685  -0.037  0.00  0.00    +0.260 C 
ATOM      8  O   UNL     1       4.738  -0.060  -0.044  0.00  0.00    -0.269 OA
ATOM      9  N   UNL     1       3.717  -2.032  -0.045  0.00  0.00    -0.229 N 
ATOM     10  H   UNL     1       2.885  -2.531  -0.039  0.00  0.00    +0.173 HD
BRANCH   7  14
ATOM     11  C   UNL     1      -0.017   1.379   0.010  0.00  0.00    +0.000 A 
ATOM     12  C   UNL     1       1.168   2.094   0.002  0.00  0.00    +0.001 A 
ATOM     13  C   UNL     1       2.377   1.429  -0.013  0.00  0.00    +0.013 A 
ATOM     14  C   UNL     1       2.403   0.034  -0.021  0.00  0.00    +0.038 A 
ATOM     15  C   UNL     1       1.204  -0.681  -0.013  0.00  0.00    +0.013 A 
ATOM     16  C   UNL     1       0.002  -0.004   0.002  0.00  0.00    +0.001 A 
ENDBRANCH   7  14
ENDBRANCH   1   9
BRANCH   4  17
ATOM     17  C   UNL     1       3.831  -6.218  -0.068  0.00  0.00    +0.106 C 
BRANCH  17  18
ATOM     18  C   UNL     1       2.397  -6.751  -0.057  0.00  0.00    +0.020 C 
BRANCH  18  19
ATOM     19  C   UNL     1       2.421  -8.281  -0.065  0.00  0.00    +0.023 C 
BRANCH  19  20
ATOM     20  C   UNL     1       0.987  -8.814  -0.054  0.00  0.00    +0.123 C 
BRANCH  20  21
ATOM     21  N   UNL     1       1.011 -10.279  -0.062  0.00  0.00    -0.338 N 
ATOM     22  C   UNL     1       1.019 -11.085  -1.168  0.00  0.00    +0.104 A 
ATOM     23  C   UNL     1       1.042 -12.356  -0.724  0.00  0.00    +0.101 A 
ATOM     24  N   UNL     1       1.048 -12.327   0.617  0.00  0.00    -0.352 N 
ATOM     25  C   UNL     1       1.035 -11.086   1.021  0.00  0.00    +0.173 A 
ATOM     26  H   UNL     1       1.064 -13.105   1.196  0.00  0.00    +0.166 HD
ENDBRANCH  20  21
ENDBRANCH  19  20
ENDBRANCH  18  19
ENDBRANCH  17  18
ENDBRANCH   4  17
TORSDOF 7
