REMARK  Name = ZINC23478726
REMARK  4 active torsions:
REMARK  status: ('A' for Active; 'I' for Inactive)
REMARK    1  A    between atoms: C_7  and  C_15
REMARK    2  A    between atoms: C_15  and  N_16
REMARK    3  A    between atoms: C_20  and  C_22
REMARK    4  A    between atoms: C_25  and  C_27
REMARK                            x       y       z     vdW  Elec       q    Type
REMARK                         _______ _______ _______ _____ _____    ______ ____
ROOT
ATOM      1  N   UNL     1       6.464   2.260  -2.395  0.00  0.00    +0.387 N 
ATOM      2  C   UNL     1       5.827   3.591  -2.300  0.00  0.00    -0.078 C 
ATOM      3  C   UNL     1       5.357   3.969  -3.717  0.00  0.00    -0.020 C 
ATOM      4  C   UNL     1       5.739   2.762  -4.604  0.00  0.00    -0.012 C 
ATOM      5  C   UNL     1       5.858   1.604  -3.582  0.00  0.00    -0.030 C 
ATOM      6  H   UNL     1       7.558   2.342  -2.487  0.00  0.00    -0.080 HD
ENDROOT
BRANCH   5   7
ATOM      7  C   UNL     1       6.761   0.519  -4.109  0.00  0.00    -0.023 A 
ATOM      8  C   UNL     1       6.419  -0.707  -4.585  0.00  0.00    +0.010 A 
ATOM      9  C   UNL     1       7.406  -1.555  -5.023  0.00  0.00    +0.021 A 
ATOM     10  C   UNL     1       8.712  -1.095  -4.950  0.00  0.00    +0.074 A 
ATOM     11  S   UNL     1       8.488   0.536  -4.263  0.00  0.00    -0.090 S 
BRANCH  10  12
ATOM     12  C   UNL     1       9.952  -1.772  -5.339  0.00  0.00    +0.248 C 
ATOM     13  O   UNL     1       9.913  -2.897  -5.801  0.00  0.00    -0.270 OA
ATOM     14  N   UNL     1      11.137  -1.148  -5.186  0.00  0.00    -0.325 N 
ATOM     15  H   UNL     1      12.068  -1.655  -5.479  0.00  0.00    +0.145 HD
ATOM     16  H   UNL     1      11.173  -0.130  -4.769  0.00  0.00    +0.145 HD
ENDBRANCH  10  12
ENDBRANCH   5   7
BRANCH   1  17
ATOM     17  C   UNL     1       6.224   1.472  -1.178  0.00  0.00    -0.041 C 
BRANCH  17  24
ATOM     18  C   UNL     1       3.625   4.230   0.888  0.00  0.00    +0.001 A 
ATOM     19  C   UNL     1       2.267   3.972   1.017  0.00  0.00    +0.006 A 
ATOM     20  C   UNL     1       1.714   2.828   0.485  0.00  0.00    -0.023 A 
ATOM     21  C   UNL     1       2.515   1.917  -0.197  0.00  0.00    +0.055 A 
ATOM     22  C   UNL     1       3.893   2.182  -0.320  0.00  0.00    +0.000 A 
ATOM     23  C   UNL     1       4.434   3.350   0.229  0.00  0.00    +0.010 A 
ATOM     24  C   UNL     1       4.745   1.223  -1.025  0.00  0.00    -0.050 A 
ATOM     25  C   UNL     1       4.174   0.106  -1.538  0.00  0.00    +0.072 A 
ATOM     26  C   UNL     1       2.789  -0.112  -1.389  0.00  0.00    +0.252 A 
ATOM     27  O   UNL     1       2.297  -1.126  -1.854  0.00  0.00    -0.268 OA
ATOM     28  N   UNL     1       1.992   0.766  -0.748  0.00  0.00    -0.308 N 
ATOM     29  C   UNL     1       0.559   0.472  -0.651  0.00  0.00    +0.126 C 
ATOM     30  C   UNL     1      -0.004   1.059   0.645  0.00  0.00    +0.026 C 
ATOM     31  C   UNL     1       0.236   2.572   0.645  0.00  0.00    +0.039 C 
ENDBRANCH  17  24
ENDBRANCH   1  17
TORSDOF 4
