REMARK  Name = ZINC19910170
REMARK  7 active torsions:
REMARK  status: ('A' for Active; 'I' for Inactive)
REMARK    1  A    between atoms: C_1  and  C_2
REMARK    2  A    between atoms: C_7  and  C_22
REMARK    3  A    between atoms: C_9  and  N_10
REMARK    4  A    between atoms: N_10  and  C_11
REMARK    5  A    between atoms: C_11  and  C_12
REMARK    6  A    between atoms: C_15  and  S_18
REMARK    7  A    between atoms: S_18  and  N_21
REMARK                            x       y       z     vdW  Elec       q    Type
REMARK                         _______ _______ _______ _____ _____    ______ ____
ROOT
ATOM      1  C   UNL     1       2.089  -0.065  -3.686  0.00  0.00    -0.046 C 
ENDROOT
BRANCH   1   2
ATOM      2  C   UNL     1       2.755  -0.668  -4.896  0.00  0.00    -0.064 A 
ATOM      3  C   UNL     1       3.730   0.041  -5.573  0.00  0.00    +0.003 A 
ATOM      4  C   UNL     1       4.345  -0.513  -6.681  0.00  0.00    +0.029 A 
ATOM      5  C   UNL     1       3.977  -1.772  -7.117  0.00  0.00    +0.105 A 
ATOM      6  C   UNL     1       2.999  -2.479  -6.443  0.00  0.00    +0.029 A 
ATOM      7  C   UNL     1       2.388  -1.927  -5.333  0.00  0.00    +0.003 A 
BRANCH   5   8
ATOM      8  S   UNL     1       4.755  -2.476  -8.533  0.00  0.00    +0.056 S 
ATOM      9  O   UNL     1       6.020  -1.841  -8.659  0.00  0.00    -0.153 OA
ATOM     10  O   UNL     1       4.620  -3.885  -8.412  0.00  0.00    -0.153 OA
BRANCH   8  11
ATOM     11  N   UNL     1       3.866  -2.026  -9.855  0.00  0.00    -0.204 NA
ATOM     12  H   UNL     1       4.321  -2.447 -10.764  0.00  0.00    +0.144 HD
ATOM     13  H   UNL     1       3.848  -0.928  -9.929  0.00  0.00    +0.144 HD
ENDBRANCH   8  11
ENDBRANCH   5   8
ENDBRANCH   1   2
BRANCH   1  14
ATOM     14  N   UNL     1       2.840  -0.435  -2.479  0.00  0.00    +0.384 N 
ATOM     15  H   UNL     1       3.892  -0.144  -2.616  0.00  0.00    -0.085 HD
ATOM     16  H   UNL     1       2.776  -1.524  -2.343  0.00  0.00    -0.085 HD
BRANCH  14  23
ATOM     17  C   UNL     1       3.996   2.054  -1.544  0.00  0.00    +0.006 C 
ATOM     18  C   UNL     1       2.501   1.750  -1.427  0.00  0.00    -0.028 C 
ATOM     19  C   UNL     1       1.934   2.453  -0.192  0.00  0.00    +0.002 C 
ATOM     20  C   UNL     1       0.439   2.150  -0.074  0.00  0.00    +0.000 C 
ATOM     21  C   UNL     1       0.234   0.640   0.059  0.00  0.00    +0.002 C 
ATOM     22  C   UNL     1       0.801  -0.063  -1.176  0.00  0.00    -0.028 C 
ATOM     23  C   UNL     1       2.296   0.240  -1.293  0.00  0.00    -0.066 C 
ATOM     24  C   UNL     1       0.596  -1.573  -1.042  0.00  0.00    +0.006 C 
ENDBRANCH  14  23
ENDBRANCH   1  14
TORSDOF 5
