REMARK  Name = ZINC39305635
REMARK  8 active torsions:
REMARK  status: ('A' for Active; 'I' for Inactive)
REMARK    1  A    between atoms: C_1  and  C_2
REMARK    2  A    between atoms: C_4  and  C_9
REMARK    3  A    between atoms: N_6  and  C_8
REMARK    4  A    between atoms: C_9  and  C_11
REMARK    5  A    between atoms: C_9  and  N_12
REMARK    6  A    between atoms: N_12  and  C_13
REMARK    7  A    between atoms: C_13  and  C_14
REMARK    8  A    between atoms: C_16  and  C_20
REMARK                            x       y       z     vdW  Elec       q    Type
REMARK                         _______ _______ _______ _____ _____    ______ ____
ROOT
ATOM      1  C   UNL     1      -0.361   1.379  -4.328  0.00  0.00    -0.024 C 
ENDROOT
BRANCH   1   2
ATOM      2  C   UNL     1      -0.387   2.858  -4.615  0.00  0.00    +0.047 A 
ATOM      3  C   UNL     1       0.627   3.583  -5.243  0.00  0.00    +0.050 A 
ATOM      4  C   UNL     1       0.225   4.886  -5.317  0.00  0.00    +0.066 A 
ATOM      5  N   UNL     1      -1.011   4.963  -4.747  0.00  0.00    -0.277 N 
ATOM      6  N   UNL     1      -1.365   3.676  -4.323  0.00  0.00    -0.180 NA
ATOM      7  H   UNL     1      -1.549   5.764  -4.654  0.00  0.00    +0.189 HD
BRANCH   4   8
ATOM      8  C   UNL     1       0.990   6.007  -5.907  0.00  0.00    -0.000 A 
ATOM      9  C   UNL     1       2.248   5.780  -6.464  0.00  0.00    +0.013 A 
ATOM     10  C   UNL     1       2.957   6.828  -7.013  0.00  0.00    +0.039 A 
ATOM     11  C   UNL     1       2.420   8.106  -7.012  0.00  0.00    +0.123 A 
ATOM     12  C   UNL     1       1.171   8.337  -6.460  0.00  0.00    +0.039 A 
ATOM     13  C   UNL     1       0.452   7.295  -5.913  0.00  0.00    +0.013 A 
ATOM     14  F   UNL     1       3.118   9.129  -7.551  0.00  0.00    -0.205 F 
ENDBRANCH   4   8
ENDBRANCH   1   2
BRANCH   1  15
ATOM     15  N   UNL     1       0.119   1.154  -2.958  0.00  0.00    +0.387 N 
ATOM     16  H   UNL     1      -0.499   1.613  -2.305  0.00  0.00    -0.085 HD
ATOM     17  H   UNL     1       1.050   1.531  -2.862  0.00  0.00    -0.085 HD
BRANCH  15  18
ATOM     18  C   UNL     1       0.144  -0.288  -2.678  0.00  0.00    -0.045 C 
ATOM     19  C   UNL     1      -1.288  -0.827  -2.655  0.00  0.00    -0.009 C 
BRANCH  18  22
ATOM     20  C   UNL     1       0.486   1.595  -0.055  0.00  0.00    +0.030 C 
ATOM     21  C   UNL     1       0.374   0.070  -0.013  0.00  0.00    +0.095 C 
ATOM     22  C   UNL     1       0.793  -0.528  -1.339  0.00  0.00    -0.051 C 
ATOM     23  C   UNL     1       1.833  -1.300  -1.098  0.00  0.00    +0.086 C 
ATOM     24  N   UNL     1       2.172  -1.298   0.241  0.00  0.00    -0.277 N 
ATOM     25  N   UNL     1       1.332  -0.491   0.961  0.00  0.00    -0.234 NA
ATOM     26  C   UNL     1       3.283  -2.059   0.816  0.00  0.00    +0.149 C 
ATOM     27  H   UNL     1       0.854  -1.014   1.679  0.00  0.00    +0.145 HD
ENDBRANCH  18  22
ENDBRANCH  15  18
ENDBRANCH   1  15
TORSDOF 5
