REMARK  Name = ZINC14158027
REMARK  11 active torsions:
REMARK  status: ('A' for Active; 'I' for Inactive)
REMARK    1  A    between atoms: C_1  and  C_2
REMARK    2  A    between atoms: C_4  and  C_31
REMARK    3  A    between atoms: N_10  and  C_11
REMARK    4  A    between atoms: C_11  and  N_13
REMARK    5  A    between atoms: N_13  and  C_14
REMARK    6  A    between atoms: C_14  and  C_15
REMARK    7  A    between atoms: N_20  and  C_21
REMARK    8  A    between atoms: C_23  and  C_29
REMARK    9  A    between atoms: C_23  and  C_30
REMARK   10  A    between atoms: C_25  and  C_27
REMARK   11  A    between atoms: C_25  and  C_28
REMARK                            x       y       z     vdW  Elec       q    Type
REMARK                         _______ _______ _______ _____ _____    ______ ____
ROOT
ATOM      1  C   UNL     1      -0.274  -6.818   4.710  0.00  0.00    +0.066 C 
ATOM      2  C   UNL     1      -0.286  -6.070   3.402  0.00  0.00    +0.044 A 
ATOM      3  C   UNL     1      -0.290  -6.760   2.199  0.00  0.00    +0.046 A 
ATOM      4  C   UNL     1      -0.302  -6.033   1.019  0.00  0.00    +0.044 A 
ATOM      5  N   UNL     1      -0.309  -4.712   1.075  0.00  0.00    -0.217 NA
ATOM      6  C   UNL     1      -0.305  -4.083   2.241  0.00  0.00    +0.231 A 
ATOM      7  N   UNL     1      -0.299  -4.747   3.387  0.00  0.00    -0.217 NA
ATOM      8  N   UNL     1      -0.313  -2.695   2.263  0.00  0.00    -0.297 N 
ATOM      9  C   UNL     1      -0.189  -2.028   3.451  0.00  0.00    +0.196 C 
ATOM     10  N   UNL     1       0.054  -2.700   4.564  0.00  0.00    -0.160 NA
ATOM     11  N   UNL     1      -0.315  -0.670   3.489  0.00  0.00    -0.355 N 
ATOM     12  C   UNL     1      -0.305  -6.740  -0.312  0.00  0.00    +0.066 C 
ATOM     13  H   UNL     1      -0.407  -2.198   1.435  0.00  0.00    +0.171 HD
ATOM     14  H   UNL     1      -0.151  -0.190   4.315  0.00  0.00    +0.163 HD
ENDROOT
BRANCH  11  15
ATOM     15  C   UNL     1      -0.699   0.065   2.277  0.00  0.00    +0.079 C 
ATOM     16  C   UNL     1      -2.225   0.159   2.209  0.00  0.00    +0.011 C 
ATOM     17  C   UNL     1      -2.640   0.933   0.958  0.00  0.00    -0.071 C 
ATOM     18  N   UNL     1      -1.998   2.236   0.880  0.00  0.00    +0.386 N 
ATOM     19  C   UNL     1      -0.567   2.300   1.134  0.00  0.00    -0.071 C 
ATOM     20  C   UNL     1      -0.134   1.483   2.347  0.00  0.00    +0.011 C 
ATOM     21  C   UNL     1       0.245   1.880  -0.094  0.00  0.00    -0.010 C 
ATOM     22  C   UNL     1      -0.212   3.777   1.425  0.00  0.00    -0.010 C 
ATOM     23  C   UNL     1      -4.166   1.169   1.051  0.00  0.00    -0.010 C 
ATOM     24  C   UNL     1      -2.388   0.091  -0.292  0.00  0.00    -0.010 C 
ATOM     25  H   UNL     1      -2.179   2.629  -0.047  0.00  0.00    -0.084 HD
ATOM     26  H   UNL     1      -2.469   2.865   1.535  0.00  0.00    -0.084 HD
ENDBRANCH  11  15
BRANCH  10  27
ATOM     27  C   UNL     1       0.242  -2.042   5.717  0.00  0.00    +0.158 C 
ATOM     28  S   UNL     1      -1.040  -1.144   6.409  0.00  0.00    -0.017 S 
BRANCH  27  29
ATOM     29  N   UNL     1       1.441  -2.089   6.331  0.00  0.00    -0.318 N 
ATOM     30  H   UNL     1       2.168  -2.598   5.938  0.00  0.00    +0.148 HD
BRANCH  29  31
ATOM     31  C   UNL     1       1.647  -1.370   7.590  0.00  0.00    +0.177 C 
BRANCH  31  32
ATOM     32  C   UNL     1       3.062  -1.583   8.064  0.00  0.00    +0.122 A 
ATOM     33  C   UNL     1       4.119  -0.807   7.760  0.00  0.00    +0.046 A 
ATOM     34  C   UNL     1       5.240  -1.369   8.413  0.00  0.00    +0.041 A 
ATOM     35  C   UNL     1       4.802  -2.453   9.077  0.00  0.00    +0.195 A 
ATOM     36  O   UNL     1       3.481  -2.575   8.867  0.00  0.00    -0.466 OA
ENDBRANCH  31  32
ENDBRANCH  29  31
ENDBRANCH  27  29
ENDBRANCH  10  27
TORSDOF 5
