REMARK  Name = ZINC06443922
REMARK  11 active torsions:
REMARK  status: ('A' for Active; 'I' for Inactive)
REMARK    1  A    between atoms: C_1  and  C_2
REMARK    2  A    between atoms: C_12  and  C_14
REMARK    3  A    between atoms: C_14  and  C_16
REMARK    4  A    between atoms: C_14  and  N_75
REMARK    5  A    between atoms: N_20  and  C_21
REMARK    6  A    between atoms: C_26  and  C_27
REMARK    7  A    between atoms: C_26  and  N_75
REMARK    8  A    between atoms: C_30  and  O_33
REMARK    9  A    between atoms: O_33  and  C_34
REMARK   10  A    between atoms: C_35  and  C_36
REMARK   11  A    between atoms: C_35  and  N_75
REMARK                            x       y       z     vdW  Elec       q    Type
REMARK                         _______ _______ _______ _____ _____    ______ ____
ROOT
ATOM      1  C   UNL     1       5.071  -1.537  -1.319  0.00  0.00    +0.039 C 
ENDROOT
BRANCH   1  13
ATOM      2  C   UNL     1       5.803  -4.202  -7.283  0.00  0.00    +0.046 C 
ATOM      3  C   UNL     1       5.266  -2.862  -6.850  0.00  0.00    -0.026 A 
ATOM      4  C   UNL     1       4.822  -1.959  -7.792  0.00  0.00    +0.005 A 
ATOM      5  C   UNL     1       4.324  -0.722  -7.407  0.00  0.00    +0.001 A 
ATOM      6  C   UNL     1       4.266  -0.376  -6.086  0.00  0.00    +0.010 A 
ATOM      7  C   UNL     1       4.710  -1.277  -5.114  0.00  0.00    -0.001 A 
ATOM      8  C   UNL     1       5.216  -2.533  -5.500  0.00  0.00    +0.052 A 
ATOM      9  N   UNL     1       5.654  -3.417  -4.537  0.00  0.00    -0.322 N 
ATOM     10  H   UNL     1       6.002  -4.282  -4.805  0.00  0.00    +0.169 HD
ATOM     11  C   UNL     1       5.609  -3.096  -3.232  0.00  0.00    +0.251 A 
ATOM     12  O   UNL     1       6.009  -3.901  -2.409  0.00  0.00    -0.268 OA
ATOM     13  C   UNL     1       5.107  -1.853  -2.792  0.00  0.00    +0.011 A 
ATOM     14  C   UNL     1       4.662  -0.940  -3.690  0.00  0.00    +0.017 A 
ENDBRANCH   1  13
BRANCH   1  15
ATOM     15  C   UNL     1       4.477  -2.702  -0.570  0.00  0.00    +0.143 A 
ATOM     16  N   UNL     1       3.342  -3.304  -0.831  0.00  0.00    -0.115 NA
ATOM     17  N   UNL     1       3.185  -4.249   0.030  0.00  0.00    -0.023 NA
ATOM     18  N   UNL     1       4.190  -4.265   0.835  0.00  0.00    -0.044 NA
ATOM     19  N   UNL     1       5.011  -3.329   0.495  0.00  0.00    -0.227 N 
BRANCH  19  20
ATOM     20  C   UNL     1       6.283  -3.009   1.146  0.00  0.00    +0.111 C 
ATOM     21  C   UNL     1       7.202  -4.248   1.151  0.00  0.00    +0.027 C 
ATOM     22  C   UNL     1       7.930  -4.176   2.517  0.00  0.00    +0.002 C 
ATOM     23  C   UNL     1       6.821  -3.660   3.468  0.00  0.00    +0.002 C 
ATOM     24  C   UNL     1       6.041  -2.635   2.619  0.00  0.00    +0.027 C 
ENDBRANCH  19  20
ENDBRANCH   1  15
BRANCH   1  25
ATOM     25  N   UNL     1       4.253  -0.323  -1.117  0.00  0.00    +0.394 N 
ATOM     26  H   UNL     1       4.366   0.294  -1.930  0.00  0.00    -0.080 HD
BRANCH  25  27
ATOM     27  C   UNL     1       4.702   0.393   0.095  0.00  0.00    -0.041 C 
BRANCH  27  28
ATOM     28  C   UNL     1       4.074   1.763   0.110  0.00  0.00    -0.064 A 
ATOM     29  C   UNL     1       2.899   1.976   0.808  0.00  0.00    +0.005 A 
ATOM     30  C   UNL     1       2.321   3.230   0.823  0.00  0.00    +0.046 A 
ATOM     31  C   UNL     1       2.920   4.277   0.138  0.00  0.00    +0.120 A 
ATOM     32  C   UNL     1       4.098   4.061  -0.561  0.00  0.00    +0.046 A 
ATOM     33  C   UNL     1       4.673   2.805  -0.574  0.00  0.00    +0.005 A 
BRANCH  31  34
ATOM     34  O   UNL     1       2.350   5.511   0.147  0.00  0.00    -0.495 OA
ATOM     35  C   UNL     1       3.022   6.541  -0.580  0.00  0.00    +0.277 C 
ENDBRANCH  31  34
ENDBRANCH  27  28
ENDBRANCH  25  27
BRANCH  25  36
ATOM     36  C   UNL     1       2.827  -0.690  -0.988  0.00  0.00    -0.045 C 
BRANCH  36  37
ATOM     37  C   UNL     1       2.261  -0.958  -2.384  0.00  0.00    +0.102 C 
ATOM     38  C   UNL     1       0.727  -1.123  -2.320  0.00  0.00    +0.032 C 
ATOM     39  C   UNL     1       0.425  -2.229  -3.356  0.00  0.00    +0.030 C 
ATOM     40  C   UNL     1       1.813  -2.601  -3.923  0.00  0.00    +0.160 C 
ATOM     41  O   UNL     1       2.748  -2.220  -2.890  0.00  0.00    -0.378 OA
ENDBRANCH  36  37
ENDBRANCH  25  36
ENDBRANCH   1  25
TORSDOF 9
