REMARK  Name = ZINC61406797
REMARK  3 active torsions:
REMARK  status: ('A' for Active; 'I' for Inactive)
REMARK    1  A    between atoms: C_9  and  S_10
REMARK    2  A    between atoms: S_10  and  C_11
REMARK    3  A    between atoms: C_16  and  C_17
REMARK                            x       y       z     vdW  Elec       q    Type
REMARK                         _______ _______ _______ _____ _____    ______ ____
ROOT
ATOM      1  C   UNL     1       6.032  -2.052   0.022  0.00  0.00    +0.026 A 
ATOM      2  C   UNL     1       5.343  -3.255  -0.081  0.00  0.00    +0.017 A 
ATOM      3  C   UNL     1       6.035  -4.435  -0.255  0.00  0.00    +0.021 A 
ATOM      4  C   UNL     1       7.420  -4.432  -0.328  0.00  0.00    +0.042 A 
ATOM      5  C   UNL     1       8.120  -3.249  -0.227  0.00  0.00    +0.032 A 
ATOM      6  C   UNL     1       7.433  -2.045  -0.057  0.00  0.00    +0.027 A 
ATOM      7 CL   UNL     1       8.276  -5.926  -0.546  0.00  0.00    -0.084 Cl
ENDROOT
BRANCH   6   8
ATOM      8  C   UNL     1       8.176  -0.774   0.045  0.00  0.00    +0.095 C 
ATOM      9  N   UNL     1       9.116  -0.624   0.979  0.00  0.00    -0.387 N 
ATOM     10  N   UNL     1       7.907   0.225  -0.797  0.00  0.00    -0.345 N 
ATOM     11  H   UNL     1       9.654   0.182   1.000  0.00  0.00    +0.157 HD
ATOM     12  H   UNL     1       7.223   0.116  -1.476  0.00  0.00    +0.144 HD
ATOM     13  H   UNL     1       8.395   1.060  -0.730  0.00  0.00    +0.144 HD
ATOM     14  H   UNL     1       9.261  -1.322   1.637  0.00  0.00    +0.157 HD
ENDBRANCH   6   8
BRANCH   1  15
ATOM     15  S   UNL     1       5.150  -0.543   0.245  0.00  0.00    -0.049 S 
BRANCH  15  24
ATOM     16  C   UNL     1       4.435   2.972   4.404  0.00  0.00    +0.005 A 
ATOM     17  C   UNL     1       4.035   3.085   3.059  0.00  0.00    +0.018 A 
ATOM     18  C   UNL     1       4.309   2.099   2.181  0.00  0.00    +0.095 A 
ATOM     19  N   UNL     1       4.978   0.978   2.584  0.00  0.00    -0.277 N 
ATOM     20  C   UNL     1       5.382   0.840   3.894  0.00  0.00    +0.162 A 
ATOM     21  C   UNL     1       5.101   1.863   4.821  0.00  0.00    +0.049 A 
ATOM     22  N   UNL     1       5.995  -0.327   3.986  0.00  0.00    -0.129 NA
ATOM     23  N   UNL     1       5.995  -0.908   2.838  0.00  0.00    -0.121 NA
ATOM     24  C   UNL     1       5.389  -0.156   1.947  0.00  0.00    +0.201 A 
ENDBRANCH  15  24
ENDBRANCH   1  15
TORSDOF 3
