REMARK  Name = ZINC27319044
REMARK  8 active torsions:
REMARK  status: ('A' for Active; 'I' for Inactive)
REMARK    1  A    between atoms: C_1  and  C_2
REMARK    2  A    between atoms: C_2  and  C_31
REMARK    3  A    between atoms: C_7  and  C_13
REMARK    4  A    between atoms: C_8  and  C_10
REMARK    5  A    between atoms: C_8  and  O_12
REMARK    6  A    between atoms: C_10  and  N_11
REMARK    7  A    between atoms: C_13  and  S_14
REMARK    8  A    between atoms: S_14  and  N_17
REMARK                            x       y       z     vdW  Elec       q    Type
REMARK                         _______ _______ _______ _____ _____    ______ ____
ROOT
ATOM      1  C   UNL     1       0.275  -0.170   2.280  0.00  0.00    +0.195 C 
ENDROOT
BRANCH   1   7
ATOM      2  C   UNL     1       2.043   2.349   1.447  0.00  0.00    +0.012 C 
ATOM      3  C   UNL     1       1.101   2.311   2.652  0.00  0.00    -0.022 C 
ATOM      4  C   UNL     1       0.213   3.602   2.746  0.00  0.00    -0.002 C 
ATOM      5  C   UNL     1      -0.789   3.181   3.865  0.00  0.00    +0.005 C 
ATOM      6  C   UNL     1      -0.988   1.662   3.660  0.00  0.00    +0.012 C 
ATOM      7  C   UNL     1      -0.088   1.308   2.437  0.00  0.00    +0.024 C 
ATOM      8  C   UNL     1      -0.805   1.967   1.220  0.00  0.00    +0.059 C 
ATOM      9  C   UNL     1      -0.606   3.486   1.425  0.00  0.00    +0.037 C 
ATOM     10  C   UNL     1       1.855   2.036   3.954  0.00  0.00    +0.012 C 
BRANCH   8  11
ATOM     11  O   UNL     1      -2.197   1.643   1.223  0.00  0.00    -0.390 OA
ATOM     12  H   UNL     1      -2.853   2.029   0.429  0.00  0.00    +0.210 HD
ENDBRANCH   8  11
BRANCH   8  13
ATOM     13  C   UNL     1      -0.156   1.516  -0.090  0.00  0.00    -0.051 C 
BRANCH  13  14
ATOM     14  N   UNL     1      -0.656   2.345  -1.195  0.00  0.00    +0.380 N 
ATOM     15  H   UNL     1      -0.190   2.020  -2.137  0.00  0.00    -0.090 HD
ATOM     16  H   UNL     1      -0.406   3.399  -1.006  0.00  0.00    -0.090 HD
ATOM     17  H   UNL     1      -1.748   2.235  -1.270  0.00  0.00    -0.090 HD
ENDBRANCH  13  14
ENDBRANCH   8  13
ENDBRANCH   1   7
BRANCH   1  18
ATOM     18  S   UNL     1      -1.238  -1.140   2.029  0.00  0.00    +0.032 S 
ATOM     19  O   UNL     1      -2.024  -1.135   3.212  0.00  0.00    -0.158 OA
ATOM     20  O   UNL     1      -1.819  -0.824   0.771  0.00  0.00    -0.158 OA
BRANCH  18  21
ATOM     21  N   UNL     1      -0.718  -2.705   1.873  0.00  0.00    -0.181 NA
ATOM     22  C   UNL     1      -0.385  -3.255   0.552  0.00  0.00    +0.110 C 
ATOM     23  C   UNL     1      -1.181  -4.540   0.333  0.00  0.00    +0.033 C 
ATOM     24  C   UNL     1      -0.935  -5.495   1.501  0.00  0.00    +0.017 C 
ATOM     25  C   UNL     1      -1.389  -4.856   2.812  0.00  0.00    +0.033 C 
ATOM     26  C   UNL     1      -0.589  -3.571   3.054  0.00  0.00    +0.110 C 
ATOM     27  C   UNL     1       0.527  -5.855   1.577  0.00  0.00    -0.015 C 
ATOM     28  C   UNL     1       0.638  -7.163   1.417  0.00  0.00    +0.005 C 
ATOM     29  C   UNL     1      -0.684  -7.787   1.226  0.00  0.00    -0.021 A 
ATOM     30  C   UNL     1      -1.665  -6.793   1.273  0.00  0.00    -0.030 A 
ATOM     31  C   UNL     1      -2.993  -7.117   1.123  0.00  0.00    +0.005 A 
ATOM     32  C   UNL     1      -3.365  -8.436   0.922  0.00  0.00    +0.000 A 
ATOM     33  C   UNL     1      -2.403  -9.429   0.872  0.00  0.00    +0.001 A 
ATOM     34  C   UNL     1      -1.068  -9.115   1.022  0.00  0.00    +0.008 A 
ENDBRANCH  18  21
ENDBRANCH   1  18
TORSDOF 6
