REMARK  Name = ZINC05940478
REMARK  7 active torsions:
REMARK  status: ('A' for Active; 'I' for Inactive)
REMARK    1  A    between atoms: C_1  and  O_2
REMARK    2  A    between atoms: O_2  and  C_3
REMARK    3  A    between atoms: C_6  and  C_9
REMARK    4  A    between atoms: C_16  and  N_29
REMARK    5  A    between atoms: C_17  and  C_27
REMARK    6  A    between atoms: C_18  and  C_20
REMARK    7  A    between atoms: C_25  and  O_26
REMARK                            x       y       z     vdW  Elec       q    Type
REMARK                         _______ _______ _______ _____ _____    ______ ____
ROOT
ATOM      1  C   UNL     1      -5.356  -2.951   0.182  0.00  0.00    +0.100 A 
ATOM      2  C   UNL     1      -5.471  -4.019  -0.713  0.00  0.00    +0.054 A 
ATOM      3  C   UNL     1      -6.744  -4.505  -0.629  0.00  0.00    +0.223 A 
ATOM      4  N   UNL     1      -7.404  -3.769   0.289  0.00  0.00    -0.246 N 
ATOM      5  H   UNL     1      -8.329  -3.889   0.558  0.00  0.00    +0.192 HD
ATOM      6  N   UNL     1      -6.518  -2.803   0.790  0.00  0.00    -0.171 NA
ATOM      7  O   UNL     1      -7.180  -5.549  -1.378  0.00  0.00    -0.423 OA
ATOM      8  C   UNL     1      -6.413  -5.935  -2.417  0.00  0.00    +0.200 C 
ATOM      9  C   UNL     1      -5.136  -5.532  -2.600  0.00  0.00    +0.098 C 
ATOM     10  C   UNL     1      -4.437  -4.601  -1.642  0.00  0.00    +0.105 C 
ENDROOT
BRANCH   1  14
ATOM     11  C   UNL     1      -1.868  -0.607   0.845  0.00  0.00    +0.120 A 
ATOM     12  C   UNL     1      -2.634  -1.029   1.923  0.00  0.00    +0.046 A 
ATOM     13  C   UNL     1      -3.765  -1.789   1.711  0.00  0.00    +0.013 A 
ATOM     14  C   UNL     1      -4.139  -2.133   0.413  0.00  0.00    +0.003 A 
ATOM     15  C   UNL     1      -3.369  -1.707  -0.667  0.00  0.00    +0.013 A 
ATOM     16  C   UNL     1      -2.241  -0.943  -0.449  0.00  0.00    +0.046 A 
BRANCH  11  18
ATOM     17  C   UNL     1      -0.429   0.452   2.413  0.00  0.00    +0.277 C 
ATOM     18  O   UNL     1      -0.754   0.142   1.056  0.00  0.00    -0.495 OA
ENDBRANCH  11  18
ENDBRANCH   1  14
BRANCH  10  19
ATOM     19  C   UNL     1      -3.412  -5.366  -0.846  0.00  0.00    +0.007 A 
ATOM     20  C   UNL     1      -3.814  -6.357   0.029  0.00  0.00    +0.008 A 
ATOM     21  C   UNL     1      -2.874  -7.059   0.760  0.00  0.00    +0.001 A 
ATOM     22  C   UNL     1      -1.529  -6.772   0.618  0.00  0.00    +0.004 A 
ATOM     23  C   UNL     1      -1.121  -5.782  -0.255  0.00  0.00    +0.046 A 
ATOM     24  C   UNL     1      -2.062  -5.080  -0.994  0.00  0.00    +0.121 A 
BRANCH  24  25
ATOM     25  O   UNL     1      -1.663  -4.109  -1.858  0.00  0.00    -0.506 OA
ATOM     26  H   UNL     1      -1.522  -3.247  -1.443  0.00  0.00    +0.292 HD
ENDBRANCH  24  25
ENDBRANCH  10  19
BRANCH   8  27
ATOM     27  N   UNL     1      -6.961  -6.787  -3.343  0.00  0.00    -0.328 N 
ATOM     28  H   UNL     1      -7.875  -7.094  -3.239  0.00  0.00    +0.145 HD
ATOM     29  H   UNL     1      -6.434  -7.083  -4.102  0.00  0.00    +0.145 HD
ENDBRANCH   8  27
BRANCH   9  30
ATOM     30  C   UNL     1      -4.420  -6.007  -3.746  0.00  0.00    +0.101 C 
ATOM     31  N   UNL     1      -3.852  -6.383  -4.655  0.00  0.00    -0.191 NA
ENDBRANCH   9  30
TORSDOF 6
