REMARK  Name = ZINC56347060
REMARK  5 active torsions:
REMARK  status: ('A' for Active; 'I' for Inactive)
REMARK    1  A    between atoms: C_1  and  N_2
REMARK    2  A    between atoms: N_5  and  C_6
REMARK    3  A    between atoms: C_10  and  N_12
REMARK    4  A    between atoms: C_13  and  C_15
REMARK    5  A    between atoms: C_21  and  N_24
REMARK                            x       y       z     vdW  Elec       q    Type
REMARK                         _______ _______ _______ _____ _____    ______ ____
ROOT
ATOM      1  N   UNL     1       2.006  -6.054  -3.326  0.00  0.00    -0.280 N 
ATOM      2  C   UNL     1       2.745  -6.675  -4.267  0.00  0.00    +0.267 C 
ATOM      3  O   UNL     1       3.330  -6.021  -5.109  0.00  0.00    -0.268 OA
ATOM      4  H   UNL     1       1.485  -6.576  -2.696  0.00  0.00    +0.155 HD
ENDROOT
BRANCH   2   5
ATOM      5  C   UNL     1       2.843  -8.142  -4.275  0.00  0.00    +0.127 A 
ATOM      6  C   UNL     1       3.558  -8.878  -5.165  0.00  0.00    +0.043 A 
ATOM      7  C   UNL     1       3.390 -10.243  -4.829  0.00  0.00    +0.005 A 
ATOM      8  C   UNL     1       3.878 -11.437  -5.378  0.00  0.00    +0.010 A 
ATOM      9  C   UNL     1       3.532 -12.632  -4.818  0.00  0.00    +0.003 A 
ATOM     10  C   UNL     1       2.699 -12.679  -3.707  0.00  0.00    +0.035 A 
ATOM     11  C   UNL     1       2.207 -11.520  -3.150  0.00  0.00    +0.152 A 
ATOM     12  C   UNL     1       2.546 -10.288  -3.702  0.00  0.00    +0.102 A 
ATOM     13  N   UNL     1       2.227  -8.991  -3.376  0.00  0.00    -0.240 NA
BRANCH  11  14
ATOM     14  N   UNL     1       1.320 -11.584  -1.966  0.00  0.00    +0.059 N 
ATOM     15  O   UNL     1       1.027 -12.655  -1.488  0.00  0.00    -0.126 OA
ATOM     16  O   UNL     1       0.890 -10.565  -1.478  0.00  0.00    -0.126 OA
ENDBRANCH  11  14
ENDBRANCH   2   5
BRANCH   1  21
ATOM     17  C   UNL     1       1.888  -2.637  -1.965  0.00  0.00    +0.037 A 
ATOM     18  C   UNL     1       1.957  -1.889  -3.134  0.00  0.00    +0.023 A 
ATOM     19  C   UNL     1       2.042  -2.524  -4.357  0.00  0.00    +0.004 A 
ATOM     20  C   UNL     1       2.059  -3.904  -4.424  0.00  0.00    +0.023 A 
ATOM     21  C   UNL     1       1.990  -4.658  -3.259  0.00  0.00    +0.035 A 
ATOM     22  C   UNL     1       1.910  -4.023  -2.027  0.00  0.00    +0.046 A 
BRANCH  17  27
ATOM     23  C   UNL     1       3.076  -2.430   2.696  0.00  0.00    +0.129 C 
ATOM     24  N   UNL     1       2.410  -1.855   1.524  0.00  0.00    -0.302 N 
ATOM     25  C   UNL     1       2.414  -2.522   0.353  0.00  0.00    +0.304 C 
ATOM     26  O   UNL     1       2.970  -3.600   0.269  0.00  0.00    -0.253 OA
ATOM     27  N   UNL     1       1.802  -1.993  -0.725  0.00  0.00    -0.269 N 
ATOM     28  H   UNL     1       1.967  -0.995   1.592  0.00  0.00    +0.150 HD
ATOM     29  H   UNL     1       1.302  -1.166  -0.642  0.00  0.00    +0.156 HD
ENDBRANCH  17  27
ENDBRANCH   1  21
TORSDOF 4
