REMARK  Name = ZINC04409381
REMARK  3 active torsions:
REMARK  status: ('A' for Active; 'I' for Inactive)
REMARK    1  A    between atoms: C_1  and  C_2
REMARK    2  A    between atoms: C_5  and  N_8
REMARK    3  A    between atoms: N_11  and  N_12
REMARK                            x       y       z     vdW  Elec       q    Type
REMARK                         _______ _______ _______ _____ _____    ______ ____
ROOT
ATOM      1  N   UNL     1       3.550   6.149   0.183  0.00  0.00    -0.230 N 
ATOM      2  C   UNL     1       4.747   5.505   0.177  0.00  0.00    +0.223 A 
ATOM      3  N   UNL     1       5.883   6.127   0.167  0.00  0.00    -0.217 NA
ATOM      4  C   UNL     1       5.981   7.486   0.176  0.00  0.00    +0.159 A 
ATOM      5  C   UNL     1       4.788   8.188   0.188  0.00  0.00    +0.100 A 
ATOM      6  C   UNL     1       3.545   7.534   0.192  0.00  0.00    +0.141 A 
ATOM      7  N   UNL     1       2.418   8.212   0.204  0.00  0.00    -0.383 N 
ATOM      8  S   UNL     1       5.303   9.885   0.197  0.00  0.00    -0.044 S 
ATOM      9  C   UNL     1       7.059   9.598   0.184  0.00  0.00    +0.181 A 
ATOM     10  N   UNL     1       7.157   8.231   0.174  0.00  0.00    -0.270 N 
ATOM     11  C   UNL     1       8.533   7.961   0.164  0.00  0.00    +0.076 A 
ATOM     12  C   UNL     1       9.263   6.784   0.150  0.00  0.00    +0.028 A 
ATOM     13  C   UNL     1      10.642   6.834   0.142  0.00  0.00    +0.002 A 
ATOM     14  C   UNL     1      11.301   8.055   0.146  0.00  0.00    +0.002 A 
ATOM     15  C   UNL     1      10.590   9.234   0.160  0.00  0.00    +0.030 A 
ATOM     16  C   UNL     1       9.192   9.199   0.168  0.00  0.00    +0.091 A 
ATOM     17  N   UNL     1       8.235  10.161   0.180  0.00  0.00    -0.221 NA
ATOM     18  H   UNL     1       2.438   9.312   0.211  0.00  0.00    +0.157 HD
ATOM     19  H   UNL     1       1.456   7.679   0.207  0.00  0.00    +0.157 HD
ENDROOT
BRANCH   1  23
ATOM     20  N   UNL     1       1.081   3.614  -0.557  0.00  0.00    -0.268 N 
ATOM     21  C   UNL     1       2.261   4.261  -0.483  0.00  0.00    +0.322 C 
ATOM     22  O   UNL     1       3.247   3.792  -1.019  0.00  0.00    -0.251 OA
ATOM     23  N   UNL     1       2.348   5.428   0.185  0.00  0.00    -0.204 N 
ATOM     24  H   UNL     1       0.174   4.073  -0.138  0.00  0.00    +0.156 HD
ATOM     25  H   UNL     1       1.476   5.815   0.733  0.00  0.00    +0.177 HD
BRANCH  20  30
ATOM     26  C   UNL     1       0.792  -1.482  -3.034  0.00  0.00    +0.044 C 
ATOM     27  C   UNL     1       0.869  -0.129  -2.376  0.00  0.00    -0.050 A 
ATOM     28  C   UNL     1       0.070   0.154  -1.284  0.00  0.00    +0.005 A 
ATOM     29  C   UNL     1       0.138   1.393  -0.678  0.00  0.00    +0.023 A 
ATOM     30  C   UNL     1       1.010   2.356  -1.168  0.00  0.00    +0.035 A 
ATOM     31  C   UNL     1       1.812   2.070  -2.265  0.00  0.00    +0.023 A 
ATOM     32  C   UNL     1       1.739   0.828  -2.866  0.00  0.00    +0.005 A 
ENDBRANCH  20  30
ENDBRANCH   1  23
TORSDOF 2
