REMARK  Name = ZINC39370649
REMARK  10 active torsions:
REMARK  status: ('A' for Active; 'I' for Inactive)
REMARK    1  A    between atoms: C_1  and  C_2
REMARK    2  A    between atoms: C_2  and  C_4
REMARK    3  A    between atoms: C_2  and  O_15
REMARK    4  A    between atoms: N_6  and  C_7
REMARK    5  A    between atoms: O_15  and  C_16
REMARK    6  A    between atoms: C_19  and  C_24
REMARK    7  A    between atoms: C_21  and  O_22
REMARK    8  A    between atoms: O_22  and  C_23
REMARK    9  A    between atoms: C_25  and  C_26
REMARK   10  A    between atoms: C_25  and  C_28
REMARK                            x       y       z     vdW  Elec       q    Type
REMARK                         _______ _______ _______ _____ _____    ______ ____
ROOT
ATOM      1  C   UNL     1       2.380   0.102   1.235  0.00  0.00    +0.163 A 
ATOM      2  C   UNL     1       2.968  -0.031  -0.016  0.00  0.00    +0.050 A 
ATOM      3  C   UNL     1       4.340  -0.070  -0.135  0.00  0.00    +0.012 A 
ATOM      4  C   UNL     1       5.144   0.024   1.006  0.00  0.00    -0.020 A 
ATOM      5  C   UNL     1       4.550   0.159   2.266  0.00  0.00    +0.057 A 
ATOM      6  C   UNL     1       3.174   0.203   2.376  0.00  0.00    +0.162 A 
ENDROOT
BRANCH   6   7
ATOM      7  O   UNL     1       2.594   0.338   3.599  0.00  0.00    -0.491 OA
ATOM      8  C   UNL     1       3.468   0.435   4.725  0.00  0.00    +0.277 C 
ENDBRANCH   6   7
BRANCH   4   9
ATOM      9  C   UNL     1       6.609  -0.018   0.882  0.00  0.00    +0.026 C 
ATOM     10  C   UNL     1       7.205   0.440  -0.238  0.00  0.00    +0.072 C 
BRANCH  10  11
ATOM     11  C   UNL     1       8.682   0.227  -0.448  0.00  0.00    +0.216 C 
ATOM     12  N   UNL     1       9.353   1.517  -0.651  0.00  0.00    -0.359 N 
ATOM     13  C   UNL     1       9.900   1.491  -1.832  0.00  0.00    +0.060 A 
ATOM     14  C   UNL     1      10.694   2.470  -2.587  0.00  0.00    +0.027 A 
ATOM     15  C   UNL     1      11.137   2.157  -3.821  0.00  0.00    +0.002 A 
ATOM     16  C   UNL     1      10.872   0.917  -4.430  0.00  0.00    +0.002 A 
ATOM     17  C   UNL     1      10.154  -0.050  -3.826  0.00  0.00    +0.027 A 
ATOM     18  C   UNL     1       9.619   0.179  -2.477  0.00  0.00    +0.060 A 
ATOM     19  N   UNL     1       8.910  -0.555  -1.669  0.00  0.00    -0.359 N 
ATOM     20  H   UNL     1       9.383   2.254  -0.021  0.00  0.00    +0.162 HD
ATOM     21  H   UNL     1       8.591  -1.455  -1.842  0.00  0.00    +0.162 HD
ENDBRANCH  10  11
BRANCH  10  22
ATOM     22  C   UNL     1       6.433   1.129  -1.229  0.00  0.00    +0.099 C 
ATOM     23  N   UNL     1       5.821   1.676  -2.015  0.00  0.00    -0.191 NA
ENDBRANCH  10  22
ENDBRANCH   4   9
BRANCH   1  24
ATOM     24  O   UNL     1       1.026   0.141   1.346  0.00  0.00    -0.476 OA
BRANCH  24  26
ATOM     25  C   UNL     1       0.163   1.215  -0.639  0.00  0.00    +0.062 C 
ATOM     26  C   UNL     1       0.271  -0.088   0.155  0.00  0.00    +0.256 C 
BRANCH  26  27
ATOM     27  C   UNL     1      -1.109  -0.570   0.521  0.00  0.00    +0.258 C 
ATOM     28  O   UNL     1      -1.447  -0.617   1.685  0.00  0.00    -0.271 OA
ATOM     29  N   UNL     1      -1.969  -0.948  -0.446  0.00  0.00    -0.281 N 
ATOM     30  H   UNL     1      -1.675  -0.985  -1.369  0.00  0.00    +0.155 HD
BRANCH  29  31
ATOM     31  C   UNL     1      -3.287  -1.286  -0.117  0.00  0.00    +0.053 A 
ATOM     32  C   UNL     1      -3.836  -0.859   1.085  0.00  0.00    +0.044 A 
ATOM     33  C   UNL     1      -5.138  -1.195   1.406  0.00  0.00    +0.043 A 
ATOM     34  C   UNL     1      -5.894  -1.956   0.532  0.00  0.00    +0.021 A 
ATOM     35  C   UNL     1      -5.350  -2.383  -0.665  0.00  0.00    +0.023 A 
ATOM     36  C   UNL     1      -4.051  -2.046  -0.995  0.00  0.00    +0.062 A 
ATOM     37 CL   UNL     1      -3.371  -2.576  -2.502  0.00  0.00    -0.082 Cl
ATOM     38 CL   UNL     1      -5.825  -0.662   2.909  0.00  0.00    -0.083 Cl
ENDBRANCH  29  31
ENDBRANCH  26  27
ENDBRANCH  24  26
ENDBRANCH   1  24
TORSDOF 8
