REMARK  Name = ZINC17092454
REMARK  5 active torsions:
REMARK  status: ('A' for Active; 'I' for Inactive)
REMARK    1  A    between atoms: C_6  and  C_7
REMARK    2  A    between atoms: C_10  and  N_15
REMARK    3  A    between atoms: C_11  and  C_12
REMARK    4  A    between atoms: C_16  and  C_18
REMARK    5  A    between atoms: C_26  and  C_28
REMARK                            x       y       z     vdW  Elec       q    Type
REMARK                         _______ _______ _______ _____ _____    ______ ____
ROOT
ATOM      1  C   UNL     1      -1.045   2.143   0.346  0.00  0.00    +0.003 A 
ATOM      2  C   UNL     1      -1.875   1.984  -0.717  0.00  0.00    +0.056 A 
ATOM      3  S   UNL     1      -3.171   3.164  -0.404  0.00  0.00    -0.081 S 
ATOM      4  C   UNL     1      -2.607   3.830   1.091  0.00  0.00    +0.084 A 
ATOM      5  C   UNL     1      -1.432   3.133   1.333  0.00  0.00    +0.073 A 
ENDROOT
BRANCH   1  11
ATOM      6  C   UNL     1       1.408   1.970   0.758  0.00  0.00    +0.010 A 
ATOM      7  C   UNL     1       2.558   1.219   0.888  0.00  0.00    +0.020 A 
ATOM      8  C   UNL     1       2.506  -0.159   0.757  0.00  0.00    +0.041 A 
ATOM      9  C   UNL     1       1.302  -0.789   0.495  0.00  0.00    +0.020 A 
ATOM     10  C   UNL     1       0.146  -0.047   0.362  0.00  0.00    +0.010 A 
ATOM     11  C   UNL     1       0.192   1.340   0.493  0.00  0.00    -0.017 A 
ATOM     12 CL   UNL     1       3.956  -1.098   0.923  0.00  0.00    -0.084 Cl
ENDBRANCH   1  11
BRANCH   5  13
ATOM     13  C   UNL     1      -0.619   3.388   2.524  0.00  0.00    +0.244 C 
ATOM     14  O   UNL     1       0.259   4.230   2.493  0.00  0.00    -0.270 OA
ATOM     15  N   UNL     1      -0.843   2.690   3.655  0.00  0.00    -0.325 N 
ATOM     16  H   UNL     1      -1.543   2.019   3.680  0.00  0.00    +0.145 HD
ATOM     17  H   UNL     1      -0.304   2.859   4.444  0.00  0.00    +0.145 HD
ENDBRANCH   5  13
BRANCH   4  18
ATOM     18  N   UNL     1      -3.193   4.820   1.865  0.00  0.00    -0.279 N 
ATOM     19  C   UNL     1      -4.351   5.386   1.472  0.00  0.00    +0.224 C 
ATOM     20  O   UNL     1      -4.880   5.030   0.440  0.00  0.00    -0.275 OA
ATOM     21  H   UNL     1      -2.769   5.105   2.690  0.00  0.00    +0.155 HD
BRANCH  19  22
ATOM     22  C   UNL     1      -4.987   6.463   2.313  0.00  0.00    +0.120 C 
ATOM     23  C   UNL     1      -6.289   5.938   2.988  0.00  0.00    +0.131 C 
ATOM     24  C   UNL     1      -7.064   5.188   1.863  0.00  0.00    +0.035 C 
ATOM     25  C   UNL     1      -7.582   6.346   0.973  0.00  0.00    +0.035 C 
ATOM     26  C   UNL     1      -7.038   7.611   1.702  0.00  0.00    +0.133 C 
ATOM     27  C   UNL     1      -5.500   7.623   1.423  0.00  0.00    +0.145 C 
ATOM     28  O   UNL     1      -7.071   7.172   3.099  0.00  0.00    -0.372 OA
BRANCH  27  29
ATOM     29  C   UNL     1      -5.218   7.346  -0.031  0.00  0.00    +0.362 C 
ATOM     30  O   UNL     1      -6.098   7.465  -0.851  0.00  0.00    -0.246 OA
ATOM     31  O   UNL     1      -3.989   6.968  -0.416  0.00  0.00    -0.246 OA
ENDBRANCH  27  29
ENDBRANCH  19  22
ENDBRANCH   4  18
TORSDOF 5
