REMARK  Name = ZINC12507681
REMARK  4 active torsions:
REMARK  status: ('A' for Active; 'I' for Inactive)
REMARK    1  A    between atoms: C_1  and  C_2
REMARK    2  A    between atoms: C_4  and  C_10
REMARK    3  A    between atoms: C_7  and  O_8
REMARK    4  A    between atoms: O_8  and  C_9
REMARK                            x       y       z     vdW  Elec       q    Type
REMARK                         _______ _______ _______ _____ _____    ______ ____
ROOT
ATOM      1  C   UNL     1       0.027  -2.816  -2.517  0.00  0.00    +0.209 C 
ATOM      2  N   UNL     1       0.919  -3.987  -2.424  0.00  0.00    -0.294 N 
ATOM      3  C   UNL     1       0.425  -5.131  -1.814  0.00  0.00    +0.159 C 
ATOM      4  N   UNL     1      -0.801  -5.606  -2.282  0.00  0.00    -0.259 N 
ATOM      5  C   UNL     1      -1.699  -4.622  -2.690  0.00  0.00    +0.205 A 
ATOM      6  N   UNL     1      -1.323  -3.305  -2.813  0.00  0.00    -0.288 N 
ATOM      7  C   UNL     1      -2.425  -2.598  -3.245  0.00  0.00    +0.076 A 
ATOM      8  C   UNL     1      -2.660  -1.263  -3.548  0.00  0.00    +0.077 A 
ATOM      9  C   UNL     1      -3.913  -0.866  -3.970  0.00  0.00    +0.164 A 
ATOM     10  C   UNL     1      -4.944  -1.793  -4.093  0.00  0.00    +0.164 A 
ATOM     11  C   UNL     1      -4.728  -3.122  -3.793  0.00  0.00    +0.079 A 
ATOM     12  C   UNL     1      -3.464  -3.538  -3.365  0.00  0.00    +0.095 A 
ATOM     13  N   UNL     1      -2.954  -4.753  -3.006  0.00  0.00    -0.214 NA
ATOM     14  O   UNL     1      -6.176  -1.381  -4.516  0.00  0.00    -0.488 OA
ATOM     15  C   UNL     1      -6.898  -0.542  -3.612  0.00  0.00    +0.232 C 
ATOM     16  C   UNL     1      -6.480   0.911  -3.773  0.00  0.00    +0.082 C 
ATOM     17  C   UNL     1      -5.028   1.142  -3.385  0.00  0.00    +0.232 C 
ATOM     18  O   UNL     1      -4.149   0.446  -4.271  0.00  0.00    -0.488 OA
ATOM     19  N   UNL     1       1.072  -5.730  -0.855  0.00  0.00    -0.375 N 
ATOM     20  H   UNL     1       1.821  -3.958  -2.779  0.00  0.00    +0.151 HD
ATOM     21  H   UNL     1       1.922  -5.377  -0.549  0.00  0.00    +0.158 HD
ATOM     22  H   UNL     1      -1.012  -6.552  -2.321  0.00  0.00    +0.158 HD
ATOM     23  H   UNL     1       0.703  -6.528  -0.446  0.00  0.00    +0.158 HD
ENDROOT
BRANCH   1  27
ATOM     24  C   UNL     1      -0.018   1.503   0.010  0.00  0.00    +0.047 C 
ATOM     25  C   UNL     1       0.002  -0.004   0.002  0.00  0.00    -0.008 A 
ATOM     26  C   UNL     1       0.006  -0.689  -1.198  0.00  0.00    +0.014 A 
ATOM     27  C   UNL     1       0.024  -2.071  -1.206  0.00  0.00    -0.006 A 
ATOM     28  C   UNL     1       0.039  -2.772  -0.014  0.00  0.00    +0.011 A 
ATOM     29  C   UNL     1       0.036  -2.092   1.188  0.00  0.00    +0.046 A 
ATOM     30  C   UNL     1       0.023  -0.705   1.199  0.00  0.00    +0.123 A 
BRANCH  30  31
ATOM     31  O   UNL     1       0.025  -0.033   2.381  0.00  0.00    -0.495 OA
ATOM     32  C   UNL     1       0.048  -0.820   3.574  0.00  0.00    +0.277 C 
ENDBRANCH  30  31
ENDBRANCH   1  27
TORSDOF 2
