REMARK  Name = ZINC04556700
REMARK  14 active torsions:
REMARK  status: ('A' for Active; 'I' for Inactive)
REMARK    1  A    between atoms: C_3  and  O_10
REMARK    2  A    between atoms: C_6  and  N_7
REMARK    3  A    between atoms: O_10  and  C_11
REMARK    4  A    between atoms: C_13  and  O_42
REMARK    5  A    between atoms: C_15  and  O_41
REMARK    6  A    between atoms: C_17  and  O_24
REMARK    7  A    between atoms: C_19  and  C_22
REMARK    8  A    between atoms: C_22  and  O_23
REMARK    9  A    between atoms: O_24  and  C_25
REMARK   10  A    between atoms: C_27  and  O_40
REMARK   11  A    between atoms: C_29  and  O_39
REMARK   12  A    between atoms: C_31  and  O_38
REMARK   13  A    between atoms: C_33  and  C_36
REMARK   14  A    between atoms: C_36  and  O_37
REMARK                            x       y       z     vdW  Elec       q    Type
REMARK                         _______ _______ _______ _____ _____    ______ ____
ROOT
ATOM      1  C   UNL     1       0.628  -0.573  -1.150  0.00  0.00    +0.339 C 
ATOM      2  C   UNL     1       2.091  -0.124  -1.207  0.00  0.00    +0.214 C 
ATOM      3  C   UNL     1       2.147   1.406  -1.233  0.00  0.00    +0.180 C 
ATOM      4  C   UNL     1       1.419   1.953  -0.001  0.00  0.00    +0.184 C 
ATOM      5  C   UNL     1      -0.017   1.425   0.010  0.00  0.00    +0.179 C 
ATOM      6  O   UNL     1       0.002  -0.004   0.002  0.00  0.00    -0.331 OA
ENDROOT
BRANCH   3   7
ATOM      7  O   UNL     1       3.510   1.835  -1.212  0.00  0.00    -0.386 OA
ATOM      8  H   UNL     1       4.033   1.518  -1.962  0.00  0.00    +0.210 HD
ENDBRANCH   3   7
BRANCH   2   9
ATOM      9  O   UNL     1       2.704  -0.645  -2.389  0.00  0.00    -0.383 OA
ATOM     10  H   UNL     1       2.699  -1.610  -2.442  0.00  0.00    +0.210 HD
ENDBRANCH   2   9
BRANCH   1  11
ATOM     11  O   UNL     1      -0.051  -0.133  -2.328  0.00  0.00    -0.461 OA
BRANCH  11  14
ATOM     12  C   UNL     1      -3.344  -0.541  -3.782  0.00  0.00    +0.032 A 
ATOM     13  C   UNL     1      -2.054  -0.141  -3.614  0.00  0.00    +0.048 A 
ATOM     14  C   UNL     1      -1.335  -0.538  -2.484  0.00  0.00    +0.124 A 
ATOM     15  C   UNL     1      -1.928  -1.352  -1.516  0.00  0.00    +0.048 A 
ATOM     16  C   UNL     1      -3.219  -1.760  -1.659  0.00  0.00    +0.032 A 
ATOM     17  C   UNL     1      -3.958  -1.364  -2.803  0.00  0.00    +0.074 A 
BRANCH  17  18
ATOM     18  N   UNL     1      -5.214  -1.759  -2.956  0.00  0.00    -0.197 NA
ATOM     19  C   UNL     1      -5.751  -2.484  -2.091  0.00  0.00    +0.041 C 
ATOM     20  S   UNL     1      -6.418  -3.385  -1.015  0.00  0.00    +0.021 S 
ENDBRANCH  17  18
ENDBRANCH  11  14
ENDBRANCH   1  11
BRANCH   5  21
ATOM     21  C   UNL     1      -0.733   1.919   1.269  0.00  0.00    +0.190 C 
BRANCH  21  22
ATOM     22  O   UNL     1      -2.105   1.522   1.223  0.00  0.00    -0.392 OA
ATOM     23  H   UNL     1      -2.621   1.802   1.991  0.00  0.00    +0.210 HD
ENDBRANCH  21  22
ENDBRANCH   5  21
BRANCH   4  24
ATOM     24  O   UNL     1       2.095   1.524   1.183  0.00  0.00    -0.340 OA
BRANCH  24  25
ATOM     25  C   UNL     1       3.110   2.425   1.632  0.00  0.00    +0.282 C 
ATOM     26  C   UNL     1       3.927   1.760   2.743  0.00  0.00    +0.201 C 
ATOM     27  C   UNL     1       4.973   2.753   3.260  0.00  0.00    +0.179 C 
ATOM     28  C   UNL     1       4.262   4.022   3.741  0.00  0.00    +0.177 C 
ATOM     29  C   UNL     1       3.432   4.599   2.592  0.00  0.00    +0.178 C 
ATOM     30  O   UNL     1       2.501   3.615   2.137  0.00  0.00    -0.341 OA
BRANCH  28  31
ATOM     31  O   UNL     1       3.403   3.703   4.838  0.00  0.00    -0.386 OA
ATOM     32  H   UNL     1       3.864   3.332   5.603  0.00  0.00    +0.210 HD
ENDBRANCH  28  31
BRANCH  27  33
ATOM     33  O   UNL     1       5.692   2.166   4.347  0.00  0.00    -0.386 OA
ATOM     34  H   UNL     1       6.167   1.357   4.113  0.00  0.00    +0.210 HD
ENDBRANCH  27  33
BRANCH  26  35
ATOM     35  O   UNL     1       3.059   1.380   3.812  0.00  0.00    -0.384 OA
ATOM     36  H   UNL     1       2.368   0.755   3.554  0.00  0.00    +0.210 HD
ENDBRANCH  26  35
BRANCH  29  37
ATOM     37  C   UNL     1       2.671   5.833   3.081  0.00  0.00    +0.190 C 
BRANCH  37  38
ATOM     38  O   UNL     1       1.988   6.439   1.982  0.00  0.00    -0.392 OA
ATOM     39  H   UNL     1       1.484   7.229   2.219  0.00  0.00    +0.210 HD
ENDBRANCH  37  38
ENDBRANCH  29  37
ENDBRANCH  24  25
ENDBRANCH   4  24
TORSDOF 14
