REMARK  Name = ZINC10786069
REMARK  9 active torsions:
REMARK  status: ('A' for Active; 'I' for Inactive)
REMARK    1  A    between atoms: C_1  and  C_2
REMARK    2  A    between atoms: N_11  and  C_12
REMARK    3  A    between atoms: C_12  and  C_13
REMARK    4  A    between atoms: C_13  and  C_14
REMARK    5  A    between atoms: C_14  and  N_60
REMARK    6  A    between atoms: C_20  and  C_22
REMARK    7  A    between atoms: C_22  and  C_23
REMARK    8  A    between atoms: C_23  and  S_24
REMARK    9  A    between atoms: S_24  and  C_25
REMARK                            x       y       z     vdW  Elec       q    Type
REMARK                         _______ _______ _______ _____ _____    ______ ____
ROOT
ATOM      1  C   UNL     1      -0.417   8.107   0.050  0.00  0.00    +0.046 C 
ATOM      2  C   UNL     1       0.323   9.420   0.048  0.00  0.00    -0.023 A 
ATOM      3  C   UNL     1      -0.382  10.595   0.059  0.00  0.00    +0.025 A 
ATOM      4  C   UNL     1       0.260  11.826   0.059  0.00  0.00    +0.042 A 
ATOM      5  C   UNL     1       1.643  11.868   0.046  0.00  0.00    +0.037 A 
ATOM      6  C   UNL     1       2.356  10.696   0.034  0.00  0.00    +0.042 A 
ATOM      7  C   UNL     1       1.737   9.425   0.034  0.00  0.00    +0.083 A 
ATOM      8  N   UNL     1       2.575   8.366   0.015  0.00  0.00    -0.224 NA
ATOM      9  C   UNL     1       3.880   8.499   0.009  0.00  0.00    +0.168 A 
ATOM     10  S   UNL     1       4.082  10.275   0.015  0.00  0.00    -0.052 S 
ATOM     11  N   UNL     1       4.854   7.514  -0.005  0.00  0.00    -0.250 N 
ATOM     12  C   UNL     1       4.498   6.214  -0.008  0.00  0.00    +0.222 C 
ATOM     13  O   UNL     1       5.350   5.352  -0.021  0.00  0.00    -0.275 OA
ATOM     14 CL   UNL     1      -0.663  13.296   0.075  0.00  0.00    -0.083 Cl
ENDROOT
BRANCH  11  15
ATOM     15  C   UNL     1       6.271   7.885  -0.016  0.00  0.00    +0.114 C 
BRANCH  15  16
ATOM     16  C   UNL     1       6.751   8.021  -1.463  0.00  0.00    +0.001 C 
BRANCH  16  17
ATOM     17  C   UNL     1       8.231   8.409  -1.475  0.00  0.00    -0.077 C 
BRANCH  17  23
ATOM     18  C   UNL     1       8.672   7.240  -3.550  0.00  0.00    -0.050 C 
ATOM     19  C   UNL     1       9.101   7.432  -5.007  0.00  0.00    +0.141 C 
ATOM     20  O   UNL     1      10.394   8.043  -5.042  0.00  0.00    -0.383 OA
ATOM     21  C   UNL     1      10.450   9.311  -4.382  0.00  0.00    +0.141 C 
ATOM     22  C   UNL     1      10.034   9.138  -2.919  0.00  0.00    -0.050 C 
ATOM     23  N   UNL     1       8.676   8.556  -2.878  0.00  0.00    +0.383 N 
ATOM     24  H   UNL     1       8.028   9.184  -3.369  0.00  0.00    -0.082 HD
ENDBRANCH  17  23
ENDBRANCH  16  17
ENDBRANCH  15  16
ENDBRANCH  11  15
BRANCH  12  25
ATOM     25  C   UNL     1       3.040   5.832   0.004  0.00  0.00    +0.107 C 
BRANCH  25  26
ATOM     26  C   UNL     1       2.912   4.308  -0.003  0.00  0.00    +0.083 C 
BRANCH  26  27
ATOM     27  S   UNL     1       1.157   3.849   0.011  0.00  0.00    -0.125 S 
BRANCH  27  28
ATOM     28  C   UNL     1       1.178   2.087   0.002  0.00  0.00    +0.008 A 
ATOM     29  C   UNL     1      -0.017   1.377   0.010  0.00  0.00    +0.017 A 
ATOM     30  C   UNL     1       0.002  -0.004   0.002  0.00  0.00    +0.039 A 
ATOM     31  C   UNL     1       1.210  -0.681  -0.013  0.00  0.00    +0.123 A 
ATOM     32  C   UNL     1       2.402   0.024  -0.021  0.00  0.00    +0.039 A 
ATOM     33  C   UNL     1       2.388   1.405  -0.013  0.00  0.00    +0.017 A 
ATOM     34  F   UNL     1       1.226  -2.032  -0.020  0.00  0.00    -0.205 F 
ENDBRANCH  27  28
ENDBRANCH  26  27
ENDBRANCH  25  26
ENDBRANCH  12  25
TORSDOF 8
