REMARK  Name = ZINC65396847
REMARK  4 active torsions:
REMARK  status: ('A' for Active; 'I' for Inactive)
REMARK    1  A    between atoms: C_1  and  C_2
REMARK    2  A    between atoms: C_4  and  N_15
REMARK    3  A    between atoms: N_18  and  C_21
REMARK    4  A    between atoms: C_21  and  C_22
REMARK                            x       y       z     vdW  Elec       q    Type
REMARK                         _______ _______ _______ _____ _____    ______ ____
ROOT
ATOM      1  N   UNL     1       0.028  -2.789  -2.357  0.00  0.00    -0.314 N 
ATOM      2  C   UNL     1       0.151  -4.255  -2.386  0.00  0.00    +0.122 C 
ATOM      3  C   UNL     1       1.275  -4.630  -3.358  0.00  0.00    +0.103 C 
ATOM      4  N   UNL     1       1.020  -4.003  -4.661  0.00  0.00    -0.295 NA
ATOM      5  C   UNL     1       1.040  -2.537  -4.561  0.00  0.00    +0.103 C 
ATOM      6  C   UNL     1      -0.100  -2.077  -3.638  0.00  0.00    +0.122 C 
ENDROOT
BRANCH   1  10
ATOM      7  C   UNL     1       0.034   1.503   0.010  0.00  0.00    +0.044 C 
ATOM      8  C   UNL     1       0.028  -0.004   0.002  0.00  0.00    -0.038 A 
ATOM      9  C   UNL     1       0.031  -0.696  -1.171  0.00  0.00    +0.045 A 
ATOM     10  C   UNL     1       0.025  -2.098  -1.155  0.00  0.00    +0.099 A 
ATOM     11  N   UNL     1       0.017  -2.774  -0.025  0.00  0.00    -0.343 N 
ATOM     12  C   UNL     1       0.014  -2.149   1.158  0.00  0.00    +0.048 A 
ATOM     13  C   UNL     1       0.024  -0.734   1.208  0.00  0.00    +0.002 A 
ATOM     14  C   UNL     1       0.023  -0.087   2.452  0.00  0.00    +0.014 A 
ATOM     15  C   UNL     1       0.021  -0.821   3.603  0.00  0.00    -0.043 A 
ATOM     16  C   UNL     1       0.019  -2.215   3.557  0.00  0.00    -0.042 A 
ATOM     17  C   UNL     1       0.007  -2.873   2.361  0.00  0.00    +0.030 A 
ATOM     18  C   UNL     1       0.017  -2.768   4.967  0.00  0.00    +0.036 C 
ATOM     19  C   UNL     1       0.462  -1.594   5.864  0.00  0.00    +0.009 C 
ATOM     20  C   UNL     1       0.020  -0.362   5.047  0.00  0.00    +0.036 C 
ATOM     21  H   UNL     1       0.013  -3.744  -0.050  0.00  0.00    +0.167 HD
ENDBRANCH   1  10
BRANCH   4  22
ATOM     22  C   UNL     1       1.979  -4.474  -5.669  0.00  0.00    +0.122 C 
BRANCH  22  23
ATOM     23  C   UNL     1       1.544  -4.008  -7.034  0.00  0.00    +0.003 A 
ATOM     24  C   UNL     1       0.699  -4.785  -7.811  0.00  0.00    +0.120 A 
ATOM     25  N   UNL     1       0.335  -4.346  -9.005  0.00  0.00    -0.223 NA
ATOM     26  C   UNL     1       0.770  -3.180  -9.460  0.00  0.00    +0.212 A 
ATOM     27  N   UNL     1       1.579  -2.414  -8.742  0.00  0.00    -0.223 NA
ATOM     28  C   UNL     1       1.975  -2.791  -7.538  0.00  0.00    +0.120 A 
ATOM     29  N   UNL     1       0.370  -2.752 -10.713  0.00  0.00    -0.327 N 
ATOM     30  H   UNL     1      -0.222  -3.304 -11.248  0.00  0.00    +0.145 HD
ATOM     31  H   UNL     1       0.681  -1.900 -11.057  0.00  0.00    +0.145 HD
ENDBRANCH  22  23
ENDBRANCH   4  22
TORSDOF 3
