REMARK  Name = ZINC59015803
REMARK  9 active torsions:
REMARK  status: ('A' for Active; 'I' for Inactive)
REMARK    1  A    between atoms: C_1  and  C_2
REMARK    2  A    between atoms: C_2  and  S_3
REMARK    3  A    between atoms: S_3  and  C_4
REMARK    4  A    between atoms: C_9  and  N_10
REMARK    5  A    between atoms: C_11  and  C_13
REMARK    6  A    between atoms: C_13  and  S_14
REMARK    7  A    between atoms: S_14  and  C_15
REMARK    8  A    between atoms: N_20  and  N_21
REMARK    9  A    between atoms: C_22  and  C_23
REMARK                            x       y       z     vdW  Elec       q    Type
REMARK                         _______ _______ _______ _____ _____    ______ ____
ROOT
ATOM      1  C   UNL     1       4.965  -3.067  -7.789  0.00  0.00    +0.211 A 
ATOM      2  N   UNL     1       5.660  -3.606  -8.796  0.00  0.00    -0.186 NA
ATOM      3  C   UNL     1       6.160  -2.650  -9.551  0.00  0.00    +0.232 A 
ATOM      4  N   UNL     1       5.784  -1.465  -9.025  0.00  0.00    -0.245 N 
ATOM      5  N   UNL     1       5.009  -1.760  -7.892  0.00  0.00    -0.144 NA
ATOM      6  N   UNL     1       6.934  -2.829 -10.682  0.00  0.00    -0.205 N 
ATOM      7  H   UNL     1       7.259  -2.059 -11.175  0.00  0.00    +0.177 HD
ATOM      8  H   UNL     1       6.002  -0.583  -9.366  0.00  0.00    +0.192 HD
ENDROOT
BRANCH   6   9
ATOM      9  N   UNL     1       7.251  -4.123 -11.117  0.00  0.00    -0.188 NA
ATOM     10  C   UNL     1       7.978  -4.290 -12.180  0.00  0.00    +0.139 C 
BRANCH  10  11
ATOM     11  C   UNL     1       8.311  -5.652 -12.638  0.00  0.00    +0.014 A 
ATOM     12  C   UNL     1       9.098  -5.836 -13.777  0.00  0.00    +0.011 A 
ATOM     13  C   UNL     1       9.406  -7.112 -14.200  0.00  0.00    +0.002 A 
ATOM     14  C   UNL     1       8.938  -8.210 -13.500  0.00  0.00    +0.021 A 
ATOM     15  C   UNL     1       8.157  -8.037 -12.370  0.00  0.00    +0.060 A 
ATOM     16  C   UNL     1       7.846  -6.764 -11.931  0.00  0.00    +0.068 A 
ATOM     17 CL   UNL     1       6.873  -6.547 -10.509  0.00  0.00    -0.081 Cl
ATOM     18 CL   UNL     1       7.574  -9.421 -11.499  0.00  0.00    -0.082 Cl
ENDBRANCH  10  11
ENDBRANCH   6   9
BRANCH   1  19
ATOM     19  S   UNL     1       4.120  -3.967  -6.531  0.00  0.00    -0.075 S 
BRANCH  19  20
ATOM     20  C   UNL     1       3.381  -2.678  -5.491  0.00  0.00    +0.173 C 
BRANCH  20  22
ATOM     21  N   UNL     1       1.982  -2.551  -3.455  0.00  0.00    -0.284 N 
ATOM     22  C   UNL     1       2.618  -3.320  -4.361  0.00  0.00    +0.228 C 
ATOM     23  O   UNL     1       2.577  -4.529  -4.266  0.00  0.00    -0.275 OA
ATOM     24  H   UNL     1       1.946  -1.589  -3.574  0.00  0.00    +0.155 HD
BRANCH  21  30
ATOM     25  C   UNL     1       0.317  -2.495  -1.695  0.00  0.00    +0.029 A 
ATOM     26  C   UNL     1      -0.287  -3.088  -0.595  0.00  0.00    +0.016 A 
ATOM     27  C   UNL     1       0.160  -4.314  -0.140  0.00  0.00    +0.001 A 
ATOM     28  C   UNL     1       1.208  -4.953  -0.776  0.00  0.00    +0.002 A 
ATOM     29  C   UNL     1       1.816  -4.369  -1.873  0.00  0.00    +0.024 A 
ATOM     30  C   UNL     1       1.371  -3.142  -2.341  0.00  0.00    +0.047 A 
BRANCH  25  31
ATOM     31  S   UNL     1      -0.251  -0.932  -2.279  0.00  0.00    -0.124 S 
BRANCH  31  33
ATOM     32  C   UNL     1      -2.191   0.850  -1.544  0.00  0.00    +0.015 C 
ATOM     33  C   UNL     1      -1.600  -0.504  -1.145  0.00  0.00    +0.071 C 
ENDBRANCH  31  33
ENDBRANCH  25  31
ENDBRANCH  21  30
ENDBRANCH  20  22
ENDBRANCH  19  20
ENDBRANCH   1  19
TORSDOF 8
