REMARK  Name = ZINC37006608
REMARK  12 active torsions:
REMARK  status: ('A' for Active; 'I' for Inactive)
REMARK    1  A    between atoms: C_1  and  C_2
REMARK    2  A    between atoms: C_5  and  C_40
REMARK    3  A    between atoms: N_8  and  C_10
REMARK    4  A    between atoms: C_10  and  C_11
REMARK    5  A    between atoms: C_11  and  C_12
REMARK    6  A    between atoms: C_12  and  N_13
REMARK    7  A    between atoms: C_14  and  C_16
REMARK    8  A    between atoms: C_16  and  C_39
REMARK    9  A    between atoms: N_29  and  C_30
REMARK   10  A    between atoms: C_30  and  C_31
REMARK   11  A    between atoms: C_34  and  O_37
REMARK   12  A    between atoms: O_37  and  C_38
REMARK                            x       y       z     vdW  Elec       q    Type
REMARK                         _______ _______ _______ _____ _____    ______ ____
ROOT
ATOM      1  C   UNL     1       2.257   1.170   7.841  0.00  0.00    +0.129 C 
ATOM      2  C   UNL     1       3.065   0.608   9.009  0.00  0.00    +0.157 C 
ATOM      3  N   UNL     1       2.622  -0.762   9.290  0.00  0.00    -0.334 N 
ATOM      4  C   UNL     1       3.305  -1.815   9.799  0.00  0.00    +0.050 A 
ATOM      5  C   UNL     1       4.632  -1.964  10.205  0.00  0.00    +0.026 A 
ATOM      6  C   UNL     1       5.006  -3.203  10.691  0.00  0.00    +0.002 A 
ATOM      7  C   UNL     1       4.118  -4.264  10.778  0.00  0.00    +0.001 A 
ATOM      8  C   UNL     1       2.808  -4.152  10.387  0.00  0.00    +0.010 A 
ATOM      9  C   UNL     1       2.398  -2.907   9.889  0.00  0.00    +0.001 A 
ATOM     10  C   UNL     1       1.155  -2.457   9.406  0.00  0.00    +0.041 A 
ATOM     11  C   UNL     1       1.308  -1.166   9.043  0.00  0.00    +0.106 A 
ATOM     12  C   UNL     1       0.332  -0.230   8.454  0.00  0.00    +0.264 C 
ATOM     13  O   UNL     1      -0.853  -0.497   8.391  0.00  0.00    -0.268 OA
ATOM     14  N   UNL     1       0.824   0.941   7.988  0.00  0.00    -0.276 N 
ATOM     15  C   UNL     1       2.510   2.676   7.745  0.00  0.00    +0.043 C 
ENDROOT
BRANCH   1  17
ATOM     16  N   UNL     1       2.153  -0.629   6.146  0.00  0.00    -0.314 N 
ATOM     17  C   UNL     1       2.725   0.516   6.566  0.00  0.00    +0.238 C 
ATOM     18  O   UNL     1       3.618   1.021   5.919  0.00  0.00    -0.273 OA
ATOM     19  H   UNL     1       1.397  -0.999   6.628  0.00  0.00    +0.149 HD
BRANCH  16  20
ATOM     20  C   UNL     1       2.672  -1.316   4.961  0.00  0.00    +0.102 C 
BRANCH  20  21
ATOM     21  C   UNL     1       1.775  -2.511   4.630  0.00  0.00    +0.000 C 
BRANCH  21  22
ATOM     22  C   UNL     1       2.245  -3.155   3.324  0.00  0.00    -0.077 C 
BRANCH  22  28
ATOM     23  C   UNL     1      -1.055  -5.771   3.587  0.00  0.00    +0.005 C 
ATOM     24  C   UNL     1       0.347  -6.382   3.587  0.00  0.00    -0.031 C 
ATOM     25  C   UNL     1       0.659  -6.946   2.198  0.00  0.00    +0.003 C 
ATOM     26  C   UNL     1       0.665  -5.801   1.182  0.00  0.00    -0.031 C 
ATOM     27  C   UNL     1       1.680  -4.743   1.619  0.00  0.00    -0.076 C 
ATOM     28  N   UNL     1       1.312  -4.224   2.942  0.00  0.00    +0.380 N 
ATOM     29  C   UNL     1       1.375  -5.303   3.937  0.00  0.00    -0.076 C 
ATOM     30  C   UNL     1       1.051  -6.342  -0.196  0.00  0.00    +0.005 C 
ATOM     31  H   UNL     1       0.374  -3.853   2.908  0.00  0.00    -0.082 HD
ENDBRANCH  22  28
ENDBRANCH  21  22
ENDBRANCH  20  21
ENDBRANCH  16  20
ENDBRANCH   1  17
BRANCH  14  32
ATOM     32  C   UNL     1      -0.109   2.010   7.622  0.00  0.00    +0.144 C 
BRANCH  32  33
ATOM     33  C   UNL     1      -0.579   1.803   6.206  0.00  0.00    -0.030 A 
ATOM     34  C   UNL     1       0.179   2.278   5.151  0.00  0.00    +0.009 A 
ATOM     35  C   UNL     1      -0.250   2.090   3.851  0.00  0.00    +0.046 A 
ATOM     36  C   UNL     1      -1.442   1.424   3.605  0.00  0.00    +0.120 A 
ATOM     37  C   UNL     1      -2.200   0.948   4.665  0.00  0.00    +0.046 A 
ATOM     38  C   UNL     1      -1.764   1.134   5.963  0.00  0.00    +0.009 A 
BRANCH  36  39
ATOM     39  O   UNL     1      -1.866   1.238   2.327  0.00  0.00    -0.495 OA
ATOM     40  C   UNL     1      -3.156   0.649   2.151  0.00  0.00    +0.277 C 
ENDBRANCH  36  39
ENDBRANCH  32  33
ENDBRANCH  14  32
TORSDOF 8
