REMARK  Name = ZINC21241700
REMARK  12 active torsions:
REMARK  status: ('A' for Active; 'I' for Inactive)
REMARK    1  A    between atoms: C_1  and  C_2
REMARK    2  A    between atoms: C_2  and  C_3
REMARK    3  A    between atoms: C_2  and  O_4
REMARK    4  A    between atoms: O_4  and  C_5
REMARK    5  A    between atoms: C_8  and  C_11
REMARK    6  A    between atoms: C_16  and  C_26
REMARK    7  A    between atoms: C_28  and  O_36
REMARK    8  A    between atoms: C_29  and  O_34
REMARK    9  A    between atoms: C_30  and  O_32
REMARK   10  A    between atoms: O_32  and  C_33
REMARK   11  A    between atoms: O_34  and  C_35
REMARK   12  A    between atoms: O_36  and  C_37
REMARK                            x       y       z     vdW  Elec       q    Type
REMARK                         _______ _______ _______ _____ _____    ______ ____
ROOT
ATOM      1  C   UNL     1      -1.409   2.389   8.757  0.00  0.00    +0.032 C 
ATOM      2  C   UNL     1      -0.964   1.014   9.252  0.00  0.00    +0.059 C 
ATOM      3  C   UNL     1      -0.096   0.339   8.202  0.00  0.00    +0.017 C 
ATOM      4  C   UNL     1       0.691   1.070   7.395  0.00  0.00    +0.036 C 
ATOM      5  C   UNL     1       1.607   0.529   6.324  0.00  0.00    +0.136 C 
ATOM      6  N   UNL     1       1.804  -0.904   6.367  0.00  0.00    -0.331 N 
ATOM      7  C   UNL     1       0.745  -1.780   6.134  0.00  0.00    +0.049 A 
ATOM      8  C   UNL     1       0.731  -2.624   5.036  0.00  0.00    +0.025 A 
ATOM      9  C   UNL     1      -0.366  -3.442   4.821  0.00  0.00    +0.002 A 
ATOM     10  C   UNL     1      -1.440  -3.415   5.691  0.00  0.00    +0.002 A 
ATOM     11  C   UNL     1      -1.421  -2.585   6.799  0.00  0.00    +0.025 A 
ATOM     12  C   UNL     1      -0.316  -1.784   7.027  0.00  0.00    +0.052 A 
ATOM     13  N   UNL     1      -0.181  -1.015   8.178  0.00  0.00    -0.316 N 
ATOM     14  C   UNL     1       0.708   2.481   7.503  0.00  0.00    +0.163 C 
ATOM     15  O   UNL     1       1.443   3.117   6.773  0.00  0.00    -0.292 OA
ATOM     16  C   UNL     1      -0.148   3.219   8.489  0.00  0.00    +0.088 C 
ATOM     17  H   UNL     1       2.800  -1.316   6.585  0.00  0.00    +0.147 HD
ATOM     18  H   UNL     1      -0.144  -1.586   9.117  0.00  0.00    +0.152 HD
ENDROOT
BRANCH   1  22
ATOM     19  C   UNL     1      -3.798   4.299  11.741  0.00  0.00    +0.121 A 
ATOM     20  C   UNL     1      -4.329   4.041  10.485  0.00  0.00    +0.046 A 
ATOM     21  C   UNL     1      -3.555   3.423   9.523  0.00  0.00    +0.007 A 
ATOM     22  C   UNL     1      -2.251   3.062   9.809  0.00  0.00    -0.043 A 
ATOM     23  C   UNL     1      -1.721   3.313  11.061  0.00  0.00    +0.007 A 
ATOM     24  C   UNL     1      -2.490   3.935  12.026  0.00  0.00    +0.046 A 
BRANCH  19  25
ATOM     25  O   UNL     1      -4.558   4.906  12.690  0.00  0.00    -0.489 OA
BRANCH  25  27
ATOM     26  C   UNL     1      -6.758   5.412  13.553  0.00  0.00    +0.051 C 
ATOM     27  C   UNL     1      -5.875   5.307  12.307  0.00  0.00    +0.167 C 
ATOM     28  C   UNL     1      -5.811   6.668  11.611  0.00  0.00    +0.051 C 
ENDBRANCH  25  27
ENDBRANCH  19  25
ENDBRANCH   1  22
BRANCH   5  29
ATOM     29  C   UNL     1       1.036   0.893   4.978  0.00  0.00    -0.016 A 
ATOM     30  C   UNL     1       1.750   1.713   4.125  0.00  0.00    +0.055 A 
ATOM     31  C   UNL     1       1.227   2.049   2.885  0.00  0.00    +0.165 A 
ATOM     32  C   UNL     1      -0.016   1.561   2.501  0.00  0.00    +0.204 A 
ATOM     33  C   UNL     1      -0.733   0.741   3.365  0.00  0.00    +0.165 A 
ATOM     34  C   UNL     1      -0.201   0.405   4.600  0.00  0.00    +0.055 A 
BRANCH  33  35
ATOM     35  O   UNL     1      -1.953   0.265   2.996  0.00  0.00    -0.491 OA
ATOM     36  C   UNL     1      -2.664  -0.513   3.961  0.00  0.00    +0.277 C 
ENDBRANCH  33  35
BRANCH  32  37
ATOM     37  O   UNL     1      -0.533   1.889   1.286  0.00  0.00    -0.488 OA
ATOM     38  C   UNL     1      -0.219   1.024   0.192  0.00  0.00    +0.277 C 
ENDBRANCH  32  37
BRANCH  31  39
ATOM     39  O   UNL     1       1.930   2.856   2.046  0.00  0.00    -0.491 OA
ATOM     40  C   UNL     1       3.201   3.321   2.506  0.00  0.00    +0.277 C 
ENDBRANCH  31  39
ENDBRANCH   5  29
TORSDOF 7
