REMARK  Name = ZINC22063393
REMARK  10 active torsions:
REMARK  status: ('A' for Active; 'I' for Inactive)
REMARK    1  A    between atoms: C_1  and  C_2
REMARK    2  A    between atoms: C_2  and  C_3
REMARK    3  A    between atoms: C_2  and  C_4
REMARK    4  A    between atoms: C_4  and  C_6
REMARK    5  A    between atoms: C_4  and  N_14
REMARK    6  A    between atoms: C_9  and  O_12
REMARK    7  A    between atoms: O_12  and  C_13
REMARK    8  A    between atoms: C_15  and  C_17
REMARK    9  A    between atoms: C_17  and  N_18
REMARK   10  A    between atoms: C_27  and  C_29
REMARK                            x       y       z     vdW  Elec       q    Type
REMARK                         _______ _______ _______ _____ _____    ______ ____
ROOT
ATOM      1  C   UNL     1       5.059   1.404  -1.819  0.00  0.00    +0.020 C 
ENDROOT
BRANCH   1   2
ATOM      2  N   UNL     1       6.071   0.704  -2.622  0.00  0.00    +0.396 N 
ATOM      3  C   UNL     1       5.480  -0.432  -3.336  0.00  0.00    -0.041 C 
ATOM      4  C   UNL     1       6.544  -1.201  -4.076  0.00  0.00    -0.061 A 
ATOM      5  C   UNL     1       6.151  -2.065  -5.088  0.00  0.00    +0.002 A 
ATOM      6  C   UNL     1       7.091  -2.792  -5.789  0.00  0.00    +0.000 A 
ATOM      7  C   UNL     1       8.433  -2.659  -5.483  0.00  0.00    +0.000 A 
ATOM      8  C   UNL     1       8.826  -1.798  -4.478  0.00  0.00    +0.004 A 
ATOM      9  C   UNL     1       7.882  -1.066  -3.774  0.00  0.00    -0.047 A 
ATOM     10  C   UNL     1       8.357  -0.131  -2.691  0.00  0.00    +0.029 C 
ATOM     11  C   UNL     1       7.190   0.250  -1.780  0.00  0.00    +0.024 C 
ATOM     12  H   UNL     1       6.457   1.415  -3.365  0.00  0.00    -0.080 HD
BRANCH  11  13
ATOM     13  C   UNL     1       7.611   1.363  -0.856  0.00  0.00    +0.197 C 
ATOM     14  O   UNL     1       7.532   2.517  -1.220  0.00  0.00    -0.278 OA
ATOM     15  N   UNL     1       8.077   1.075   0.376  0.00  0.00    -0.331 N 
ATOM     16  H   UNL     1       8.385   1.887   1.051  0.00  0.00    +0.145 HD
ATOM     17  H   UNL     1       8.149   0.029   0.706  0.00  0.00    +0.145 HD
ENDBRANCH  11  13
ENDBRANCH   1   2
BRANCH   1  19
ATOM     18  N   UNL     1       3.604   0.913   0.120  0.00  0.00    -0.310 N 
ATOM     19  C   UNL     1       4.545   0.483  -0.743  0.00  0.00    +0.197 C 
ATOM     20  O   UNL     1       4.979  -0.646  -0.653  0.00  0.00    -0.278 OA
ATOM     21  H   UNL     1       3.210   1.937   0.039  0.00  0.00    +0.149 HD
BRANCH  18  22
ATOM     22  C   UNL     1       3.104   0.018   1.166  0.00  0.00    +0.106 C 
BRANCH  22  23
ATOM     23  C   UNL     1       1.718   0.446   1.574  0.00  0.00    -0.027 A 
ATOM     24  C   UNL     1       0.749  -0.507   1.830  0.00  0.00    +0.009 A 
ATOM     25  C   UNL     1      -0.524  -0.117   2.198  0.00  0.00    +0.046 A 
ATOM     26  C   UNL     1      -0.827   1.231   2.323  0.00  0.00    +0.120 A 
ATOM     27  C   UNL     1       0.148   2.185   2.066  0.00  0.00    +0.046 A 
ATOM     28  C   UNL     1       1.418   1.790   1.692  0.00  0.00    +0.009 A 
BRANCH  26  29
ATOM     29  O   UNL     1      -2.077   1.617   2.691  0.00  0.00    -0.495 OA
ATOM     30  C   UNL     1      -3.029   0.581   2.939  0.00  0.00    +0.277 C 
ENDBRANCH  26  29
ENDBRANCH  22  23
BRANCH  22  32
ATOM     31  C   UNL     1       3.513  -0.855   3.471  0.00  0.00    +0.009 C 
ATOM     32  C   UNL     1       4.035   0.080   2.379  0.00  0.00    +0.008 C 
ATOM     33  C   UNL     1       5.442  -0.354   1.964  0.00  0.00    +0.009 C 
ENDBRANCH  22  32
ENDBRANCH  18  22
ENDBRANCH   1  19
TORSDOF 7
