REMARK  Name = ZINC40760856
REMARK  8 active torsions:
REMARK  status: ('A' for Active; 'I' for Inactive)
REMARK    1  A    between atoms: C_1  and  C_2
REMARK    2  A    between atoms: C_2  and  C_30
REMARK    3  A    between atoms: C_4  and  N_10
REMARK    4  A    between atoms: C_6  and  C_8
REMARK    5  A    between atoms: C_6  and  C_9
REMARK    6  A    between atoms: C_12  and  N_29
REMARK    7  A    between atoms: C_13  and  O_17
REMARK    8  A    between atoms: O_17  and  C_18
REMARK                            x       y       z     vdW  Elec       q    Type
REMARK                         _______ _______ _______ _____ _____    ______ ____
ROOT
ATOM      1  N   UNL     1       2.729  -0.941  -2.521  0.00  0.00    -0.325 N 
ATOM      2  C   UNL     1       3.915  -0.441  -3.043  0.00  0.00    +0.147 A 
ATOM      3  C   UNL     1       4.369  -0.858  -4.298  0.00  0.00    +0.128 A 
ATOM      4  C   UNL     1       5.565  -0.325  -4.775  0.00  0.00    +0.246 A 
ATOM      5  N   UNL     1       6.224   0.554  -4.025  0.00  0.00    -0.199 NA
ATOM      6  C   UNL     1       5.762   0.921  -2.847  0.00  0.00    +0.227 A 
ATOM      7  N   UNL     1       4.633   0.446  -2.361  0.00  0.00    -0.219 NA
ATOM      8  H   UNL     1       2.211  -1.588  -3.025  0.00  0.00    +0.148 HD
ENDROOT
BRANCH   1  12
ATOM      9  C   UNL     1       0.251   1.302   0.347  0.00  0.00    -0.010 C 
ATOM     10  C   UNL     1       0.229  -0.226   0.243  0.00  0.00    -0.072 C 
ATOM     11  C   UNL     1       0.741  -0.657  -1.127  0.00  0.00    +0.009 C 
ATOM     12  C   UNL     1       2.259  -0.491  -1.204  0.00  0.00    +0.069 C 
ATOM     13  C   UNL     1       2.890  -1.362  -0.119  0.00  0.00    +0.009 C 
ATOM     14  C   UNL     1       2.394  -0.937   1.259  0.00  0.00    -0.072 C 
ATOM     15  N   UNL     1       0.947  -0.841   1.346  0.00  0.00    +0.386 N 
ATOM     16  C   UNL     1       3.065   0.378   1.669  0.00  0.00    -0.010 C 
ATOM     17  C   UNL     1       2.855  -2.014   2.269  0.00  0.00    -0.010 C 
ATOM     18  C   UNL     1      -1.250  -0.666   0.343  0.00  0.00    -0.010 C 
ATOM     19  H   UNL     1       0.710  -0.336   2.205  0.00  0.00    -0.084 HD
ATOM     20  H   UNL     1       0.572  -1.784   1.486  0.00  0.00    -0.084 HD
ENDBRANCH   1  12
BRANCH   3  21
ATOM     21  N   UNL     1       3.641  -1.788  -5.056  0.00  0.00    -0.351 N 
ATOM     22  H   UNL     1       2.810  -2.151  -4.710  0.00  0.00    +0.143 HD
ATOM     23  H   UNL     1       3.969  -2.069  -5.924  0.00  0.00    +0.143 HD
ENDBRANCH   3  21
BRANCH   4  24
ATOM     24  O   UNL     1       6.050  -0.697  -5.986  0.00  0.00    -0.434 OA
BRANCH  24  25
ATOM     25  C   UNL     1       7.162  -0.069  -6.448  0.00  0.00    +0.156 A 
ATOM     26  C   UNL     1       7.048   1.020  -7.281  0.00  0.00    +0.049 A 
ATOM     27  C   UNL     1       8.179   1.673  -7.762  0.00  0.00    +0.019 A 
ATOM     28  C   UNL     1       9.430   1.252  -7.421  0.00  0.00    +0.027 A 
ATOM     29  C   UNL     1       9.587   0.144  -6.572  0.00  0.00    +0.018 A 
ATOM     30  C   UNL     1       8.443  -0.526  -6.072  0.00  0.00    +0.114 A 
ATOM     31  N   UNL     1       8.589  -1.577  -5.260  0.00  0.00    -0.251 NA
ATOM     32  C   UNL     1       9.776  -2.006  -4.907  0.00  0.00    +0.111 A 
ATOM     33  C   UNL     1      10.942  -1.390  -5.358  0.00  0.00    +0.020 A 
ATOM     34  C   UNL     1      10.864  -0.318  -6.200  0.00  0.00    +0.013 A 
ATOM     35 BR   UNL     1      10.950   2.157  -8.089  0.00  0.00    -0.050 Br
ENDBRANCH  24  25
ENDBRANCH   4  24
TORSDOF 4
