REMARK  Name = ZINC35966580
REMARK  11 active torsions:
REMARK  status: ('A' for Active; 'I' for Inactive)
REMARK    1  A    between atoms: C_1  and  C_2
REMARK    2  A    between atoms: C_2  and  N_3
REMARK    3  A    between atoms: C_9  and  C_11
REMARK    4  A    between atoms: C_11  and  C_13
REMARK    5  A    between atoms: C_11  and  N_16
REMARK    6  A    between atoms: C_13  and  C_14
REMARK    7  A    between atoms: C_13  and  C_15
REMARK    8  A    between atoms: C_22  and  C_30
REMARK    9  A    between atoms: N_27  and  C_28
REMARK   10  A    between atoms: C_28  and  C_29
REMARK   11  A    between atoms: C_35  and  C_36
REMARK                            x       y       z     vdW  Elec       q    Type
REMARK                         _______ _______ _______ _____ _____    ______ ____
ROOT
ATOM      1  N   UNL     1       4.288  -5.457  -3.004  0.00  0.00    -0.280 N 
ATOM      2  C   UNL     1       4.492  -6.082  -4.319  0.00  0.00    +0.160 C 
ATOM      3  C   UNL     1       5.958  -6.451  -4.351  0.00  0.00    +0.042 C 
ATOM      4  C   UNL     1       6.474  -6.058  -3.169  0.00  0.00    +0.058 C 
ATOM      5  C   UNL     1       5.475  -5.462  -2.372  0.00  0.00    +0.247 C 
ATOM      6  O   UNL     1       5.662  -5.012  -1.256  0.00  0.00    -0.270 OA
ATOM      7  C   UNL     1       7.948  -6.308  -2.925  0.00  0.00    +0.142 C 
ATOM      8  N   UNL     1       8.701  -6.965  -4.008  0.00  0.00    -0.288 N 
ATOM      9  C   UNL     1       8.043  -7.299  -5.135  0.00  0.00    +0.307 C 
ATOM     10  O   UNL     1       8.655  -7.842  -6.034  0.00  0.00    -0.252 OA
ATOM     11  N   UNL     1       6.736  -7.054  -5.297  0.00  0.00    -0.257 N 
ATOM     12  H   UNL     1       9.648  -7.152  -3.911  0.00  0.00    +0.151 HD
ENDROOT
BRANCH   7  13
ATOM     13  C   UNL     1       8.605  -4.982  -2.642  0.00  0.00    -0.011 A 
ATOM     14  C   UNL     1       8.765  -4.059  -3.659  0.00  0.00    +0.006 A 
ATOM     15  C   UNL     1       9.367  -2.842  -3.400  0.00  0.00    +0.000 A 
ATOM     16  C   UNL     1       9.808  -2.547  -2.123  0.00  0.00    +0.001 A 
ATOM     17  C   UNL     1       9.648  -3.470  -1.106  0.00  0.00    +0.013 A 
ATOM     18  C   UNL     1       9.041  -4.685  -1.365  0.00  0.00    +0.060 A 
BRANCH  18  19
ATOM     19  C   UNL     1       8.861  -5.689  -0.255  0.00  0.00    +0.418 C 
ATOM     20  F   UNL     1       9.410  -5.180   0.927  0.00  0.00    -0.166 F 
ATOM     21  F   UNL     1       7.497  -5.936  -0.067  0.00  0.00    -0.166 F 
ATOM     22  F   UNL     1       9.510  -6.881  -0.595  0.00  0.00    -0.166 F 
ENDBRANCH  18  19
ENDBRANCH   7  13
BRANCH  11  23
ATOM     23  C   UNL     1       6.108  -7.454  -6.559  0.00  0.00    +0.111 C 
ATOM     24  C   UNL     1       6.201  -6.304  -7.563  0.00  0.00    +0.025 C 
ENDBRANCH  11  23
BRANCH   1  25
ATOM     25  C   UNL     1       3.027  -4.922  -2.482  0.00  0.00    +0.165 C 
BRANCH  25  32
ATOM     26  N   UNL     1      -0.192  -1.222  -1.742  0.00  0.00    -0.300 NA
ATOM     27  C   UNL     1       1.057  -0.851  -1.064  0.00  0.00    +0.103 C 
ATOM     28  C   UNL     1       2.246  -1.200  -1.965  0.00  0.00    +0.123 C 
ATOM     29  N   UNL     1       2.144  -2.616  -2.348  0.00  0.00    -0.298 N 
ATOM     30  C   UNL     1       0.871  -3.095  -2.909  0.00  0.00    +0.123 C 
ATOM     31  C   UNL     1      -0.264  -2.672  -1.971  0.00  0.00    +0.103 C 
ATOM     32  C   UNL     1       3.188  -3.453  -2.188  0.00  0.00    +0.236 C 
ATOM     33  O   UNL     1       4.257  -3.024  -1.809  0.00  0.00    -0.274 OA
BRANCH  26  35
ATOM     34  C   UNL     1      -1.381   0.780  -0.985  0.00  0.00    +0.020 C 
ATOM     35  C   UNL     1      -1.361  -0.750  -0.989  0.00  0.00    +0.081 C 
ENDBRANCH  26  35
ENDBRANCH  25  32
BRANCH  25  36
ATOM     36  C   UNL     1       2.654  -5.662  -1.196  0.00  0.00    +0.012 C 
ATOM     37  C   UNL     1       1.304  -5.152  -0.688  0.00  0.00    +0.009 C 
ATOM     38  C   UNL     1       2.559  -7.162  -1.479  0.00  0.00    +0.009 C 
ENDBRANCH  25  36
ENDBRANCH   1  25
TORSDOF 7
