REMARK  Name = ZINC08835290
REMARK  8 active torsions:
REMARK  status: ('A' for Active; 'I' for Inactive)
REMARK    1  A    between atoms: C_1  and  C_2
REMARK    2  A    between atoms: C_9  and  C_11
REMARK    3  A    between atoms: C_14  and  N_17
REMARK    4  A    between atoms: N_17  and  C_18
REMARK    5  A    between atoms: C_18  and  N_20
REMARK    6  A    between atoms: C_21  and  C_23
REMARK    7  A    between atoms: C_26  and  N_32
REMARK    8  A    between atoms: C_27  and  N_29
REMARK                            x       y       z     vdW  Elec       q    Type
REMARK                         _______ _______ _______ _____ _____    ______ ____
ROOT
ATOM      1  C   UNL     1      -9.627   3.535   0.082  0.00  0.00    +0.141 C 
ATOM      2  S   UNL     1      -8.790   5.020   0.237  0.00  0.00    -0.018 S 
ENDROOT
BRANCH   1   3
ATOM      3  N   UNL     1     -10.971   3.506   0.179  0.00  0.00    -0.264 N 
ATOM      4  C   UNL     1     -11.656   4.646   0.399  0.00  0.00    +0.250 C 
ATOM      5  O   UNL     1     -11.061   5.700   0.509  0.00  0.00    -0.270 OA
ATOM      6  H   UNL     1     -11.446   2.664   0.091  0.00  0.00    +0.157 HD
BRANCH   4   7
ATOM      7  C   UNL     1     -13.126   4.614   0.505  0.00  0.00    +0.039 A 
ATOM      8  C   UNL     1     -13.812   3.402   0.373  0.00  0.00    +0.015 A 
ATOM      9  C   UNL     1     -15.173   3.372   0.478  0.00  0.00    +0.026 A 
ATOM     10  C   UNL     1     -15.884   4.548   0.705  0.00  0.00    +0.060 A 
ATOM     11  C   UNL     1     -15.210   5.759   0.832  0.00  0.00    +0.148 A 
ATOM     12  C   UNL     1     -13.838   5.795   0.733  0.00  0.00    +0.047 A 
BRANCH  10  13
ATOM     13  N   UNL     1     -17.271   4.511   0.804  0.00  0.00    -0.328 N 
ATOM     14  C   UNL     1     -17.870   3.812  -0.361  0.00  0.00    +0.105 C 
ATOM     15  C   UNL     1     -19.275   3.407   0.153  0.00  0.00    +0.020 C 
ATOM     16  C   UNL     1     -19.008   3.028   1.627  0.00  0.00    +0.020 C 
ATOM     17  C   UNL     1     -17.697   3.747   1.996  0.00  0.00    +0.105 C 
ENDBRANCH  10  13
BRANCH  11  18
ATOM     18  N   UNL     1     -15.969   7.007   1.073  0.00  0.00    +0.058 N 
ATOM     19  O   UNL     1     -15.390   8.079   1.085  0.00  0.00    -0.126 OA
ATOM     20  O   UNL     1     -17.172   6.963   1.258  0.00  0.00    -0.126 OA
ENDBRANCH  11  18
ENDBRANCH   4   7
ENDBRANCH   1   3
BRANCH   1  21
ATOM     21  N   UNL     1      -8.943   2.395  -0.138  0.00  0.00    -0.297 N 
ATOM     22  H   UNL     1      -9.420   1.567  -0.307  0.00  0.00    +0.154 HD
BRANCH  21  26
ATOM     23  C   UNL     1      -4.776   2.425  -0.093  0.00  0.00    +0.037 A 
ATOM     24  C   UNL     1      -5.460   1.690  -1.064  0.00  0.00    +0.015 A 
ATOM     25  C   UNL     1      -6.838   1.677  -1.072  0.00  0.00    +0.024 A 
ATOM     26  C   UNL     1      -7.547   2.405  -0.123  0.00  0.00    +0.033 A 
ATOM     27  C   UNL     1      -6.869   3.143   0.842  0.00  0.00    +0.024 A 
ATOM     28  C   UNL     1      -5.492   3.155   0.859  0.00  0.00    +0.015 A 
BRANCH  23  37
ATOM     29  C   UNL     1       2.490   1.597  -1.138  0.00  0.00    +0.044 C 
ATOM     30  C   UNL     1       1.169   2.045  -0.567  0.00  0.00    -0.047 A 
ATOM     31  C   UNL     1       1.145   2.888   0.534  0.00  0.00    +0.005 A 
ATOM     32  C   UNL     1      -0.054   3.305   1.066  0.00  0.00    +0.032 A 
ATOM     33  C   UNL     1      -1.254   2.872   0.496  0.00  0.00    +0.110 A 
ATOM     34  C   UNL     1      -1.224   2.023  -0.622  0.00  0.00    +0.156 A 
ATOM     35  C   UNL     1      -0.008   1.613  -1.144  0.00  0.00    +0.052 A 
ATOM     36  O   UNL     1      -2.513   1.781  -0.952  0.00  0.00    -0.435 OA
ATOM     37  C   UNL     1      -3.299   2.436  -0.077  0.00  0.00    +0.228 A 
ATOM     38  N   UNL     1      -2.563   3.093   0.783  0.00  0.00    -0.209 NA
ENDBRANCH  23  37
ENDBRANCH  21  26
ENDBRANCH   1  21
TORSDOF 7
