REMARK  Name = ZINC20347742
REMARK  13 active torsions:
REMARK  status: ('A' for Active; 'I' for Inactive)
REMARK    1  A    between atoms: C_1  and  C_2
REMARK    2  A    between atoms: C_5  and  C_8
REMARK    3  A    between atoms: C_8  and  C_10
REMARK    4  A    between atoms: C_10  and  S_11
REMARK    5  A    between atoms: S_11  and  C_12
REMARK    6  A    between atoms: C_13  and  C_38
REMARK    7  A    between atoms: C_14  and  C_29
REMARK    8  A    between atoms: C_16  and  C_20
REMARK    9  A    between atoms: C_17  and  C_19
REMARK   10  A    between atoms: N_22  and  C_23
REMARK   11  A    between atoms: C_32  and  O_37
REMARK   12  A    between atoms: C_33  and  O_35
REMARK   13  A    between atoms: O_35  and  C_36
REMARK                            x       y       z     vdW  Elec       q    Type
REMARK                         _______ _______ _______ _____ _____    ______ ____
ROOT
ATOM      1  C   UNL     1      -3.418  -2.272   0.711  0.00  0.00    +0.080 C 
ATOM      2  C   UNL     1      -3.578  -0.924   0.629  0.00  0.00    +0.069 C 
ATOM      3  C   UNL     1      -2.479  -0.038   0.120  0.00  0.00    +0.098 C 
ATOM      4  C   UNL     1      -1.165  -0.767   0.106  0.00  0.00    +0.044 C 
ATOM      5  C   UNL     1      -1.099  -2.104   0.207  0.00  0.00    +0.014 C 
ATOM      6  N   UNL     1      -2.233  -2.860   0.329  0.00  0.00    -0.312 N 
ATOM      7  C   UNL     1       0.246  -2.783   0.185  0.00  0.00    +0.061 C 
ATOM      8  H   UNL     1      -2.196  -3.939   0.120  0.00  0.00    +0.152 HD
ENDROOT
BRANCH   3   9
ATOM      9  C   UNL     1      -2.814   0.404  -1.281  0.00  0.00    -0.031 A 
ATOM     10  C   UNL     1      -2.952  -0.535  -2.287  0.00  0.00    +0.008 A 
ATOM     11  C   UNL     1      -3.266  -0.135  -3.572  0.00  0.00    +0.049 A 
ATOM     12  C   UNL     1      -3.431   1.211  -3.858  0.00  0.00    +0.158 A 
ATOM     13  C   UNL     1      -3.286   2.156  -2.847  0.00  0.00    +0.162 A 
ATOM     14  C   UNL     1      -2.978   1.748  -1.560  0.00  0.00    +0.054 A 
BRANCH  13  15
ATOM     15  O   UNL     1      -3.447   3.478  -3.123  0.00  0.00    -0.491 OA
ATOM     16  C   UNL     1      -3.283   4.392  -2.037  0.00  0.00    +0.277 C 
ENDBRANCH  13  15
BRANCH  12  17
ATOM     17  O   UNL     1      -3.733   1.607  -5.123  0.00  0.00    -0.503 OA
ATOM     18  H   UNL     1      -3.864   2.675  -5.349  0.00  0.00    +0.292 HD
ENDBRANCH  12  17
ENDBRANCH   3   9
BRANCH   4  19
ATOM     19  C   UNL     1       0.034  -0.024  -0.009  0.00  0.00    +0.247 C 
ATOM     20  O   UNL     1       1.100  -0.602  -0.121  0.00  0.00    -0.270 OA
ATOM     21  N   UNL     1      -0.004   1.323   0.005  0.00  0.00    -0.282 N 
ATOM     22  H   UNL     1      -0.972   1.846   0.033  0.00  0.00    +0.155 HD
BRANCH  21  23
ATOM     23  C   UNL     1       1.186   2.057  -0.017  0.00  0.00    +0.034 A 
ATOM     24  C   UNL     1       1.278   3.255   0.680  0.00  0.00    +0.023 A 
ATOM     25  C   UNL     1       2.457   3.974   0.660  0.00  0.00    +0.002 A 
ATOM     26  C   UNL     1       3.541   3.508  -0.061  0.00  0.00    +0.000 A 
ATOM     27  C   UNL     1       3.451   2.319  -0.760  0.00  0.00    +0.002 A 
ATOM     28  C   UNL     1       2.277   1.592  -0.740  0.00  0.00    +0.023 A 
ENDBRANCH  21  23
ENDBRANCH   4  19
BRANCH   2  29
ATOM     29  C   UNL     1      -4.818  -0.338   1.040  0.00  0.00    +0.098 C 
ATOM     30  N   UNL     1      -5.801   0.128   1.367  0.00  0.00    -0.191 NA
ENDBRANCH   2  29
BRANCH   1  31
ATOM     31  S   UNL     1      -4.737  -3.274   1.312  0.00  0.00    -0.101 S 
BRANCH  31  32
ATOM     32  C   UNL     1      -3.968  -4.909   1.196  0.00  0.00    +0.155 C 
BRANCH  32  33
ATOM     33  C   UNL     1      -4.941  -5.957   1.671  0.00  0.00    +0.173 C 
ATOM     34  O   UNL     1      -6.045  -5.631   2.051  0.00  0.00    -0.291 OA
BRANCH  33  39
ATOM     35  C   UNL     1      -3.417 -11.500   1.683  0.00  0.00    +0.044 C 
ATOM     36  C   UNL     1      -3.817 -10.047   1.680  0.00  0.00    -0.050 A 
ATOM     37  C   UNL     1      -5.078  -9.679   2.115  0.00  0.00    +0.004 A 
ATOM     38  C   UNL     1      -5.451  -8.351   2.115  0.00  0.00    +0.011 A 
ATOM     39  C   UNL     1      -4.551  -7.376   1.674  0.00  0.00    +0.018 A 
ATOM     40  C   UNL     1      -3.280  -7.756   1.232  0.00  0.00    +0.011 A 
ATOM     41  C   UNL     1      -2.920  -9.087   1.243  0.00  0.00    +0.004 A 
ENDBRANCH  33  39
ENDBRANCH  32  33
ENDBRANCH  31  32
ENDBRANCH   1  31
TORSDOF 10
