REMARK  Name = ZINC52838958
REMARK  13 active torsions:
REMARK  status: ('A' for Active; 'I' for Inactive)
REMARK    1  A    between atoms: C_1  and  C_2
REMARK    2  A    between atoms: C_2  and  C_3
REMARK    3  A    between atoms: C_2  and  N_4
REMARK    4  A    between atoms: C_5  and  C_7
REMARK    5  A    between atoms: C_12  and  N_13
REMARK    6  A    between atoms: C_14  and  C_16
REMARK    7  A    between atoms: C_16  and  N_17
REMARK    8  A    between atoms: N_17  and  C_18
REMARK    9  A    between atoms: C_18  and  C_20
REMARK   10  A    between atoms: C_18  and  C_25
REMARK   11  A    between atoms: C_25  and  C_26
REMARK   12  A    between atoms: C_25  and  C_27
REMARK   13  A    between atoms: C_25  and  C_28
REMARK                            x       y       z     vdW  Elec       q    Type
REMARK                         _______ _______ _______ _____ _____    ______ ____
ROOT
ATOM      1  N   UNL     1      -3.409  -0.668  -3.482  0.00  0.00    -0.286 N 
ATOM      2  C   UNL     1      -4.151  -0.527  -4.598  0.00  0.00    +0.200 C 
ATOM      3  O   UNL     1      -5.360  -0.600  -4.535  0.00  0.00    -0.278 OA
ATOM      4  H   UNL     1      -2.449  -0.530  -3.517  0.00  0.00    +0.155 HD
ENDROOT
BRANCH   1  10
ATOM      5  C   UNL     1      -3.432  -1.971  -1.439  0.00  0.00    +0.058 A 
ATOM      6  C   UNL     1      -4.051  -2.304  -0.232  0.00  0.00    +0.015 A 
ATOM      7  C   UNL     1      -5.234  -1.694   0.124  0.00  0.00    +0.001 A 
ATOM      8  C   UNL     1      -5.814  -0.751  -0.709  0.00  0.00    +0.002 A 
ATOM      9  C   UNL     1      -5.214  -0.412  -1.905  0.00  0.00    +0.024 A 
ATOM     10  C   UNL     1      -4.019  -1.012  -2.278  0.00  0.00    +0.045 A 
BRANCH   5  12
ATOM     11  N   UNL     1      -1.589  -3.518  -1.003  0.00  0.00    -0.309 N 
ATOM     12  C   UNL     1      -2.165  -2.620  -1.827  0.00  0.00    +0.246 C 
ATOM     13  O   UNL     1      -1.641  -2.346  -2.889  0.00  0.00    -0.270 OA
ATOM     14  H   UNL     1      -2.006  -3.737  -0.156  0.00  0.00    +0.149 HD
BRANCH  11  16
ATOM     15  C   UNL     1       0.844  -3.265  -0.993  0.00  0.00    +0.027 C 
ATOM     16  C   UNL     1      -0.331  -4.163  -1.388  0.00  0.00    +0.067 C 
ATOM     17  C   UNL     1      -0.207  -5.509  -0.671  0.00  0.00    +0.027 C 
ENDBRANCH  11  16
ENDBRANCH   5  12
ENDBRANCH   1  10
BRANCH   2  18
ATOM     18  C   UNL     1      -3.479  -0.277  -5.923  0.00  0.00    +0.016 C 
BRANCH  18  19
ATOM     19  N   UNL     1      -4.499  -0.161  -6.974  0.00  0.00    +0.390 N 
ATOM     20  H   UNL     1      -5.000  -1.032  -7.055  0.00  0.00    -0.084 HD
ATOM     21  H   UNL     1      -5.144   0.578  -6.737  0.00  0.00    -0.084 HD
BRANCH  19  22
ATOM     22  C   UNL     1      -3.849   0.150  -8.255  0.00  0.00    -0.028 C 
BRANCH  22  23
ATOM     23  C   UNL     1      -3.189   1.502  -8.168  0.00  0.00    -0.024 A 
ATOM     24  C   UNL     1      -1.995   1.903  -8.667  0.00  0.00    +0.009 A 
ATOM     25  C   UNL     1      -1.587   3.208  -8.465  0.00  0.00    +0.008 A 
ATOM     26  C   UNL     1      -2.395   4.049  -7.773  0.00  0.00    +0.045 A 
ATOM     27  S   UNL     1      -3.783   2.995  -7.389  0.00  0.00    -0.103 S 
ENDBRANCH  22  23
BRANCH  22  28
ATOM     28  C   UNL     1      -4.897   0.164  -9.369  0.00  0.00    -0.046 C 
ATOM     29  C   UNL     1      -5.989   1.180  -9.029  0.00  0.00    +0.009 C 
ATOM     30  C   UNL     1      -4.232   0.553 -10.690  0.00  0.00    +0.009 C 
ATOM     31  C   UNL     1      -5.519  -1.228  -9.502  0.00  0.00    +0.009 C 
ENDBRANCH  22  28
ENDBRANCH  19  22
ENDBRANCH  18  19
ENDBRANCH   2  18
TORSDOF 8
