REMARK  Name = ZINC12507748
REMARK  7 active torsions:
REMARK  status: ('A' for Active; 'I' for Inactive)
REMARK    1  A    between atoms: C_1  and  O_2
REMARK    2  A    between atoms: O_2  and  C_3
REMARK    3  A    between atoms: C_5  and  C_13
REMARK    4  A    between atoms: C_7  and  O_11
REMARK    5  A    between atoms: C_8  and  O_9
REMARK    6  A    between atoms: O_9  and  C_10
REMARK    7  A    between atoms: O_11  and  C_12
REMARK                            x       y       z     vdW  Elec       q    Type
REMARK                         _______ _______ _______ _____ _____    ______ ____
ROOT
ATOM      1  C   UNL     1       2.402   0.386  -4.230  0.00  0.00    +0.209 C 
ATOM      2  N   UNL     1       2.156  -0.237  -5.544  0.00  0.00    -0.294 N 
ATOM      3  C   UNL     1       2.968  -1.250  -5.981  0.00  0.00    +0.160 C 
ATOM      4  N   UNL     1       4.236  -1.324  -5.617  0.00  0.00    -0.302 N 
ATOM      5  C   UNL     1       4.709  -0.403  -4.742  0.00  0.00    +0.213 A 
ATOM      6  N   UNL     1       3.857   0.446  -4.058  0.00  0.00    -0.286 N 
ATOM      7  C   UNL     1       4.626   1.265  -3.264  0.00  0.00    +0.076 A 
ATOM      8  C   UNL     1       4.347   2.302  -2.383  0.00  0.00    +0.077 A 
ATOM      9  C   UNL     1       5.379   2.938  -1.720  0.00  0.00    +0.164 A 
ATOM     10  C   UNL     1       6.699   2.547  -1.928  0.00  0.00    +0.164 A 
ATOM     11  C   UNL     1       6.994   1.520  -2.800  0.00  0.00    +0.079 A 
ATOM     12  C   UNL     1       5.960   0.867  -3.477  0.00  0.00    +0.095 A 
ATOM     13  N   UNL     1       5.941  -0.160  -4.380  0.00  0.00    -0.212 NA
ATOM     14  O   UNL     1       7.704   3.188  -1.261  0.00  0.00    -0.488 OA
ATOM     15  C   UNL     1       7.936   4.547  -1.636  0.00  0.00    +0.232 C 
ATOM     16  C   UNL     1       6.999   5.481  -0.888  0.00  0.00    +0.082 C 
ATOM     17  C   UNL     1       5.541   5.257  -1.258  0.00  0.00    +0.232 C 
ATOM     18  O   UNL     1       5.108   3.957  -0.852  0.00  0.00    -0.488 OA
ATOM     19  N   UNL     1       2.454  -2.208  -6.813  0.00  0.00    -0.332 N 
ATOM     20  H   UNL     1       1.524  -2.164  -7.087  0.00  0.00    +0.145 HD
ATOM     21  H   UNL     1       3.019  -2.930  -7.129  0.00  0.00    +0.145 HD
ATOM     22  H   UNL     1       1.422   0.070  -6.098  0.00  0.00    +0.151 HD
ATOM     23  H   UNL     1       4.814  -2.020  -5.967  0.00  0.00    +0.171 HD
ENDROOT
BRANCH   1  26
ATOM     24  C   UNL     1       0.606  -0.608  -1.056  0.00  0.00    +0.166 A 
ATOM     25  C   UNL     1       1.173   0.160  -2.063  0.00  0.00    +0.057 A 
ATOM     26  C   UNL     1       1.787  -0.452  -3.139  0.00  0.00    +0.000 A 
ATOM     27  C   UNL     1       1.839  -1.831  -3.217  0.00  0.00    +0.057 A 
ATOM     28  C   UNL     1       1.275  -2.606  -2.215  0.00  0.00    +0.166 A 
ATOM     29  C   UNL     1       0.661  -1.994  -1.128  0.00  0.00    +0.204 A 
BRANCH  24  31
ATOM     30  C   UNL     1      -0.017   1.425   0.010  0.00  0.00    +0.277 C 
ATOM     31  O   UNL     1       0.002  -0.004   0.002  0.00  0.00    -0.491 OA
ENDBRANCH  24  31
BRANCH  29  32
ATOM     32  O   UNL     1       0.111  -2.751  -0.140  0.00  0.00    -0.488 OA
ATOM     33  C   UNL     1      -1.260  -3.124  -0.295  0.00  0.00    +0.277 C 
ENDBRANCH  29  32
BRANCH  28  34
ATOM     34  O   UNL     1       1.326  -3.963  -2.293  0.00  0.00    -0.491 OA
ATOM     35  C   UNL     1       1.977  -4.523  -3.435  0.00  0.00    +0.277 C 
ENDBRANCH  28  34
ENDBRANCH   1  26
TORSDOF 4
