REMARK  Name = ZINC20843010
REMARK  13 active torsions:
REMARK  status: ('A' for Active; 'I' for Inactive)
REMARK    1  A    between atoms: C_1  and  C_2
REMARK    2  A    between atoms: C_2  and  C_3
REMARK    3  A    between atoms: C_6  and  S_9
REMARK    4  A    between atoms: N_7  and  N_8
REMARK    5  A    between atoms: S_9  and  C_10
REMARK    6  A    between atoms: C_10  and  C_11
REMARK    7  A    between atoms: N_13  and  C_14
REMARK    8  A    between atoms: C_17  and  S_20
REMARK    9  A    between atoms: S_20  and  N_23
REMARK   10  A    between atoms: N_23  and  C_24
REMARK   11  A    between atoms: C_24  and  C_25
REMARK   12  A    between atoms: C_24  and  C_26
REMARK   13  A    between atoms: C_24  and  C_27
REMARK                            x       y       z     vdW  Elec       q    Type
REMARK                         _______ _______ _______ _____ _____    ______ ____
ROOT
ATOM      1  C   UNL     1      -3.120   2.580   6.237  0.00  0.00    +0.227 C 
ATOM      2  O   UNL     1      -3.007   1.377   6.130  0.00  0.00    -0.275 OA
ATOM      3  N   UNL     1      -2.648   3.389   5.268  0.00  0.00    -0.285 N 
ATOM      4  H   UNL     1      -2.679   4.481   5.400  0.00  0.00    +0.155 HD
ENDROOT
BRANCH   3   5
ATOM      5  C   UNL     1      -2.118   2.841   4.094  0.00  0.00    +0.034 A 
ATOM      6  C   UNL     1      -2.651   1.670   3.571  0.00  0.00    +0.025 A 
ATOM      7  C   UNL     1      -2.126   1.132   2.413  0.00  0.00    +0.030 A 
ATOM      8  C   UNL     1      -1.071   1.758   1.773  0.00  0.00    +0.105 A 
ATOM      9  C   UNL     1      -0.536   2.921   2.295  0.00  0.00    +0.030 A 
ATOM     10  C   UNL     1      -1.059   3.467   3.450  0.00  0.00    +0.025 A 
BRANCH   8  11
ATOM     11  S   UNL     1      -0.405   1.068   0.295  0.00  0.00    +0.059 S 
ATOM     12  O   UNL     1      -0.461  -0.344   0.445  0.00  0.00    -0.153 OA
ATOM     13  O   UNL     1       0.810   1.759   0.037  0.00  0.00    -0.153 OA
BRANCH  11  14
ATOM     14  N   UNL     1      -1.441   1.455  -0.936  0.00  0.00    -0.185 NA
ATOM     15  H   UNL     1      -2.190   0.717  -1.261  0.00  0.00    +0.149 HD
BRANCH  14  16
ATOM     16  C   UNL     1      -1.506   2.831  -1.435  0.00  0.00    +0.032 C 
ATOM     17  C   UNL     1      -0.189   3.184  -2.130  0.00  0.00    +0.029 C 
ATOM     18  C   UNL     1      -2.659   2.960  -2.431  0.00  0.00    +0.029 C 
ATOM     19  C   UNL     1      -1.735   3.788  -0.262  0.00  0.00    +0.029 C 
ENDBRANCH  14  16
ENDBRANCH  11  14
ENDBRANCH   8  11
ENDBRANCH   3   5
BRANCH   1  20
ATOM     20  C   UNL     1      -3.788   3.169   7.452  0.00  0.00    +0.173 C 
BRANCH  20  21
ATOM     21  S   UNL     1      -4.309   1.836   8.560  0.00  0.00    -0.075 S 
BRANCH  21  25
ATOM     22  C   UNL     1      -6.034   3.389  11.696  0.00  0.00    +0.151 A 
ATOM     23  N   UNL     1      -5.715   4.443  10.998  0.00  0.00    -0.132 NA
ATOM     24  N   UNL     1      -5.122   4.091   9.914  0.00  0.00    -0.121 NA
ATOM     25  C   UNL     1      -5.037   2.783   9.856  0.00  0.00    +0.209 A 
ATOM     26  N   UNL     1      -5.613   2.294  10.993  0.00  0.00    -0.228 N 
BRANCH  26  27
ATOM     27  N   UNL     1      -5.742   0.983  11.355  0.00  0.00    -0.295 N 
ATOM     28  H   UNL     1      -5.358   0.190  10.696  0.00  0.00    +0.163 HD
ATOM     29  H   UNL     1      -6.230   0.720  12.305  0.00  0.00    +0.163 HD
ENDBRANCH  26  27
BRANCH  22  31
ATOM     30  C   UNL     1      -5.698   3.436  14.152  0.00  0.00    +0.012 C 
ATOM     31  C   UNL     1      -6.735   3.380  13.029  0.00  0.00    +0.074 C 
ENDBRANCH  22  31
ENDBRANCH  21  25
ENDBRANCH  20  21
ENDBRANCH   1  20
TORSDOF 9
