REMARK  Name = ZINC16034001
REMARK  7 active torsions:
REMARK  status: ('A' for Active; 'I' for Inactive)
REMARK    1  A    between atoms: C_1  and  C_2
REMARK    2  A    between atoms: C_2  and  C_4
REMARK    3  A    between atoms: C_2  and  N_10
REMARK    4  A    between atoms: C_11  and  C_13
REMARK    5  A    between atoms: C_13  and  C_15
REMARK    6  A    between atoms: C_13  and  N_16
REMARK    7  A    between atoms: C_17  and  C_19
REMARK                            x       y       z     vdW  Elec       q    Type
REMARK                         _______ _______ _______ _____ _____    ______ ____
ROOT
ATOM      1  N   UNL     1      -2.286  -0.573  -0.747  0.00  0.00    -0.306 N 
ATOM      2  C   UNL     1      -1.387  -0.531   0.256  0.00  0.00    +0.200 C 
ATOM      3  O   UNL     1      -1.696  -0.917   1.364  0.00  0.00    -0.278 OA
ATOM      4  H   UNL     1      -2.038  -0.264  -1.633  0.00  0.00    +0.149 HD
ENDROOT
BRANCH   2   5
ATOM      5  C   UNL     1       0.002  -0.004   0.002  0.00  0.00    +0.021 C 
ATOM      6  C   UNL     1      -0.019   1.525   0.010  0.00  0.00    +0.028 C 
ATOM      7  C   UNL     1       1.391   2.058  -0.000  0.00  0.00    -0.047 A 
ATOM      8  C   UNL     1       1.593   3.385  -0.347  0.00  0.00    +0.004 A 
ATOM      9  C   UNL     1       2.868   3.915  -0.366  0.00  0.00    +0.000 A 
ATOM     10  C   UNL     1       3.949   3.118  -0.037  0.00  0.00    +0.000 A 
ATOM     11  C   UNL     1       3.748   1.796   0.307  0.00  0.00    +0.002 A 
ATOM     12  C   UNL     1       2.468   1.262   0.325  0.00  0.00    -0.061 A 
ATOM     13  C   UNL     1       2.301  -0.186   0.703  0.00  0.00    -0.045 C 
ATOM     14  N   UNL     1       0.906  -0.467   1.071  0.00  0.00    +0.389 N 
ATOM     15  H   UNL     1       0.786  -1.478   1.204  0.00  0.00    -0.084 HD
ATOM     16  H   UNL     1       0.679   0.023   1.945  0.00  0.00    -0.084 HD
ENDBRANCH   2   5
BRANCH   1  17
ATOM     17  C   UNL     1      -3.636  -1.085  -0.500  0.00  0.00    +0.156 C 
ATOM     18  C   UNL     1      -3.635  -2.609  -0.633  0.00  0.00    +0.038 C 
BRANCH  17  20
ATOM     19  N   UNL     1      -5.896  -0.824  -1.472  0.00  0.00    -0.307 N 
ATOM     20  C   UNL     1      -4.589  -0.493  -1.506  0.00  0.00    +0.234 C 
ATOM     21  O   UNL     1      -4.181   0.280  -2.347  0.00  0.00    -0.274 OA
ATOM     22  H   UNL     1      -6.222  -1.442  -0.800  0.00  0.00    +0.149 HD
BRANCH  19  24
ATOM     23  C   UNL     1      -6.795  -1.085  -3.731  0.00  0.00    +0.033 C 
ATOM     24  C   UNL     1      -6.822  -0.249  -2.450  0.00  0.00    +0.100 C 
BRANCH  24  25
ATOM     25  C   UNL     1      -8.217  -0.248  -1.880  0.00  0.00    -0.027 A 
ATOM     26  C   UNL     1      -8.665  -1.331  -1.147  0.00  0.00    +0.005 A 
ATOM     27  C   UNL     1      -9.944  -1.328  -0.621  0.00  0.00    +0.000 A 
ATOM     28  C   UNL     1     -10.777  -0.246  -0.835  0.00  0.00    +0.000 A 
ATOM     29  C   UNL     1     -10.330   0.835  -1.571  0.00  0.00    +0.000 A 
ATOM     30  C   UNL     1      -9.051   0.834  -2.094  0.00  0.00    +0.005 A 
ENDBRANCH  24  25
ENDBRANCH  19  24
ENDBRANCH  17  20
ENDBRANCH   1  17
TORSDOF 5
