REMARK  Name = ZINC52909992
REMARK  10 active torsions:
REMARK  status: ('A' for Active; 'I' for Inactive)
REMARK    1  A    between atoms: C_1  and  C_2
REMARK    2  A    between atoms: C_2  and  C_4
REMARK    3  A    between atoms: C_2  and  N_16
REMARK    4  A    between atoms: C_10  and  C_13
REMARK    5  A    between atoms: C_19  and  N_22
REMARK    6  A    between atoms: C_23  and  O_25
REMARK    7  A    between atoms: O_25  and  C_26
REMARK    8  A    between atoms: C_26  and  C_27
REMARK    9  A    between atoms: C_26  and  C_28
REMARK   10  A    between atoms: C_26  and  C_29
REMARK                            x       y       z     vdW  Elec       q    Type
REMARK                         _______ _______ _______ _____ _____    ______ ____
ROOT
ATOM      1  N   UNL     1       0.688  -0.607   1.151  0.00  0.00    +0.387 N 
ATOM      2  C   UNL     1       0.720  -2.066   0.991  0.00  0.00    -0.076 C 
ATOM      3  C   UNL     1       1.367  -2.704   2.222  0.00  0.00    +0.004 C 
ATOM      4  C   UNL     1       2.795  -2.174   2.375  0.00  0.00    +0.073 C 
ATOM      5  C   UNL     1       2.755  -0.645   2.466  0.00  0.00    +0.004 C 
ATOM      6  C   UNL     1       2.057  -0.084   1.225  0.00  0.00    -0.076 C 
ATOM      7  H   UNL     1       0.193  -0.375   1.999  0.00  0.00    -0.081 HD
ENDROOT
BRANCH   4   8
ATOM      8  N   UNL     1       3.394  -2.722   3.594  0.00  0.00    -0.278 N 
ATOM      9  C   UNL     1       4.733  -2.830   3.698  0.00  0.00    +0.401 C 
ATOM     10  O   UNL     1       5.444  -2.473   2.779  0.00  0.00    -0.226 OA
ATOM     11  H   UNL     1       2.826  -3.007   4.327  0.00  0.00    +0.152 HD
BRANCH   9  12
ATOM     12  O   UNL     1       5.283  -3.333   4.819  0.00  0.00    -0.445 OA
BRANCH  12  13
ATOM     13  C   UNL     1       6.709  -3.419   4.859  0.00  0.00    +0.107 C 
ATOM     14  C   UNL     1       7.309  -2.021   4.700  0.00  0.00    +0.055 C 
ATOM     15  C   UNL     1       7.146  -4.011   6.201  0.00  0.00    +0.055 C 
ATOM     16  C   UNL     1       7.199  -4.317   3.722  0.00  0.00    +0.055 C 
ENDBRANCH  12  13
ENDBRANCH   9  12
ENDBRANCH   4   8
BRANCH   1  18
ATOM     17  C   UNL     1      -0.029   1.516   0.163  0.00  0.00    -0.004 C 
ATOM     18  C   UNL     1      -0.003  -0.006   0.002  0.00  0.00    +0.016 C 
BRANCH  18  19
ATOM     19  C   UNL     1      -1.415  -0.528  -0.064  0.00  0.00    +0.202 C 
ATOM     20  O   UNL     1      -1.974  -0.896   0.947  0.00  0.00    -0.277 OA
ATOM     21  N   UNL     1      -2.057  -0.586  -1.248  0.00  0.00    -0.302 N 
ATOM     22  C   UNL     1      -1.433  -0.049  -2.465  0.00  0.00    +0.108 C 
ATOM     23  C   UNL     1      -2.400   0.943  -3.119  0.00  0.00    +0.020 C 
ATOM     24  C   UNL     1      -3.748   0.257  -3.354  0.00  0.00    +0.016 C 
ATOM     25  C   UNL     1      -4.339  -0.182  -2.012  0.00  0.00    +0.092 C 
ATOM     26  C   UNL     1      -3.392  -1.192  -1.347  0.00  0.00    +0.120 C 
BRANCH  25  27
ATOM     27  C   UNL     1      -5.681  -0.829  -2.242  0.00  0.00    +0.215 C 
ATOM     28  O   UNL     1      -5.866  -1.979  -1.904  0.00  0.00    -0.276 OA
ATOM     29  N   UNL     1      -6.676  -0.129  -2.823  0.00  0.00    -0.329 N 
ATOM     30  H   UNL     1      -6.528   0.790  -3.093  0.00  0.00    +0.145 HD
ATOM     31  H   UNL     1      -7.539  -0.546  -2.970  0.00  0.00    +0.145 HD
ENDBRANCH  25  27
ENDBRANCH  18  19
ENDBRANCH   1  18
TORSDOF 6
