REMARK  Name = ZINC63140593
REMARK  8 active torsions:
REMARK  status: ('A' for Active; 'I' for Inactive)
REMARK    1  A    between atoms: C_1  and  O_2
REMARK    2  A    between atoms: O_2  and  C_3
REMARK    3  A    between atoms: C_6  and  C_9
REMARK    4  A    between atoms: C_9  and  C_10
REMARK    5  A    between atoms: C_10  and  N_11
REMARK    6  A    between atoms: C_31  and  C_33
REMARK    7  A    between atoms: C_38  and  O_39
REMARK    8  A    between atoms: O_39  and  C_40
REMARK                            x       y       z     vdW  Elec       q    Type
REMARK                         _______ _______ _______ _____ _____    ______ ____
ROOT
ATOM      1  N   UNL     1       4.513  -3.009  -5.522  0.00  0.00    -0.291 N 
ATOM      2  C   UNL     1       4.543  -4.456  -5.391  0.00  0.00    +0.203 C 
ATOM      3  C   UNL     1       5.293  -5.109  -6.504  0.00  0.00    +0.234 C 
ATOM      4  O   UNL     1       5.381  -6.318  -6.491  0.00  0.00    -0.274 OA
ATOM      5  N   UNL     1       5.875  -4.454  -7.516  0.00  0.00    -0.279 N 
ATOM      6  C   UNL     1       5.821  -3.002  -7.650  0.00  0.00    +0.167 C 
ATOM      7  C   UNL     1       5.077  -2.349  -6.533  0.00  0.00    +0.237 C 
ATOM      8  O   UNL     1       4.983  -1.140  -6.544  0.00  0.00    -0.274 OA
ATOM      9  C   UNL     1       5.170  -2.623  -8.993  0.00  0.00    +0.065 C 
ATOM     10  C   UNL     1       5.810  -3.496 -10.043  0.00  0.00    -0.034 C 
ATOM     11  C   UNL     1       6.378  -3.201 -11.206  0.00  0.00    -0.001 A 
ATOM     12  C   UNL     1       6.494  -1.935 -11.947  0.00  0.00    +0.010 A 
ATOM     13  C   UNL     1       7.175  -1.988 -13.123  0.00  0.00    +0.001 A 
ATOM     14  C   UNL     1       7.746  -3.160 -13.629  0.00  0.00    +0.002 A 
ATOM     15  C   UNL     1       7.679  -4.370 -13.018  0.00  0.00    +0.026 A 
ATOM     16  C   UNL     1       6.982  -4.443 -11.778  0.00  0.00    +0.043 A 
ATOM     17  N   UNL     1       6.748  -5.461 -11.003  0.00  0.00    -0.375 N 
ATOM     18  C   UNL     1       5.922  -5.007  -9.883  0.00  0.00    +0.131 C 
ATOM     19  C   UNL     1       6.598  -5.254  -8.531  0.00  0.00    +0.137 C 
ATOM     20  H   UNL     1       7.066  -6.366 -11.143  0.00  0.00    +0.160 HD
ENDROOT
BRANCH  19  21
ATOM     21  C   UNL     1       8.039  -4.818  -8.593  0.00  0.00    +0.017 A 
ATOM     22  C   UNL     1       8.352  -3.502  -8.877  0.00  0.00    +0.009 A 
ATOM     23  C   UNL     1       9.674  -3.102  -8.934  0.00  0.00    +0.001 A 
ATOM     24  C   UNL     1      10.686  -4.017  -8.707  0.00  0.00    +0.004 A 
ATOM     25  C   UNL     1      10.378  -5.333  -8.423  0.00  0.00    +0.046 A 
ATOM     26  C   UNL     1       9.052  -5.736  -8.360  0.00  0.00    +0.125 A 
BRANCH  26  27
ATOM     27  O   UNL     1       8.747  -7.029  -8.075  0.00  0.00    -0.495 OA
ATOM     28  C   UNL     1       9.841  -7.919  -7.846  0.00  0.00    +0.277 C 
ENDBRANCH  26  27
ENDBRANCH  19  21
BRANCH   1  29
ATOM     29  C   UNL     1       3.820  -2.234  -4.490  0.00  0.00    +0.113 C 
BRANCH  29  30
ATOM     30  C   UNL     1       2.350  -2.064  -4.881  0.00  0.00    +0.054 C 
BRANCH  30  34
ATOM     31  C   UNL     1       0.328   0.197  -1.871  0.00  0.00    +0.120 A 
ATOM     32  C   UNL     1       0.928   0.845  -2.941  0.00  0.00    +0.046 A 
ATOM     33  C   UNL     1       1.582   0.112  -3.912  0.00  0.00    +0.007 A 
ATOM     34  C   UNL     1       1.637  -1.266  -3.820  0.00  0.00    -0.046 A 
ATOM     35  C   UNL     1       1.039  -1.915  -2.755  0.00  0.00    +0.007 A 
ATOM     36  C   UNL     1       0.390  -1.186  -1.778  0.00  0.00    +0.046 A 
BRANCH  31  38
ATOM     37  C   UNL     1      -0.339   2.336  -1.075  0.00  0.00    +0.277 C 
ATOM     38  O   UNL     1      -0.315   0.916  -0.914  0.00  0.00    -0.495 OA
ENDBRANCH  31  38
ENDBRANCH  30  34
ENDBRANCH  29  30
ENDBRANCH   1  29
TORSDOF 6
