REMARK  Name = ZINC48893846
REMARK  7 active torsions:
REMARK  status: ('A' for Active; 'I' for Inactive)
REMARK    1  A    between atoms: C_1  and  C_2
REMARK    2  A    between atoms: C_4  and  N_9
REMARK    3  A    between atoms: N_9  and  C_10
REMARK    4  A    between atoms: C_10  and  C_12
REMARK    5  A    between atoms: C_10  and  C_13
REMARK    6  A    between atoms: C_13  and  C_14
REMARK    7  A    between atoms: C_14  and  C_15
REMARK                            x       y       z     vdW  Elec       q    Type
REMARK                         _______ _______ _______ _____ _____    ______ ____
ROOT
ATOM      1  N   UNL     1       0.030  -2.826  -2.330  0.00  0.00    -0.326 N 
ATOM      2  H   UNL     1       0.043  -3.795  -2.296  0.00  0.00    +0.148 HD
ENDROOT
BRANCH   1   6
ATOM      3  C   UNL     1      -0.018   1.503   0.010  0.00  0.00    +0.063 C 
ATOM      4  C   UNL     1       0.002  -0.004   0.002  0.00  0.00    +0.019 A 
ATOM      5  C   UNL     1       0.006  -0.696  -1.194  0.00  0.00    +0.064 A 
ATOM      6  C   UNL     1       0.026  -2.091  -1.156  0.00  0.00    +0.124 A 
ATOM      7  N   UNL     1       0.040  -2.705   0.023  0.00  0.00    -0.201 NA
ATOM      8  C   UNL     1       0.035  -2.005   1.148  0.00  0.00    +0.192 A 
ATOM      9  N   UNL     1       0.022  -0.680   1.141  0.00  0.00    -0.332 N 
ATOM     10  N   UNL     1       0.051  -2.674   2.359  0.00  0.00    -0.329 N 
ATOM     11  H   UNL     1       0.064  -3.643   2.377  0.00  0.00    +0.145 HD
ATOM     12  H   UNL     1       0.048  -2.173   3.190  0.00  0.00    +0.145 HD
ATOM     13  H   UNL     1       0.023  -0.198   1.983  0.00  0.00    +0.168 HD
ENDBRANCH   1   6
BRANCH   1  14
ATOM     14  C   UNL     1       0.013  -2.139  -3.624  0.00  0.00    +0.069 C 
ATOM     15  C   UNL     1       1.443  -1.769  -4.023  0.00  0.00    +0.028 C 
BRANCH  14  16
ATOM     16  C   UNL     1      -0.589  -3.063  -4.685  0.00  0.00    +0.026 C 
BRANCH  16  17
ATOM     17  C   UNL     1      -2.058  -3.333  -4.351  0.00  0.00    +0.037 C 
BRANCH  17  18
ATOM     18  C   UNL     1      -2.651  -4.243  -5.396  0.00  0.00    -0.047 A 
ATOM     19  C   UNL     1      -3.240  -3.707  -6.525  0.00  0.00    +0.005 A 
ATOM     20  C   UNL     1      -3.784  -4.541  -7.484  0.00  0.00    +0.015 A 
ATOM     21  C   UNL     1      -3.739  -5.913  -7.312  0.00  0.00    +0.018 A 
ATOM     22  C   UNL     1      -3.149  -6.449  -6.182  0.00  0.00    +0.015 A 
ATOM     23  C   UNL     1      -2.600  -5.614  -5.226  0.00  0.00    +0.005 A 
ATOM     24 BR   UNL     1      -4.483  -7.055  -8.623  0.00  0.00    -0.050 Br
ENDBRANCH  17  18
ENDBRANCH  16  17
ENDBRANCH  14  16
ENDBRANCH   1  14
TORSDOF 5
