REMARK  Name = ZINC58950135
REMARK  7 active torsions:
REMARK  status: ('A' for Active; 'I' for Inactive)
REMARK    1  A    between atoms: C_1  and  O_2
REMARK    2  A    between atoms: O_2  and  C_3
REMARK    3  A    between atoms: C_3  and  C_5
REMARK    4  A    between atoms: C_6  and  N_27
REMARK    5  A    between atoms: C_17  and  C_19
REMARK    6  A    between atoms: C_22  and  S_25
REMARK    7  A    between atoms: S_25  and  C_26
REMARK                            x       y       z     vdW  Elec       q    Type
REMARK                         _______ _______ _______ _____ _____    ______ ____
ROOT
ATOM      1  C   UNL     1       0.652  -2.004  -1.123  0.00  0.00    +0.105 C 
ATOM      2  C   UNL     1       1.176  -2.595  -2.227  0.00  0.00    +0.197 C 
ATOM      3  O   UNL     1       1.259  -3.930  -2.346  0.00  0.00    -0.423 OA
ATOM      4  C   UNL     1       0.495  -4.727  -1.569  0.00  0.00    +0.236 A 
ATOM      5  C   UNL     1      -0.075  -4.247  -0.407  0.00  0.00    +0.091 A 
ATOM      6  C   UNL     1      -0.861  -5.109   0.370  0.00  0.00    +0.262 A 
ATOM      7  O   UNL     1      -1.379  -4.715   1.403  0.00  0.00    -0.267 OA
ATOM      8  N   UNL     1      -1.032  -6.382  -0.044  0.00  0.00    -0.273 N 
ATOM      9  H   UNL     1      -1.572  -6.994   0.480  0.00  0.00    +0.173 HD
ATOM     10  C   UNL     1      -0.448  -6.805  -1.195  0.00  0.00    +0.352 A 
ATOM     11  O   UNL     1      -0.629  -8.081  -1.596  0.00  0.00    -0.245 OA
ATOM     12  N   UNL     1       0.288  -6.001  -1.927  0.00  0.00    -0.157 NA
ATOM     13  C   UNL     1       0.141  -2.823   0.029  0.00  0.00    +0.101 C 
ENDROOT
BRANCH  13  14
ATOM     14  C   UNL     1       1.145  -2.787   1.153  0.00  0.00    -0.035 A 
ATOM     15  C   UNL     1       2.430  -3.255   0.945  0.00  0.00    +0.005 A 
ATOM     16  C   UNL     1       3.352  -3.224   1.972  0.00  0.00    +0.015 A 
ATOM     17  C   UNL     1       2.988  -2.722   3.215  0.00  0.00    +0.008 A 
ATOM     18  C   UNL     1       1.696  -2.252   3.421  0.00  0.00    +0.015 A 
ATOM     19  C   UNL     1       0.781  -2.282   2.387  0.00  0.00    +0.005 A 
BRANCH  17  20
ATOM     20  S   UNL     1       4.162  -2.681   4.529  0.00  0.00    -0.129 S 
ATOM     21  C   UNL     1       3.243  -1.959   5.916  0.00  0.00    +0.090 C 
ENDBRANCH  17  20
ENDBRANCH  13  14
BRANCH   2  22
ATOM     22  N   UNL     1       1.633  -1.807  -3.248  0.00  0.00    -0.329 N 
ATOM     23  H   UNL     1       1.651  -0.842  -3.147  0.00  0.00    +0.145 HD
ATOM     24  H   UNL     1       1.940  -2.213  -4.074  0.00  0.00    +0.145 HD
ENDBRANCH   2  22
BRANCH   1  25
ATOM     25  C   UNL     1       0.592  -0.604  -1.054  0.00  0.00    +0.341 C 
ATOM     26  O   UNL     1      -0.458  -0.027  -1.272  0.00  0.00    -0.245 OA
BRANCH  25  28
ATOM     27  C   UNL     1       1.566   1.527  -0.691  0.00  0.00    +0.280 C 
ATOM     28  O   UNL     1       1.700   0.105  -0.744  0.00  0.00    -0.465 OA
ENDBRANCH  25  28
ENDBRANCH   1  25
TORSDOF 5
