REMARK  Name = ZINC43230742
REMARK  12 active torsions:
REMARK  status: ('A' for Active; 'I' for Inactive)
REMARK    1  A    between atoms: C_1  and  C_2
REMARK    2  A    between atoms: C_2  and  N_3
REMARK    3  A    between atoms: N_3  and  C_4
REMARK    4  A    between atoms: N_3  and  C_6
REMARK    5  A    between atoms: C_4  and  C_5
REMARK    6  A    between atoms: C_6  and  C_8
REMARK    7  A    between atoms: C_6  and  C_22
REMARK    8  A    between atoms: C_8  and  N_9
REMARK    9  A    between atoms: N_12  and  N_13
REMARK   10  A    between atoms: N_13  and  C_14
REMARK   11  A    between atoms: C_14  and  N_16
REMARK   12  A    between atoms: N_16  and  C_17
REMARK                            x       y       z     vdW  Elec       q    Type
REMARK                         _______ _______ _______ _____ _____    ______ ____
ROOT
ATOM      1  N   UNL     1       0.185  -2.374  -1.890  0.00  0.00    -0.299 N 
ATOM      2  C   UNL     1       0.688  -3.420  -1.206  0.00  0.00    +0.316 C 
ATOM      3  O   UNL     1       1.608  -3.253  -0.428  0.00  0.00    -0.251 OA
ATOM      4  N   UNL     1       0.173  -4.653  -1.384  0.00  0.00    -0.219 N 
ATOM      5  H   UNL     1      -0.595  -2.493  -2.454  0.00  0.00    +0.150 HD
ATOM      6  H   UNL     1       0.485  -5.393  -0.840  0.00  0.00    +0.174 HD
ENDROOT
BRANCH   4   7
ATOM      7  N   UNL     1      -0.815  -4.865  -2.355  0.00  0.00    -0.245 N 
ATOM      8  H   UNL     1      -1.072  -4.144  -2.951  0.00  0.00    +0.172 HD
BRANCH   7   9
ATOM      9  C   UNL     1      -1.407  -6.071  -2.461  0.00  0.00    +0.147 C 
ATOM     10  S   UNL     1      -2.614  -6.331  -3.647  0.00  0.00    -0.017 S 
BRANCH   9  11
ATOM     11  N   UNL     1      -1.049  -7.073  -1.633  0.00  0.00    -0.323 N 
ATOM     12  H   UNL     1      -0.366  -6.926  -0.961  0.00  0.00    +0.148 HD
BRANCH  11  13
ATOM     13  C   UNL     1      -1.693  -8.384  -1.748  0.00  0.00    +0.072 C 
ATOM     14  C   UNL     1      -2.973  -8.421  -0.888  0.00  0.00    +0.022 C 
ATOM     15  C   UNL     1      -3.003  -9.860  -0.314  0.00  0.00    +0.002 C 
ATOM     16  C   UNL     1      -1.508 -10.143  -0.023  0.00  0.00    +0.002 C 
ATOM     17  C   UNL     1      -0.762  -9.479  -1.198  0.00  0.00    +0.022 C 
ENDBRANCH  11  13
ENDBRANCH   9  11
ENDBRANCH   7   9
ENDBRANCH   4   7
BRANCH   1  18
ATOM     18  C   UNL     1       0.814  -1.056  -1.780  0.00  0.00    +0.095 C 
BRANCH  18  19
ATOM     19  C   UNL     1      -0.027  -0.024  -2.533  0.00  0.00    -0.020 C 
BRANCH  19  20
ATOM     20  C   UNL     1       0.552   1.351  -2.319  0.00  0.00    -0.059 A 
ATOM     21  C   UNL     1       1.879   1.492  -1.956  0.00  0.00    +0.002 A 
ATOM     22  C   UNL     1       2.410   2.753  -1.760  0.00  0.00    +0.000 A 
ATOM     23  C   UNL     1       1.616   3.872  -1.927  0.00  0.00    +0.000 A 
ATOM     24  C   UNL     1       0.290   3.730  -2.291  0.00  0.00    +0.000 A 
ATOM     25  C   UNL     1      -0.240   2.470  -2.491  0.00  0.00    +0.002 A 
ENDBRANCH  19  20
BRANCH  19  26
ATOM     26  N   UNL     1      -1.407  -0.057  -2.031  0.00  0.00    +0.385 N 
ATOM     27  H   UNL     1      -1.642  -0.998  -1.753  0.00  0.00    -0.081 HD
BRANCH  26  29
ATOM     28  C   UNL     1      -0.517   0.430   0.198  0.00  0.00    -0.017 C 
ATOM     29  C   UNL     1      -1.529   0.840  -0.874  0.00  0.00    -0.081 C 
ENDBRANCH  26  29
BRANCH  26  30
ATOM     30  C   UNL     1      -2.325   0.383  -3.091  0.00  0.00    -0.081 C 
ATOM     31  C   UNL     1      -2.358  -0.665  -4.205  0.00  0.00    -0.017 C 
ENDBRANCH  26  30
ENDBRANCH  19  26
ENDBRANCH  18  19
ENDBRANCH   1  18
TORSDOF 10
