REMARK  Name = ZINC09447382
REMARK  5 active torsions:
REMARK  status: ('A' for Active; 'I' for Inactive)
REMARK    1  A    between atoms: C_3  and  C_9
REMARK    2  A    between atoms: C_6  and  C_7
REMARK    3  A    between atoms: N_11  and  C_12
REMARK    4  A    between atoms: C_15  and  S_18
REMARK    5  A    between atoms: S_18  and  N_21
REMARK                            x       y       z     vdW  Elec       q    Type
REMARK                         _______ _______ _______ _____ _____    ______ ____
ROOT
ATOM      1  C   UNL     1       1.208   2.019   0.039  0.00  0.00    +0.034 A 
ATOM      2  C   UNL     1       2.397   1.309  -0.057  0.00  0.00    +0.025 A 
ATOM      3  C   UNL     1       3.604   1.980  -0.033  0.00  0.00    +0.030 A 
ATOM      4  C   UNL     1       3.629   3.357   0.098  0.00  0.00    +0.109 A 
ATOM      5  C   UNL     1       2.447   4.066   0.199  0.00  0.00    +0.030 A 
ATOM      6  C   UNL     1       1.236   3.402   0.170  0.00  0.00    +0.025 A 
ENDROOT
BRANCH   1   9
ATOM      7  C   UNL     1      -1.086   1.913  -0.580  0.00  0.00    +0.248 C 
ATOM      8  O   UNL     1      -1.011   3.047  -1.012  0.00  0.00    -0.270 OA
ATOM      9  N   UNL     1      -0.016   1.344   0.009  0.00  0.00    -0.282 N 
ATOM     10  H   UNL     1      -0.096   0.467   0.417  0.00  0.00    +0.155 HD
BRANCH   7  13
ATOM     11  C   UNL     1      -4.639   1.044  -1.427  0.00  0.00    +0.019 A 
ATOM     12  C   UNL     1      -3.461   1.747  -1.313  0.00  0.00    +0.014 A 
ATOM     13  C   UNL     1      -2.352   1.157  -0.702  0.00  0.00    +0.037 A 
ATOM     14  C   UNL     1      -2.436  -0.147  -0.212  0.00  0.00    +0.014 A 
ATOM     15  C   UNL     1      -3.617  -0.849  -0.320  0.00  0.00    +0.019 A 
ATOM     16  C   UNL     1      -4.726  -0.259  -0.931  0.00  0.00    +0.052 A 
BRANCH  16  17
ATOM     17  C   UNL     1      -5.951  -0.990  -1.049  0.00  0.00    +0.099 C 
ATOM     18  N   UNL     1      -6.924  -1.570  -1.143  0.00  0.00    -0.191 NA
ENDBRANCH  16  17
ENDBRANCH   7  13
ENDBRANCH   1   9
BRANCH   4  19
ATOM     19  S   UNL     1       5.171   4.208   0.135  0.00  0.00    +0.073 S 
ATOM     20  O   UNL     1       6.112   3.373  -0.525  0.00  0.00    -0.150 OA
ATOM     21  O   UNL     1       4.910   5.541  -0.284  0.00  0.00    -0.150 OA
BRANCH  19  22
ATOM     22  N   UNL     1       5.645   4.295   1.719  0.00  0.00    -0.205 N 
ATOM     23  C   UNL     1       5.945   3.149   2.408  0.00  0.00    +0.088 C 
ATOM     24  C   UNL     1       6.269   0.932   2.883  0.00  0.00    +0.114 C 
ATOM     25  C   UNL     1       6.193   1.629   4.261  0.00  0.00    +0.028 C 
ATOM     26  C   UNL     1       6.392   3.111   3.853  0.00  0.00    +0.072 C 
ATOM     27  H   UNL     1       5.710   5.157   2.160  0.00  0.00    +0.175 HD
ATOM     28  N   UNL     1       5.884   1.961   1.893  0.00  0.00    -0.375 N 
ATOM     29  H   UNL     1       5.605   1.760   0.925  0.00  0.00    +0.161 HD
ENDBRANCH  19  22
ENDBRANCH   4  19
TORSDOF 5
