REMARK  Name = ZINC39560553
REMARK  10 active torsions:
REMARK  status: ('A' for Active; 'I' for Inactive)
REMARK    1  A    between atoms: C_1  and  C_2
REMARK    2  A    between atoms: C_5  and  N_9
REMARK    3  A    between atoms: C_7  and  C_8
REMARK    4  A    between atoms: C_10  and  S_21
REMARK    5  A    between atoms: C_14  and  C_15
REMARK    6  A    between atoms: S_21  and  C_22
REMARK    7  A    between atoms: C_22  and  C_24
REMARK    8  A    between atoms: C_22  and  C_25
REMARK    9  A    between atoms: C_30  and  C_37
REMARK   10  A    between atoms: C_31  and  C_36
REMARK                            x       y       z     vdW  Elec       q    Type
REMARK                         _______ _______ _______ _____ _____    ______ ____
ROOT
ATOM      1  N   UNL     1      -0.175  -4.194   0.009  0.00  0.00    -0.254 N 
ATOM      2  C   UNL     1      -0.176  -5.058  -1.183  0.00  0.00    +0.242 C 
ATOM      3  N   UNL     1       0.189  -6.386  -0.661  0.00  0.00    -0.237 N 
ATOM      4  N   UNL     1       0.371  -6.230   0.718  0.00  0.00    -0.168 NA
ATOM      5  C   UNL     1       0.173  -5.006   1.087  0.00  0.00    +0.153 C 
ATOM      6  H   UNL     1       0.285  -7.205  -1.171  0.00  0.00    +0.171 HD
ENDROOT
BRANCH   1  11
ATOM      7  C   UNL     1      -1.335   1.355   0.176  0.00  0.00    +0.044 C 
ATOM      8  C   UNL     1      -1.026  -0.120   0.131  0.00  0.00    -0.047 A 
ATOM      9  C   UNL     1       0.249  -0.549  -0.189  0.00  0.00    +0.005 A 
ATOM     10  C   UNL     1       0.535  -1.899  -0.230  0.00  0.00    +0.024 A 
ATOM     11  C   UNL     1      -0.460  -2.827   0.050  0.00  0.00    +0.038 A 
ATOM     12  C   UNL     1      -1.740  -2.393   0.372  0.00  0.00    +0.027 A 
ATOM     13  C   UNL     1      -2.018  -1.040   0.416  0.00  0.00    -0.046 A 
ATOM     14  C   UNL     1      -3.405  -0.568   0.770  0.00  0.00    +0.044 C 
ENDBRANCH   1  11
BRANCH   5  15
ATOM     15  C   UNL     1       0.297  -4.529   2.480  0.00  0.00    +0.020 A 
ATOM     16  C   UNL     1       0.195  -3.167   2.786  0.00  0.00    +0.029 A 
ATOM     17  C   UNL     1       0.317  -2.765   4.100  0.00  0.00    +0.083 A 
ATOM     18  N   UNL     1       0.525  -3.646   5.061  0.00  0.00    -0.367 N 
ATOM     19  C   UNL     1       0.627  -4.939   4.816  0.00  0.00    +0.083 A 
ATOM     20  C   UNL     1       0.512  -5.428   3.532  0.00  0.00    +0.029 A 
ATOM     21  H   UNL     1       0.607  -3.332   5.975  0.00  0.00    +0.165 HD
ENDBRANCH   5  15
BRANCH   2  22
ATOM     22  S   UNL     1       1.054  -4.484  -2.387  0.00  0.00    -0.107 S 
BRANCH  22  23
ATOM     23  C   UNL     1       2.627  -4.583  -1.488  0.00  0.00    +0.112 C 
ATOM     24  C   UNL     1       2.937  -6.046  -1.163  0.00  0.00    +0.027 C 
BRANCH  23  25
ATOM     25  C   UNL     1       3.730  -4.014  -2.342  0.00  0.00    +0.136 C 
ATOM     26  N   UNL     1       3.407  -3.462  -3.487  0.00  0.00    -0.160 NA
ATOM     27  C   UNL     1       4.312  -2.929  -4.315  0.00  0.00    +0.271 C 
ATOM     28  O   UNL     1       3.978  -2.424  -5.373  0.00  0.00    -0.268 OA
ATOM     29  C   UNL     1       5.751  -2.973  -3.900  0.00  0.00    +0.071 C 
ATOM     30  C   UNL     1       6.821  -2.506  -4.560  0.00  0.00    -0.045 C 
ATOM     31  C   UNL     1       8.177  -2.679  -3.913  0.00  0.00    +0.076 C 
ATOM     32  S   UNL     1       7.737  -3.537  -2.348  0.00  0.00    -0.098 S 
ATOM     33  C   UNL     1       5.980  -3.620  -2.590  0.00  0.00    +0.111 C 
ATOM     34  N   UNL     1       4.973  -4.091  -1.894  0.00  0.00    -0.226 NA
ATOM     35  C   UNL     1       9.090  -3.549  -4.778  0.00  0.00    +0.024 C 
ATOM     36  C   UNL     1       6.677  -1.834  -5.901  0.00  0.00    +0.041 C 
ENDBRANCH  23  25
ENDBRANCH  22  23
ENDBRANCH   2  22
TORSDOF 5
