REMARK  Name = ZINC03171313
REMARK  8 active torsions:
REMARK  status: ('A' for Active; 'I' for Inactive)
REMARK    1  A    between atoms: C_4  and  C_7
REMARK    2  A    between atoms: C_7  and  N_8
REMARK    3  A    between atoms: N_8  and  C_9
REMARK    4  A    between atoms: C_9  and  N_19
REMARK    5  A    between atoms: C_10  and  C_11
REMARK    6  A    between atoms: C_10  and  N_16
REMARK    7  A    between atoms: N_19  and  C_20
REMARK    8  A    between atoms: C_20  and  C_21
REMARK                            x       y       z     vdW  Elec       q    Type
REMARK                         _______ _______ _______ _____ _____    ______ ____
ROOT
ATOM      1  C   UNL     1      -0.008  -1.767   1.639  0.00  0.00    +0.100 C 
ATOM      2  C   UNL     1      -0.296  -2.269   3.004  0.00  0.00    +0.180 C 
ENDROOT
BRANCH   2   3
ATOM      3  C   UNL     1      -0.246  -1.422   4.065  0.00  0.00    +0.099 C 
ATOM      4  C   UNL     1      -1.191  -0.385   4.182  0.00  0.00    +0.104 C 
ATOM      5 CL   UNL     1      -2.509  -0.279   3.056  0.00  0.00    -0.074 Cl
ATOM      6 BR   UNL     1      -1.026   0.893   5.566  0.00  0.00    -0.036 Br
ATOM      7 CL   UNL     1       0.983  -1.617   5.275  0.00  0.00    -0.079 Cl
ENDBRANCH   2   3
BRANCH   1   8
ATOM      8  N   UNL     1       0.195  -0.459   1.436  0.00  0.00    -0.389 NA
ATOM      9  H   UNL     1       1.095  -0.234   2.027  0.00  0.00    +0.125 HD
ATOM     10  H   UNL     1      -0.679   0.021   1.902  0.00  0.00    +0.125 HD
BRANCH   8  11
ATOM     11  C   UNL     1       0.364   0.053   0.074  0.00  0.00    +0.119 C 
BRANCH  11  15
ATOM     12  C   UNL     1       0.613   4.317   0.175  0.00  0.00    +0.000 A 
ATOM     13  C   UNL     1       1.762   3.554   0.279  0.00  0.00    +0.000 A 
ATOM     14  C   UNL     1       1.681   2.175   0.247  0.00  0.00    +0.005 A 
ATOM     15  C   UNL     1       0.452   1.557   0.110  0.00  0.00    -0.032 A 
ATOM     16  C   UNL     1      -0.696   2.320  -0.001  0.00  0.00    +0.005 A 
ATOM     17  C   UNL     1      -0.616   3.699   0.037  0.00  0.00    +0.000 A 
ENDBRANCH  11  15
ENDBRANCH   8  11
ENDBRANCH   1   8
BRANCH   2  18
ATOM     18  N   UNL     1      -0.639  -3.695   3.212  0.00  0.00    +0.061 N 
ATOM     19  O   UNL     1      -0.601  -4.535   2.199  0.00  0.00    -0.126 OA
ATOM     20  O   UNL     1      -0.981  -4.122   4.410  0.00  0.00    -0.126 OA
ENDBRANCH   2  18
BRANCH   1  21
ATOM     21  N   UNL     1       0.051  -2.622   0.610  0.00  0.00    -0.328 N 
ATOM     22  H   UNL     1      -0.842  -2.802  -0.007  0.00  0.00    +0.148 HD
BRANCH  21  23
ATOM     23  C   UNL     1       1.304  -3.318   0.305  0.00  0.00    +0.138 C 
BRANCH  23  24
ATOM     24  C   UNL     1       1.139  -4.117  -0.962  0.00  0.00    -0.030 A 
ATOM     25  C   UNL     1       0.702  -5.427  -0.901  0.00  0.00    +0.005 A 
ATOM     26  C   UNL     1       0.547  -6.159  -2.064  0.00  0.00    +0.000 A 
ATOM     27  C   UNL     1       0.839  -5.583  -3.287  0.00  0.00    +0.000 A 
ATOM     28  C   UNL     1       1.281  -4.275  -3.347  0.00  0.00    +0.000 A 
ATOM     29  C   UNL     1       1.431  -3.542  -2.185  0.00  0.00    +0.005 A 
ENDBRANCH  23  24
ENDBRANCH  21  23
ENDBRANCH   1  21
TORSDOF 8
