REMARK  Name = ZINC34683982
REMARK  10 active torsions:
REMARK  status: ('A' for Active; 'I' for Inactive)
REMARK    1  A    between atoms: C_1  and  C_2
REMARK    2  A    between atoms: C_5  and  S_8
REMARK    3  A    between atoms: S_8  and  N_11
REMARK    4  A    between atoms: N_11  and  C_12
REMARK    5  A    between atoms: N_11  and  C_21
REMARK    6  A    between atoms: N_24  and  C_27
REMARK    7  A    between atoms: C_27  and  C_28
REMARK    8  A    between atoms: C_32  and  O_35
REMARK    9  A    between atoms: C_33  and  O_34
REMARK   10  A    between atoms: O_35  and  C_36
REMARK                            x       y       z     vdW  Elec       q    Type
REMARK                         _______ _______ _______ _____ _____    ______ ____
ROOT
ATOM      1  N   UNL     1       1.651  -4.999  -0.034  0.00  0.00    -0.200 N 
ENDROOT
BRANCH   1   2
ATOM      2  C   UNL     1       2.306  -5.120   1.196  0.00  0.00    +0.055 A 
ATOM      3  C   UNL     1       3.455  -4.382   1.447  0.00  0.00    +0.028 A 
ATOM      4  C   UNL     1       4.103  -4.500   2.662  0.00  0.00    +0.051 A 
ATOM      5  C   UNL     1       3.607  -5.354   3.634  0.00  0.00    +0.166 A 
ATOM      6  C   UNL     1       2.454  -6.095   3.386  0.00  0.00    +0.168 A 
ATOM      7  C   UNL     1       1.803  -5.972   2.170  0.00  0.00    +0.074 A 
ATOM      8  O   UNL     1       2.176  -6.851   4.488  0.00  0.00    -0.453 OA
ATOM      9  C   UNL     1       3.394  -6.874   5.256  0.00  0.00    +0.466 C 
ATOM     10  O   UNL     1       4.051  -5.646   4.892  0.00  0.00    -0.453 OA
ENDBRANCH   1   2
BRANCH   1  11
ATOM     11  C   UNL     1       1.999  -5.895  -1.140  0.00  0.00    +0.095 C 
ATOM     12  C   UNL     1       3.493  -5.770  -1.450  0.00  0.00    +0.006 C 
ATOM     13  C   UNL     1       3.866  -6.765  -2.551  0.00  0.00    -0.077 C 
ATOM     14  N   UNL     1       3.571  -8.131  -2.101  0.00  0.00    +0.383 N 
ATOM     15  C   UNL     1       2.129  -8.279  -1.871  0.00  0.00    -0.077 C 
ATOM     16  C   UNL     1       1.690  -7.342  -0.744  0.00  0.00    +0.006 C 
ATOM     17  H   UNL     1       4.068  -8.316  -1.243  0.00  0.00    -0.081 HD
BRANCH  14  18
ATOM     18  C   UNL     1       4.002  -9.087  -3.129  0.00  0.00    -0.039 C 
BRANCH  18  19
ATOM     19  C   UNL     1       3.813 -10.493  -2.619  0.00  0.00    -0.019 A 
ATOM     20  C   UNL     1       4.892 -11.196  -2.115  0.00  0.00    +0.005 A 
ATOM     21  C   UNL     1       4.722 -12.485  -1.646  0.00  0.00    +0.004 A 
ATOM     22  C   UNL     1       3.473 -13.077  -1.679  0.00  0.00    +0.049 A 
ATOM     23  C   UNL     1       2.388 -12.378  -2.183  0.00  0.00    +0.161 A 
ATOM     24  C   UNL     1       2.558 -11.078  -2.650  0.00  0.00    +0.160 A 
BRANCH  24  25
ATOM     25  O   UNL     1       1.495 -10.386  -3.140  0.00  0.00    -0.503 OA
ATOM     26  H   UNL     1       1.355 -10.501  -4.090  0.00  0.00    +0.292 HD
ENDBRANCH  24  25
BRANCH  23  27
ATOM     27  O   UNL     1       1.159 -12.960  -2.217  0.00  0.00    -0.491 OA
ATOM     28  C   UNL     1       1.059 -14.294  -1.716  0.00  0.00    +0.277 C 
ENDBRANCH  23  27
ENDBRANCH  18  19
ENDBRANCH  14  18
ENDBRANCH   1  11
BRANCH   1  29
ATOM     29  S   UNL     1       0.483  -3.844  -0.241  0.00  0.00    +0.075 S 
ATOM     30  O   UNL     1      -0.088  -3.609   1.039  0.00  0.00    -0.150 OA
ATOM     31  O   UNL     1      -0.295  -4.249  -1.359  0.00  0.00    -0.150 OA
BRANCH  29  36
ATOM     32  C   UNL     1       3.278   1.257  -1.844  0.00  0.00    +0.044 C 
ATOM     33  C   UNL     1       2.580  -0.017  -1.444  0.00  0.00    -0.050 A 
ATOM     34  C   UNL     1       2.161  -0.909  -2.413  0.00  0.00    +0.005 A 
ATOM     35  C   UNL     1       1.520  -2.078  -2.045  0.00  0.00    +0.029 A 
ATOM     36  C   UNL     1       1.300  -2.355  -0.709  0.00  0.00    +0.109 A 
ATOM     37  C   UNL     1       1.720  -1.463   0.260  0.00  0.00    +0.029 A 
ATOM     38  C   UNL     1       2.364  -0.296  -0.107  0.00  0.00    +0.005 A 
ENDBRANCH  29  36
ENDBRANCH   1  29
TORSDOF 8
