REMARK  Name = ZINC55122045
REMARK  6 active torsions:
REMARK  status: ('A' for Active; 'I' for Inactive)
REMARK    1  A    between atoms: C_1  and  C_2
REMARK    2  A    between atoms: C_7  and  C_12
REMARK    3  A    between atoms: C_9  and  N_11
REMARK    4  A    between atoms: N_14  and  C_15
REMARK    5  A    between atoms: C_15  and  C_16
REMARK    6  A    between atoms: C_15  and  C_17
REMARK                            x       y       z     vdW  Elec       q    Type
REMARK                         _______ _______ _______ _____ _____    ______ ____
ROOT
ATOM      1  C   UNL     1      -0.019   1.526   0.010  0.00  0.00    +0.006 C 
ATOM      2  C   UNL     1       0.002  -0.004   0.002  0.00  0.00    -0.028 C 
ATOM      3  C   UNL     1       0.718  -0.497  -1.257  0.00  0.00    +0.002 C 
ATOM      4  C   UNL     1       0.739  -2.027  -1.265  0.00  0.00    +0.001 C 
ATOM      5  C   UNL     1       1.479  -2.534  -0.026  0.00  0.00    +0.011 C 
ATOM      6  C   UNL     1       0.763  -2.041   1.233  0.00  0.00    +0.061 C 
ATOM      7  C   UNL     1       0.742  -0.511   1.242  0.00  0.00    -0.060 C 
ENDROOT
BRANCH   7   8
ATOM      8  N   UNL     1       0.054  -0.037   2.450  0.00  0.00    +0.381 N 
ATOM      9  H   UNL     1      -0.892  -0.386   2.457  0.00  0.00    -0.090 HD
ATOM     10  H   UNL     1       0.542  -0.371   3.268  0.00  0.00    -0.090 HD
ATOM     11  H   UNL     1       0.041   0.972   2.456  0.00  0.00    -0.090 HD
ENDBRANCH   7   8
BRANCH   6  12
ATOM     12  C   UNL     1       1.492  -2.540   2.454  0.00  0.00    +0.215 C 
ATOM     13  O   UNL     1       1.950  -1.750   3.252  0.00  0.00    -0.276 OA
ATOM     14  N   UNL     1       1.635  -3.864   2.659  0.00  0.00    -0.313 N 
ATOM     15  H   UNL     1       1.269  -4.496   2.020  0.00  0.00    +0.149 HD
BRANCH  14  16
ATOM     16  C   UNL     1       2.343  -4.350   3.846  0.00  0.00    +0.067 C 
ATOM     17  C   UNL     1       1.372  -4.421   5.026  0.00  0.00    +0.027 C 
ATOM     18  C   UNL     1       2.910  -5.743   3.567  0.00  0.00    +0.027 C 
ENDBRANCH  14  16
ENDBRANCH   6  12
TORSDOF 3
