REMARK  Name = ZINC20882145
REMARK  9 active torsions:
REMARK  status: ('A' for Active; 'I' for Inactive)
REMARK    1  A    between atoms: C_1  and  O_2
REMARK    2  A    between atoms: O_2  and  C_3
REMARK    3  A    between atoms: C_6  and  O_37
REMARK    4  A    between atoms: C_7  and  C_9
REMARK    5  A    between atoms: C_14  and  C_24
REMARK    6  A    between atoms: C_26  and  O_32
REMARK    7  A    between atoms: C_27  and  O_31
REMARK    8  A    between atoms: O_32  and  C_33
REMARK    9  A    between atoms: O_37  and  C_38
REMARK                            x       y       z     vdW  Elec       q    Type
REMARK                         _______ _______ _______ _____ _____    ______ ____
ROOT
ATOM      1  C   UNL     1      -1.039   1.431   1.413  0.00  0.00    +0.036 C 
ATOM      2  C   UNL     1      -0.236   0.961   0.201  0.00  0.00    +0.060 C 
ATOM      3  C   UNL     1      -0.855   1.512  -1.073  0.00  0.00    +0.017 C 
ATOM      4  C   UNL     1      -2.183   1.706  -1.157  0.00  0.00    +0.036 C 
ATOM      5  C   UNL     1      -2.926   2.241  -2.357  0.00  0.00    +0.136 C 
ATOM      6  N   UNL     1      -2.139   2.307  -3.570  0.00  0.00    -0.331 N 
ATOM      7  C   UNL     1      -1.038   3.156  -3.667  0.00  0.00    +0.049 A 
ATOM      8  C   UNL     1      -1.046   4.256  -4.510  0.00  0.00    +0.025 A 
ATOM      9  C   UNL     1       0.024   5.134  -4.490  0.00  0.00    +0.002 A 
ATOM     10  C   UNL     1       1.092   4.918  -3.638  0.00  0.00    +0.002 A 
ATOM     11  C   UNL     1       1.112   3.808  -2.811  0.00  0.00    +0.025 A 
ATOM     12  C   UNL     1       0.051   2.920  -2.842  0.00  0.00    +0.052 A 
ATOM     13  N   UNL     1       0.028   1.762  -2.073  0.00  0.00    -0.316 N 
ATOM     14  C   UNL     1      -3.016   1.415  -0.051  0.00  0.00    +0.163 C 
ATOM     15  O   UNL     1      -4.215   1.577  -0.163  0.00  0.00    -0.292 OA
ATOM     16  C   UNL     1      -2.472   0.915   1.254  0.00  0.00    +0.088 C 
ATOM     17  H   UNL     1      -2.408   1.681  -4.434  0.00  0.00    +0.147 HD
ATOM     18  H   UNL     1       0.797   1.018  -2.326  0.00  0.00    +0.152 HD
ENDROOT
BRANCH   5  19
ATOM     19  C   UNL     1      -3.419   3.627  -2.031  0.00  0.00    -0.018 A 
ATOM     20  C   UNL     1      -4.777   3.878  -1.963  0.00  0.00    +0.055 A 
ATOM     21  C   UNL     1      -5.232   5.151  -1.659  0.00  0.00    +0.163 A 
ATOM     22  C   UNL     1      -4.320   6.177  -1.432  0.00  0.00    +0.177 A 
ATOM     23  C   UNL     1      -2.960   5.921  -1.507  0.00  0.00    +0.086 A 
ATOM     24  C   UNL     1      -2.512   4.646  -1.806  0.00  0.00    +0.029 A 
ATOM     25 CL   UNL     1      -1.819   7.198  -1.226  0.00  0.00    -0.080 Cl
BRANCH  22  26
ATOM     26  O   UNL     1      -4.763   7.429  -1.138  0.00  0.00    -0.502 OA
ATOM     27  H   UNL     1      -4.041   8.240  -0.959  0.00  0.00    +0.292 HD
ENDBRANCH  22  26
BRANCH  21  28
ATOM     28  O   UNL     1      -6.568   5.397  -1.586  0.00  0.00    -0.491 OA
ATOM     29  C   UNL     1      -7.445   4.296  -1.830  0.00  0.00    +0.277 C 
ENDBRANCH  21  28
ENDBRANCH   5  19
BRANCH   1  34
ATOM     30  C   UNL     1       0.208  -1.015   4.010  0.00  0.00    +0.121 A 
ATOM     31  C   UNL     1       0.676  -0.159   4.996  0.00  0.00    +0.049 A 
ATOM     32  C   UNL     1       0.588   1.208   4.821  0.00  0.00    +0.049 A 
ATOM     33  C   UNL     1       0.032   1.725   3.660  0.00  0.00    +0.124 A 
ATOM     34  C   UNL     1      -0.435   0.869   2.674  0.00  0.00    +0.002 A 
ATOM     35  C   UNL     1      -0.351  -0.499   2.851  0.00  0.00    +0.053 A 
BRANCH  30  37
ATOM     36  C   UNL     1       0.879  -2.824   5.401  0.00  0.00    +0.277 C 
ATOM     37  O   UNL     1       0.295  -2.362   4.181  0.00  0.00    -0.495 OA
ENDBRANCH  30  37
BRANCH  33  38
ATOM     38  O   UNL     1      -0.055   3.071   3.489  0.00  0.00    -0.495 OA
ATOM     39  C   UNL     1       0.446   3.893   4.545  0.00  0.00    +0.277 C 
ENDBRANCH  33  38
ENDBRANCH   1  34
TORSDOF 6
