REMARK  Name = ZINC43465477
REMARK  10 active torsions:
REMARK  status: ('A' for Active; 'I' for Inactive)
REMARK    1  A    between atoms: C_3  and  O_36
REMARK    2  A    between atoms: C_6  and  C_7
REMARK    3  A    between atoms: C_12  and  O_35
REMARK    4  A    between atoms: C_14  and  O_34
REMARK    5  A    between atoms: C_15  and  C_18
REMARK    6  A    between atoms: C_20  and  O_33
REMARK    7  A    between atoms: C_22  and  O_32
REMARK    8  A    between atoms: C_24  and  O_31
REMARK    9  A    between atoms: C_26  and  C_29
REMARK   10  A    between atoms: C_29  and  O_30
REMARK                            x       y       z     vdW  Elec       q    Type
REMARK                         _______ _______ _______ _____ _____    ______ ____
ROOT
ATOM      1  C   UNL     1      -1.264  -0.761   0.011  0.00  0.00    +0.139 A 
ATOM      2  C   UNL     1      -1.213  -2.120   0.008  0.00  0.00    +0.098 A 
ATOM      3  C   UNL     1      -2.418  -2.863   0.017  0.00  0.00    +0.197 A 
ATOM      4  O   UNL     1      -2.410  -4.084   0.016  0.00  0.00    -0.287 OA
ATOM      5  C   UNL     1      -3.681  -2.106   0.028  0.00  0.00    +0.106 A 
ATOM      6  C   UNL     1      -4.920  -2.759   0.037  0.00  0.00    +0.135 A 
ATOM      7  C   UNL     1      -6.083  -2.012   0.048  0.00  0.00    +0.092 A 
ATOM      8  C   UNL     1      -6.021  -0.623   0.049  0.00  0.00    +0.130 A 
ATOM      9  C   UNL     1      -4.798   0.030   0.040  0.00  0.00    +0.068 A 
ATOM     10  C   UNL     1      -3.621  -0.702   0.029  0.00  0.00    +0.152 A 
ATOM     11  O   UNL     1      -2.422  -0.082   0.026  0.00  0.00    -0.454 OA
ENDROOT
BRANCH   1  17
ATOM     12  C   UNL     1      -0.017   1.393   0.010  0.00  0.00    +0.015 A 
ATOM     13  C   UNL     1       1.168   2.096   0.002  0.00  0.00    +0.046 A 
ATOM     14  C   UNL     1       2.380   1.418  -0.013  0.00  0.00    +0.117 A 
ATOM     15  C   UNL     1       2.404   0.028  -0.021  0.00  0.00    +0.046 A 
ATOM     16  C   UNL     1       1.224  -0.682  -0.013  0.00  0.00    +0.015 A 
ATOM     17  C   UNL     1       0.002  -0.004   0.002  0.00  0.00    +0.018 A 
BRANCH  14  18
ATOM     18  O   UNL     1       3.546   2.115  -0.022  0.00  0.00    -0.507 OA
ATOM     19  H   UNL     1       3.892   2.312   0.859  0.00  0.00    +0.292 HD
ENDBRANCH  14  18
ENDBRANCH   1  17
BRANCH   9  20
ATOM     20  C   UNL     1      -4.749   1.536   0.042  0.00  0.00    +0.187 C 
ATOM     21  C   UNL     1      -5.094   2.057   1.439  0.00  0.00    +0.179 C 
ATOM     22  C   UNL     1      -5.100   3.589   1.418  0.00  0.00    +0.177 C 
ATOM     23  C   UNL     1      -6.094   4.069   0.356  0.00  0.00    +0.176 C 
ATOM     24  C   UNL     1      -5.710   3.471  -1.000  0.00  0.00    +0.175 C 
ATOM     25  O   UNL     1      -5.693   2.045  -0.902  0.00  0.00    -0.361 OA
BRANCH  23  26
ATOM     26  O   UNL     1      -6.057   5.496   0.278  0.00  0.00    -0.386 OA
ATOM     27  H   UNL     1      -6.286   5.941   1.105  0.00  0.00    +0.210 HD
ENDBRANCH  23  26
BRANCH  22  28
ATOM     28  O   UNL     1      -5.492   4.083   2.700  0.00  0.00    -0.386 OA
ATOM     29  H   UNL     1      -5.517   5.048   2.758  0.00  0.00    +0.210 HD
ENDBRANCH  22  28
BRANCH  21  30
ATOM     30  O   UNL     1      -4.118   1.595   2.375  0.00  0.00    -0.386 OA
ATOM     31  H   UNL     1      -4.275   1.888   3.284  0.00  0.00    +0.210 HD
ENDBRANCH  21  30
BRANCH  24  32
ATOM     32  C   UNL     1      -4.322   3.971  -1.404  0.00  0.00    +0.190 C 
BRANCH  32  33
ATOM     33  O   UNL     1      -4.012   3.507  -2.719  0.00  0.00    -0.392 OA
ATOM     34  H   UNL     1      -3.145   3.787  -3.041  0.00  0.00    +0.210 HD
ENDBRANCH  32  33
ENDBRANCH  24  32
ENDBRANCH   9  20
BRANCH   8  35
ATOM     35  O   UNL     1      -7.170   0.101   0.059  0.00  0.00    -0.506 OA
ATOM     36  H   UNL     1      -7.495   0.310   0.946  0.00  0.00    +0.292 HD
ENDBRANCH   8  35
BRANCH   6  37
ATOM     37  O   UNL     1      -4.978  -4.115   0.036  0.00  0.00    -0.506 OA
ATOM     38  H   UNL     1      -4.987  -4.509   0.918  0.00  0.00    +0.292 HD
ENDBRANCH   6  37
TORSDOF 10
