REMARK  Name = ZINC64885773
REMARK  9 active torsions:
REMARK  status: ('A' for Active; 'I' for Inactive)
REMARK    1  A    between atoms: C_1  and  C_2
REMARK    2  A    between atoms: C_4  and  C_29
REMARK    3  A    between atoms: C_6  and  N_8
REMARK    4  A    between atoms: C_11  and  C_14
REMARK    5  A    between atoms: N_16  and  N_17
REMARK    6  A    between atoms: N_20  and  C_21
REMARK    7  A    between atoms: C_21  and  C_22
REMARK    8  A    between atoms: C_22  and  C_23
REMARK    9  A    between atoms: C_23  and  N_24
REMARK                            x       y       z     vdW  Elec       q    Type
REMARK                         _______ _______ _______ _____ _____    ______ ____
ROOT
ATOM      1  C   UNL     1      -1.039  -5.604   4.209  0.00  0.00    +0.241 C 
ATOM      2  O   UNL     1      -1.964  -5.356   4.953  0.00  0.00    -0.273 OA
ATOM      3  N   UNL     1      -0.950  -6.814   3.624  0.00  0.00    -0.233 N 
ATOM      4  H   UNL     1      -0.210  -7.013   3.029  0.00  0.00    +0.173 HD
ENDROOT
BRANCH   1   8
ATOM      5  N   UNL     1       0.052  -2.797   2.393  0.00  0.00    -0.271 N 
ATOM      6  C   UNL     1       0.149  -2.174   3.718  0.00  0.00    +0.115 C 
ATOM      7  C   UNL     1      -0.303  -3.260   4.719  0.00  0.00    +0.041 C 
ATOM      8  C   UNL     1       0.012  -4.558   3.940  0.00  0.00    +0.164 C 
ATOM      9  C   UNL     1      -0.027  -4.136   2.487  0.00  0.00    +0.232 C 
ATOM     10  O   UNL     1      -0.114  -4.895   1.546  0.00  0.00    -0.274 OA
BRANCH   5  16
ATOM     11  C   UNL     1      -0.048   1.502   0.010  0.00  0.00    +0.044 C 
ATOM     12  C   UNL     1      -0.012  -0.004   0.002  0.00  0.00    -0.048 A 
ATOM     13  C   UNL     1       0.006  -0.688  -1.200  0.00  0.00    +0.006 A 
ATOM     14  C   UNL     1       0.039  -2.071  -1.212  0.00  0.00    -0.048 A 
ATOM     15  C   UNL     1       0.055  -2.773  -0.022  0.00  0.00    +0.027 A 
ATOM     16  C   UNL     1       0.037  -2.089   1.186  0.00  0.00    +0.037 A 
ATOM     17  C   UNL     1       0.009  -0.701   1.195  0.00  0.00    +0.027 A 
ATOM     18  C   UNL     1       0.058  -2.812  -2.524  0.00  0.00    +0.044 C 
ENDBRANCH   5  16
ENDBRANCH   1   8
BRANCH   3  19
ATOM     19  N   UNL     1      -1.927  -7.787   3.875  0.00  0.00    -0.218 N 
ATOM     20  C   UNL     1      -1.839  -8.998   3.290  0.00  0.00    +0.316 C 
ATOM     21  O   UNL     1      -2.687  -9.841   3.507  0.00  0.00    -0.251 OA
ATOM     22  N   UNL     1      -0.810  -9.273   2.463  0.00  0.00    -0.298 N 
ATOM     23  H   UNL     1      -2.668  -7.588   4.469  0.00  0.00    +0.174 HD
ATOM     24  H   UNL     1      -0.134  -8.600   2.290  0.00  0.00    +0.150 HD
BRANCH  22  25
ATOM     25  C   UNL     1      -0.714 -10.589   1.827  0.00  0.00    +0.107 C 
BRANCH  25  26
ATOM     26  C   UNL     1       0.536 -10.640   0.946  0.00  0.00    +0.040 C 
BRANCH  26  27
ATOM     27  C   UNL     1       0.636 -12.015   0.282  0.00  0.00    +0.124 C 
BRANCH  27  28
ATOM     28  N   UNL     1       1.833 -12.063  -0.561  0.00  0.00    -0.338 N 
ATOM     29  C   UNL     1       1.910 -11.714  -1.883  0.00  0.00    +0.104 A 
ATOM     30  C   UNL     1       3.187 -11.909  -2.264  0.00  0.00    +0.101 A 
ATOM     31  N   UNL     1       3.871 -12.365  -1.204  0.00  0.00    -0.352 N 
ATOM     32  C   UNL     1       3.067 -12.455  -0.179  0.00  0.00    +0.173 A 
ATOM     33  H   UNL     1       4.815 -12.589  -1.198  0.00  0.00    +0.166 HD
ENDBRANCH  27  28
ENDBRANCH  26  27
ENDBRANCH  25  26
ENDBRANCH  22  25
ENDBRANCH   3  19
TORSDOF 7
