REMARK  Name = ZINC39933394
REMARK  10 active torsions:
REMARK  status: ('A' for Active; 'I' for Inactive)
REMARK    1  A    between atoms: C_1  and  C_2
REMARK    2  A    between atoms: C_2  and  C_4
REMARK    3  A    between atoms: C_2  and  N_14
REMARK    4  A    between atoms: C_7  and  S_10
REMARK    5  A    between atoms: S_10  and  N_13
REMARK    6  A    between atoms: C_15  and  C_17
REMARK    7  A    between atoms: C_17  and  S_18
REMARK    8  A    between atoms: S_18  and  C_19
REMARK    9  A    between atoms: C_23  and  C_28
REMARK   10  A    between atoms: N_24  and  C_25
REMARK                            x       y       z     vdW  Elec       q    Type
REMARK                         _______ _______ _______ _____ _____    ______ ____
ROOT
ATOM      1  S   UNL     1      -4.113  -1.476  -3.007  0.00  0.00    -0.109 S 
ENDROOT
BRANCH   1   2
ATOM      2  C   UNL     1      -5.855  -1.860  -2.676  0.00  0.00    +0.237 C 
ATOM      3  N   UNL     1      -5.982  -3.200  -2.080  0.00  0.00    -0.237 N 
ATOM      4  N   UNL     1      -6.556  -3.020  -0.816  0.00  0.00    -0.169 NA
ATOM      5  C   UNL     1      -6.788  -1.757  -0.576  0.00  0.00    +0.147 C 
ATOM      6  N   UNL     1      -6.397  -0.952  -1.652  0.00  0.00    -0.282 N 
ATOM      7  H   UNL     1      -5.721  -4.042  -2.484  0.00  0.00    +0.171 HD
BRANCH   5   8
ATOM      8  C   UNL     1      -7.358  -1.269   0.610  0.00  0.00    +0.022 C 
ATOM      9  C   UNL     1      -7.678  -2.000   1.755  0.00  0.00    +0.006 A 
ATOM     10  C   UNL     1      -7.547  -3.366   2.082  0.00  0.00    +0.010 A 
ATOM     11  C   UNL     1      -7.951  -3.809   3.300  0.00  0.00    +0.001 A 
ATOM     12  C   UNL     1      -8.499  -2.943   4.248  0.00  0.00    +0.002 A 
ATOM     13  C   UNL     1      -8.655  -1.619   4.002  0.00  0.00    +0.026 A 
ATOM     14  C   UNL     1      -8.255  -1.082   2.751  0.00  0.00    +0.043 A 
ATOM     15  N   UNL     1      -8.300   0.147   2.275  0.00  0.00    -0.380 N 
ATOM     16  C   UNL     1      -7.748   0.160   0.917  0.00  0.00    +0.152 C 
ATOM     17  H   UNL     1      -8.639   0.921   2.751  0.00  0.00    +0.160 HD
ENDBRANCH   5   8
BRANCH   6  18
ATOM     18  C   UNL     1      -6.505   0.506  -1.744  0.00  0.00    +0.078 C 
ATOM     19  C   UNL     1      -6.096   1.163  -3.064  0.00  0.00    +0.024 C 
ATOM     20  C   UNL     1      -5.204   1.307  -1.829  0.00  0.00    +0.024 C 
ENDBRANCH   6  18
ENDBRANCH   1   2
BRANCH   1  21
ATOM     21  C   UNL     1      -3.309  -1.657  -1.391  0.00  0.00    +0.168 C 
BRANCH  21  23
ATOM     22  N   UNL     1      -1.034  -1.435  -0.446  0.00  0.00    -0.308 N 
ATOM     23  C   UNL     1      -1.837  -1.362  -1.526  0.00  0.00    +0.223 C 
ATOM     24  O   UNL     1      -1.376  -1.059  -2.606  0.00  0.00    -0.275 OA
ATOM     25  H   UNL     1      -1.403  -1.677   0.418  0.00  0.00    +0.149 HD
BRANCH  22  27
ATOM     26  C   UNL     1       0.627   0.361  -0.464  0.00  0.00    +0.033 C 
ATOM     27  C   UNL     1       0.397  -1.148  -0.577  0.00  0.00    +0.100 C 
BRANCH  27  28
ATOM     28  C   UNL     1       1.153  -1.854   0.518  0.00  0.00    -0.027 A 
ATOM     29  C   UNL     1       0.629  -1.910   1.796  0.00  0.00    +0.007 A 
ATOM     30  C   UNL     1       1.323  -2.559   2.800  0.00  0.00    +0.029 A 
ATOM     31  C   UNL     1       2.541  -3.151   2.527  0.00  0.00    +0.105 A 
ATOM     32  C   UNL     1       3.066  -3.096   1.249  0.00  0.00    +0.029 A 
ATOM     33  C   UNL     1       2.369  -2.452   0.243  0.00  0.00    +0.007 A 
BRANCH  31  34
ATOM     34  S   UNL     1       3.426  -3.977   3.807  0.00  0.00    +0.056 S 
ATOM     35  O   UNL     1       4.794  -3.976   3.421  0.00  0.00    -0.153 OA
ATOM     36  O   UNL     1       2.981  -3.416   5.035  0.00  0.00    -0.153 OA
BRANCH  34  37
ATOM     37  N   UNL     1       2.934  -5.558   3.802  0.00  0.00    -0.204 NA
ATOM     38  H   UNL     1       2.271  -5.857   3.161  0.00  0.00    +0.144 HD
ATOM     39  H   UNL     1       3.309  -6.184   4.441  0.00  0.00    +0.144 HD
ENDBRANCH  34  37
ENDBRANCH  31  34
ENDBRANCH  27  28
ENDBRANCH  22  27
ENDBRANCH  21  23
ENDBRANCH   1  21
TORSDOF 9
