REMARK  Name = ZINC09184762
REMARK  8 active torsions:
REMARK  status: ('A' for Active; 'I' for Inactive)
REMARK    1  A    between atoms: C_1  and  C_2
REMARK    2  A    between atoms: C_4  and  C_30
REMARK    3  A    between atoms: C_5  and  C_9
REMARK    4  A    between atoms: C_6  and  O_8
REMARK    5  A    between atoms: N_17  and  C_27
REMARK    6  A    between atoms: C_18  and  C_20
REMARK    7  A    between atoms: C_27  and  C_28
REMARK    8  A    between atoms: C_28  and  O_29
REMARK                            x       y       z     vdW  Elec       q    Type
REMARK                         _______ _______ _______ _____ _____    ______ ____
ROOT
ATOM      1  C   UNL     1       0.260  -4.606  -0.021  0.00  0.00    +0.075 A 
ATOM      2  C   UNL     1      -0.881  -5.342  -0.048  0.00  0.00    +0.035 A 
ATOM      3  C   UNL     1      -0.472  -6.695  -0.024  0.00  0.00    +0.153 A 
ATOM      4  N   UNL     1       0.845  -6.697   0.014  0.00  0.00    -0.168 NA
ATOM      5  N   UNL     1       1.298  -5.493   0.011  0.00  0.00    -0.276 N 
ATOM      6  H   UNL     1       2.237  -5.252   0.031  0.00  0.00    +0.189 HD
ATOM      7  C   UNL     1      -1.684  -7.534  -0.052  0.00  0.00    +0.268 C 
ATOM      8  O   UNL     1      -1.685  -8.750  -0.041  0.00  0.00    -0.268 OA
ATOM      9  N   UNL     1      -2.786  -6.766  -0.090  0.00  0.00    -0.283 N 
ATOM     10  C   UNL     1      -2.385  -5.355  -0.091  0.00  0.00    +0.141 C 
ENDROOT
BRANCH   1  15
ATOM     11  C   UNL     1       0.647   1.140  -0.066  0.00  0.00    +0.044 C 
ATOM     12  C   UNL     1       0.546  -0.364  -0.051  0.00  0.00    -0.047 A 
ATOM     13  C   UNL     1       0.529  -1.064  -1.245  0.00  0.00    +0.007 A 
ATOM     14  C   UNL     1       0.436  -2.441  -1.241  0.00  0.00    -0.038 A 
ATOM     15  C   UNL     1       0.360  -3.130  -0.031  0.00  0.00    +0.044 A 
ATOM     16  C   UNL     1       0.378  -2.418   1.173  0.00  0.00    +0.126 A 
ATOM     17  C   UNL     1       0.477  -1.036   1.154  0.00  0.00    +0.049 A 
ATOM     18  C   UNL     1       0.417  -3.199  -2.543  0.00  0.00    +0.044 C 
BRANCH  16  19
ATOM     19  O   UNL     1       0.304  -3.080   2.358  0.00  0.00    -0.506 OA
ATOM     20  H   UNL     1       1.164  -3.331   2.722  0.00  0.00    +0.292 HD
ENDBRANCH  16  19
ENDBRANCH   1  15
BRANCH  10  21
ATOM     21  C   UNL     1      -2.943  -4.657   1.122  0.00  0.00    -0.022 A 
ATOM     22  C   UNL     1      -2.895  -5.275   2.358  0.00  0.00    +0.007 A 
ATOM     23  C   UNL     1      -3.406  -4.636   3.471  0.00  0.00    +0.015 A 
ATOM     24  C   UNL     1      -3.967  -3.377   3.349  0.00  0.00    +0.018 A 
ATOM     25  C   UNL     1      -4.016  -2.759   2.112  0.00  0.00    +0.015 A 
ATOM     26  C   UNL     1      -3.499  -3.397   1.001  0.00  0.00    +0.007 A 
ATOM     27 BR   UNL     1      -4.668  -2.502   4.872  0.00  0.00    -0.050 Br
ENDBRANCH  10  21
BRANCH   9  28
ATOM     28  C   UNL     1      -4.165  -7.259  -0.126  0.00  0.00    +0.137 C 
BRANCH  28  29
ATOM     29  C   UNL     1      -4.649  -7.317  -1.577  0.00  0.00    +0.175 C 
BRANCH  29  30
ATOM     30  O   UNL     1      -3.889  -8.292  -2.293  0.00  0.00    -0.393 OA
ATOM     31  H   UNL     1      -4.142  -8.383  -3.222  0.00  0.00    +0.209 HD
ENDBRANCH  29  30
ENDBRANCH  28  29
ENDBRANCH   9  28
TORSDOF 6
