REMARK  Name = ZINC31167994
REMARK  16 active torsions:
REMARK  status: ('A' for Active; 'I' for Inactive)
REMARK    1  A    between atoms: C_1  and  C_2
REMARK    2  A    between atoms: C_2  and  C_3
REMARK    3  A    between atoms: C_2  and  C_4
REMARK    4  A    between atoms: C_2  and  O_23
REMARK    5  A    between atoms: C_4  and  C_6
REMARK    6  A    between atoms: C_4  and  O_22
REMARK    7  A    between atoms: C_6  and  C_8
REMARK    8  A    between atoms: C_6  and  O_21
REMARK    9  A    between atoms: C_18  and  O_19
REMARK   10  A    between atoms: O_19  and  C_20
REMARK   11  A    between atoms: O_23  and  C_24
REMARK   12  A    between atoms: C_26  and  O_39
REMARK   13  A    between atoms: C_28  and  O_38
REMARK   14  A    between atoms: C_30  and  O_37
REMARK   15  A    between atoms: C_32  and  C_35
REMARK   16  A    between atoms: C_35  and  O_36
REMARK                            x       y       z     vdW  Elec       q    Type
REMARK                         _______ _______ _______ _____ _____    ______ ____
ROOT
ATOM      1  C   UNL     1       0.853   4.141  -3.950  0.00  0.00    +0.044 C 
ATOM      2  C   UNL     1      -0.532   3.514  -3.773  0.00  0.00    +0.096 C 
ATOM      3  C   UNL     1      -0.410   1.989  -3.810  0.00  0.00    +0.044 C 
ENDROOT
BRANCH   2   4
ATOM      4  C   UNL     1      -1.450   3.979  -4.905  0.00  0.00    +0.179 C 
BRANCH   4   5
ATOM      5  O   UNL     1      -2.748   3.408  -4.731  0.00  0.00    -0.386 OA
ATOM      6  H   UNL     1      -3.549   3.630  -5.452  0.00  0.00    +0.210 HD
ENDBRANCH   4   5
BRANCH   4   7
ATOM      7  C   UNL     1      -1.557   5.505  -4.881  0.00  0.00    +0.179 C 
BRANCH   7   8
ATOM      8  C   UNL     1      -2.479   5.962  -5.982  0.00  0.00    +0.026 A 
ATOM      9  C   UNL     1      -3.798   6.189  -5.711  0.00  0.00    +0.021 A 
ATOM     10  C   UNL     1      -4.654   6.613  -6.734  0.00  0.00    +0.018 A 
ATOM     11  C   UNL     1      -6.073   6.865  -6.473  0.00  0.00    +0.018 A 
ATOM     12  C   UNL     1      -6.853   7.273  -7.507  0.00  0.00    +0.092 A 
ATOM     13  C   UNL     1      -6.287   7.444  -8.788  0.00  0.00    +0.337 A 
ATOM     14  O   UNL     1      -6.998   7.811  -9.706  0.00  0.00    -0.245 OA
ATOM     15  O   UNL     1      -4.986   7.213  -9.020  0.00  0.00    -0.422 OA
ATOM     16  C   UNL     1      -4.156   6.804  -8.036  0.00  0.00    +0.143 A 
ATOM     17  C   UNL     1      -2.814   6.569  -8.293  0.00  0.00    +0.093 A 
ATOM     18  C   UNL     1      -1.979   6.155  -7.268  0.00  0.00    +0.129 A 
BRANCH  18  19
ATOM     19  O   UNL     1      -0.664   5.929  -7.520  0.00  0.00    -0.495 OA
ATOM     20  C   UNL     1      -0.214   6.145  -8.859  0.00  0.00    +0.277 C 
ENDBRANCH  18  19
ENDBRANCH   7   8
BRANCH   7  21
ATOM     21  O   UNL     1      -2.078   5.926  -3.618  0.00  0.00    -0.384 OA
ATOM     22  H   UNL     1      -2.226   6.997  -3.414  0.00  0.00    +0.210 HD
ENDBRANCH   7  21
ENDBRANCH   4   7
ENDBRANCH   2   4
BRANCH   2  23
ATOM     23  O   UNL     1      -1.081   3.918  -2.518  0.00  0.00    -0.340 OA
BRANCH  23  24
ATOM     24  C   UNL     1      -0.310   3.507  -1.387  0.00  0.00    +0.282 C 
ATOM     25  C   UNL     1      -0.759   4.292  -0.151  0.00  0.00    +0.201 C 
ATOM     26  C   UNL     1       0.029   3.803   1.068  0.00  0.00    +0.179 C 
ATOM     27  C   UNL     1      -0.182   2.295   1.229  0.00  0.00    +0.177 C 
ATOM     28  C   UNL     1       0.245   1.588  -0.061  0.00  0.00    +0.178 C 
ATOM     29  O   UNL     1      -0.505   2.110  -1.159  0.00  0.00    -0.341 OA
BRANCH  27  30
ATOM     30  O   UNL     1       0.607   1.815   2.319  0.00  0.00    -0.386 OA
ATOM     31  H   UNL     1       0.585   0.749   2.587  0.00  0.00    +0.210 HD
ENDBRANCH  27  30
BRANCH  26  32
ATOM     32  O   UNL     1      -0.435   4.478   2.239  0.00  0.00    -0.386 OA
ATOM     33  H   UNL     1       0.017   4.256   3.217  0.00  0.00    +0.210 HD
ENDBRANCH  26  32
BRANCH  25  34
ATOM     34  O   UNL     1      -0.512   5.684  -0.353  0.00  0.00    -0.384 OA
ATOM     35  H   UNL     1      -0.772   6.409   0.433  0.00  0.00    +0.210 HD
ENDBRANCH  25  34
BRANCH  28  36
ATOM     36  C   UNL     1      -0.019   0.086   0.070  0.00  0.00    +0.190 C 
BRANCH  36  37
ATOM     37  O   UNL     1       0.484  -0.588  -1.086  0.00  0.00    -0.392 OA
ATOM     38  H   UNL     1       0.385  -1.680  -1.172  0.00  0.00    +0.210 HD
ENDBRANCH  36  37
ENDBRANCH  28  36
ENDBRANCH  23  24
ENDBRANCH   2  23
TORSDOF 13
