REMARK  Name = ZINC06761071
REMARK  11 active torsions:
REMARK  status: ('A' for Active; 'I' for Inactive)
REMARK    1  A    between atoms: C_2  and  C_30
REMARK    2  A    between atoms: C_5  and  O_13
REMARK    3  A    between atoms: C_7  and  O_12
REMARK    4  A    between atoms: C_9  and  O_11
REMARK    5  A    between atoms: O_13  and  C_14
REMARK    6  A    between atoms: C_16  and  C_28
REMARK    7  A    between atoms: C_19  and  O_27
REMARK    8  A    between atoms: C_21  and  O_26
REMARK    9  A    between atoms: C_23  and  O_25
REMARK   10  A    between atoms: C_28  and  O_29
REMARK   11  A    between atoms: C_30  and  O_31
REMARK                            x       y       z     vdW  Elec       q    Type
REMARK                         _______ _______ _______ _____ _____    ______ ____
ROOT
ATOM      1  C   UNL     1       1.419   1.953  -0.001  0.00  0.00    +0.183 C 
ATOM      2  C   UNL     1      -0.017   1.425   0.010  0.00  0.00    +0.178 C 
ATOM      3  O   UNL     1       0.002  -0.004   0.002  0.00  0.00    -0.341 OA
ATOM      4  C   UNL     1       0.628  -0.573  -1.150  0.00  0.00    +0.279 C 
ATOM      5  C   UNL     1       2.091  -0.124  -1.207  0.00  0.00    +0.201 C 
ATOM      6  C   UNL     1       2.147   1.406  -1.233  0.00  0.00    +0.179 C 
ENDROOT
BRANCH   6   7
ATOM      7  O   UNL     1       3.510   1.835  -1.212  0.00  0.00    -0.386 OA
ATOM      8  H   UNL     1       4.033   1.518  -1.962  0.00  0.00    +0.210 HD
ENDBRANCH   6   7
BRANCH   5   9
ATOM      9  O   UNL     1       2.785  -0.610  -0.056  0.00  0.00    -0.384 OA
ATOM     10  H   UNL     1       2.785  -1.573   0.026  0.00  0.00    +0.210 HD
ENDBRANCH   5   9
BRANCH   4  11
ATOM     11  O   UNL     1       0.569  -1.998  -1.069  0.00  0.00    -0.365 OA
ATOM     12  H   UNL     1      -0.329  -2.353  -1.029  0.00  0.00    +0.213 HD
ENDBRANCH   4  11
BRANCH   1  13
ATOM     13  O   UNL     1       2.095   1.524   1.183  0.00  0.00    -0.340 OA
BRANCH  13  17
ATOM     14  C   UNL     1       2.352   2.767   4.395  0.00  0.00    +0.068 C 
ATOM     15  C   UNL     1       1.596   3.393   3.220  0.00  0.00    +0.149 C 
ATOM     16  O   UNL     1       2.501   3.615   2.137  0.00  0.00    -0.343 OA
ATOM     17  C   UNL     1       3.110   2.425   1.632  0.00  0.00    +0.282 C 
ATOM     18  C   UNL     1       3.927   1.760   2.743  0.00  0.00    +0.199 C 
ATOM     19  C   UNL     1       3.009   1.463   3.933  0.00  0.00    +0.150 C 
BRANCH  19  20
ATOM     20  O   UNL     1       1.999   0.533   3.537  0.00  0.00    -0.389 OA
ATOM     21  H   UNL     1       1.377   0.304   4.241  0.00  0.00    +0.210 HD
ENDBRANCH  19  20
BRANCH  18  22
ATOM     22  O   UNL     1       4.489   0.540   2.257  0.00  0.00    -0.384 OA
ATOM     23  H   UNL     1       5.021   0.065   2.911  0.00  0.00    +0.210 HD
ENDBRANCH  18  22
BRANCH  15  24
ATOM     24  C   UNL     1       0.986   4.726   3.657  0.00  0.00    +0.187 C 
BRANCH  24  25
ATOM     25  O   UNL     1       0.186   5.255   2.598  0.00  0.00    -0.392 OA
ATOM     26  H   UNL     1      -0.233   6.101   2.806  0.00  0.00    +0.210 HD
ENDBRANCH  24  25
ENDBRANCH  15  24
ENDBRANCH  13  17
ENDBRANCH   1  13
BRANCH   2  27
ATOM     27  C   UNL     1      -0.733   1.919   1.269  0.00  0.00    +0.190 C 
BRANCH  27  28
ATOM     28  O   UNL     1      -2.105   1.522   1.223  0.00  0.00    -0.392 OA
ATOM     29  H   UNL     1      -2.621   1.802   1.991  0.00  0.00    +0.210 HD
ENDBRANCH  27  28
ENDBRANCH   2  27
TORSDOF 11
