REMARK  Name = ZINC34686845
REMARK  11 active torsions:
REMARK  status: ('A' for Active; 'I' for Inactive)
REMARK    1  A    between atoms: C_1  and  C_2
REMARK    2  A    between atoms: C_2  and  C_3
REMARK    3  A    between atoms: C_11  and  O_23
REMARK    4  A    between atoms: C_14  and  C_16
REMARK    5  A    between atoms: C_19  and  C_22
REMARK    6  A    between atoms: O_23  and  C_24
REMARK    7  A    between atoms: C_24  and  C_25
REMARK    8  A    between atoms: C_27  and  C_30
REMARK    9  A    between atoms: N_32  and  C_33
REMARK   10  A    between atoms: C_33  and  C_34
REMARK   11  A    between atoms: C_34  and  C_35
REMARK                            x       y       z     vdW  Elec       q    Type
REMARK                         _______ _______ _______ _____ _____    ______ ____
ROOT
ATOM      1  C   UNL     1       0.868  -0.249  -1.511  0.00  0.00    +0.216 C 
ATOM      2  O   UNL     1       1.292   0.389  -2.451  0.00  0.00    -0.276 OA
ATOM      3  N   UNL     1       0.941  -1.595  -1.523  0.00  0.00    -0.290 N 
ATOM      4  C   UNL     1       0.430  -2.399  -0.400  0.00  0.00    +0.113 C 
ATOM      5  C   UNL     1      -0.733  -3.243  -0.918  0.00  0.00    +0.054 C 
ATOM      6  C   UNL     1      -0.367  -3.925  -2.210  0.00  0.00    -0.040 A 
ATOM      7  C   UNL     1      -1.116  -5.035  -2.587  0.00  0.00    +0.007 A 
ATOM      8  C   UNL     1      -0.842  -5.702  -3.761  0.00  0.00    +0.046 A 
ATOM      9  C   UNL     1       0.190  -5.263  -4.578  0.00  0.00    +0.122 A 
ATOM     10  C   UNL     1       0.938  -4.160  -4.202  0.00  0.00    +0.051 A 
ATOM     11  C   UNL     1       0.663  -3.494  -3.016  0.00  0.00    -0.016 A 
ATOM     12  C   UNL     1       1.528  -2.317  -2.656  0.00  0.00    +0.137 C 
ENDROOT
BRANCH  12  13
ATOM     13  C   UNL     1       2.903  -2.808  -2.281  0.00  0.00    -0.023 A 
ATOM     14  C   UNL     1       4.016  -2.306  -2.930  0.00  0.00    +0.006 A 
ATOM     15  C   UNL     1       5.277  -2.755  -2.586  0.00  0.00    +0.004 A 
ATOM     16  C   UNL     1       5.425  -3.706  -1.593  0.00  0.00    -0.050 A 
ATOM     17  C   UNL     1       4.312  -4.207  -0.944  0.00  0.00    +0.004 A 
ATOM     18  C   UNL     1       3.051  -3.754  -1.285  0.00  0.00    +0.006 A 
ATOM     19  C   UNL     1       6.800  -4.197  -1.219  0.00  0.00    +0.044 C 
ENDBRANCH  12  13
BRANCH   1  21
ATOM     20  C   UNL     1       0.299   1.973  -0.570  0.00  0.00    +0.013 C 
ATOM     21  C   UNL     1       0.259   0.463  -0.331  0.00  0.00    +0.092 C 
ENDBRANCH   1  21
BRANCH   9  22
ATOM     22  O   UNL     1       0.465  -5.912  -5.740  0.00  0.00    -0.483 OA
BRANCH  22  23
ATOM     23  C   UNL     1      -0.349  -7.042  -6.061  0.00  0.00    +0.324 C 
BRANCH  23  24
ATOM     24  C   UNL     1       0.100  -7.628  -7.374  0.00  0.00    +0.234 A 
ATOM     25  N   UNL     1       0.997  -8.557  -7.516  0.00  0.00    -0.206 NA
ATOM     26  C   UNL     1       1.133  -8.827  -8.843  0.00  0.00    +0.164 A 
ATOM     27  C   UNL     1       0.270  -8.011  -9.507  0.00  0.00    +0.230 A 
ATOM     28  O   UNL     1      -0.367  -7.277  -8.581  0.00  0.00    -0.444 OA
BRANCH  26  29
ATOM     29  C   UNL     1       2.044  -9.816  -9.447  0.00  0.00    +0.266 C 
ATOM     30  O   UNL     1       2.071  -9.960 -10.654  0.00  0.00    -0.268 OA
ATOM     31  N   UNL     1       2.848 -10.559  -8.661  0.00  0.00    -0.310 N 
ATOM     32  H   UNL     1       2.827 -10.444  -7.698  0.00  0.00    +0.149 HD
BRANCH  31  33
ATOM     33  C   UNL     1       3.754 -11.542  -9.261  0.00  0.00    +0.110 C 
BRANCH  33  34
ATOM     34  C   UNL     1       4.548 -12.245  -8.158  0.00  0.00    +0.074 C 
BRANCH  34  35
ATOM     35  C   UNL     1       5.479 -13.255  -8.775  0.00  0.00    +0.043 A 
ATOM     36  C   UNL     1       6.831 -13.202  -8.491  0.00  0.00    +0.023 A 
ATOM     37  C   UNL     1       7.679 -14.137  -9.064  0.00  0.00    +0.003 A 
ATOM     38  C   UNL     1       7.134 -15.095  -9.905  0.00  0.00    +0.020 A 
ATOM     39  C   UNL     1       5.773 -15.086 -10.143  0.00  0.00    +0.111 A 
ATOM     40  N   UNL     1       4.995 -14.184  -9.576  0.00  0.00    -0.260 NA
ENDBRANCH  34  35
ENDBRANCH  33  34
ENDBRANCH  31  33
ENDBRANCH  26  29
ENDBRANCH  23  24
ENDBRANCH  22  23
ENDBRANCH   9  22
TORSDOF 9
