REMARK  Name = ZINC35427305
REMARK  7 active torsions:
REMARK  status: ('A' for Active; 'I' for Inactive)
REMARK    1  A    between atoms: C_1  and  C_2
REMARK    2  A    between atoms: C_5  and  C_38
REMARK    3  A    between atoms: C_6  and  N_8
REMARK    4  A    between atoms: C_23  and  C_25
REMARK    5  A    between atoms: C_29  and  O_31
REMARK    6  A    between atoms: O_31  and  C_32
REMARK    7  A    between atoms: N_34  and  C_37
REMARK                            x       y       z     vdW  Elec       q    Type
REMARK                         _______ _______ _______ _____ _____    ______ ____
ROOT
ATOM      1  N   UNL     1       0.027  -1.739   2.354  0.00  0.00    -0.269 N 
ATOM      2  C   UNL     1       0.097  -1.439   3.666  0.00  0.00    +0.308 C 
ATOM      3  O   UNL     1      -0.017  -0.285   4.032  0.00  0.00    -0.252 OA
ATOM      4  N   UNL     1       0.293  -2.417   4.572  0.00  0.00    -0.268 N 
ATOM      5  C   UNL     1       0.442  -3.826   4.167  0.00  0.00    +0.148 C 
ATOM      6  C   UNL     1       1.498  -4.557   4.966  0.00  0.00    +0.004 A 
ATOM      7  C   UNL     1       2.723  -4.981   4.419  0.00  0.00    -0.034 A 
ATOM      8  C   UNL     1       3.585  -5.650   5.232  0.00  0.00    -0.021 A 
ATOM      9  S   UNL     1       2.739  -5.708   6.789  0.00  0.00    -0.077 S 
ATOM     10  C   UNL     1       1.289  -4.833   6.283  0.00  0.00    +0.090 A 
ATOM     11  N   UNL     1       0.158  -4.447   6.990  0.00  0.00    -0.312 N 
ATOM     12  C   UNL     1      -0.638  -5.125   7.849  0.00  0.00    +0.092 A 
ATOM     13  C   UNL     1      -1.654  -4.310   8.211  0.00  0.00    +0.020 A 
ATOM     14  C   UNL     1      -1.459  -3.072   7.560  0.00  0.00    +0.025 A 
ATOM     15  C   UNL     1      -0.333  -3.171   6.839  0.00  0.00    +0.049 A 
ATOM     16  C   UNL     1       0.376  -2.126   6.024  0.00  0.00    +0.155 C 
ATOM     17  C   UNL     1       4.925  -6.196   4.863  0.00  0.00    -0.036 C 
ATOM     18  N   UNL     1       5.026  -6.223   3.392  0.00  0.00    +0.381 N 
ATOM     19  C   UNL     1       4.635  -4.914   2.852  0.00  0.00    -0.074 C 
ATOM     20  C   UNL     1       3.120  -4.722   2.967  0.00  0.00    +0.018 C 
ATOM     21  C   UNL     1       6.410  -6.521   3.001  0.00  0.00    -0.096 C 
ATOM     22  H   UNL     1       0.043  -2.666   2.067  0.00  0.00    +0.156 HD
ATOM     23  H   UNL     1       4.412  -6.935   3.025  0.00  0.00    -0.082 HD
ENDROOT
BRANCH   1  29
ATOM     24  C   UNL     1       0.656   2.986   1.149  0.00  0.00    +0.044 C 
ATOM     25  C   UNL     1       0.229   1.585   0.795  0.00  0.00    -0.049 A 
ATOM     26  C   UNL     1      -0.259   1.310  -0.470  0.00  0.00    +0.004 A 
ATOM     27  C   UNL     1      -0.652   0.026  -0.799  0.00  0.00    +0.005 A 
ATOM     28  C   UNL     1      -0.558  -0.987   0.135  0.00  0.00    -0.029 A 
ATOM     29  C   UNL     1      -0.069  -0.715   1.405  0.00  0.00    +0.038 A 
ATOM     30  C   UNL     1       0.330   0.575   1.731  0.00  0.00    +0.027 A 
ATOM     31  C   UNL     1      -0.987  -2.386  -0.225  0.00  0.00    +0.045 C 
ENDBRANCH   1  29
BRANCH  16  32
ATOM     32  C   UNL     1       1.826  -2.078   6.433  0.00  0.00    -0.018 A 
ATOM     33  C   UNL     1       2.802  -1.820   5.488  0.00  0.00    +0.006 A 
ATOM     34  C   UNL     1       4.133  -1.775   5.860  0.00  0.00    +0.004 A 
ATOM     35  C   UNL     1       4.491  -1.989   7.177  0.00  0.00    +0.045 A 
ATOM     36  C   UNL     1       3.513  -2.248   8.127  0.00  0.00    +0.120 A 
ATOM     37  C   UNL     1       2.178  -2.286   7.752  0.00  0.00    +0.051 A 
BRANCH  36  38
ATOM     38  O   UNL     1       3.863  -2.458   9.423  0.00  0.00    -0.495 OA
ATOM     39  C   UNL     1       5.255  -2.397   9.738  0.00  0.00    +0.277 C 
ENDBRANCH  36  38
ENDBRANCH  16  32
TORSDOF 3
