REMARK  Name = ZINC36888134
REMARK  4 active torsions:
REMARK  status: ('A' for Active; 'I' for Inactive)
REMARK    1  A    between atoms: C_3  and  O_11
REMARK    2  A    between atoms: C_6  and  C_7
REMARK    3  A    between atoms: O_11  and  C_12
REMARK    4  A    between atoms: C_15  and  C_19
REMARK                            x       y       z     vdW  Elec       q    Type
REMARK                         _______ _______ _______ _____ _____    ______ ____
ROOT
ATOM      1  C   UNL     1       4.707   1.401   0.069  0.00  0.00    +0.163 A 
ATOM      2  C   UNL     1       4.679   0.013   0.054  0.00  0.00    +0.050 A 
ATOM      3  C   UNL     1       5.852  -0.703   0.145  0.00  0.00    +0.015 A 
ATOM      4  C   UNL     1       7.072  -0.032   0.252  0.00  0.00    +0.015 A 
ATOM      5  C   UNL     1       7.099   1.364   0.266  0.00  0.00    +0.053 A 
ATOM      6  C   UNL     1       5.921   2.075   0.169  0.00  0.00    +0.166 A 
ATOM      7  F   UNL     1       5.945   3.426   0.178  0.00  0.00    -0.202 F 
ENDROOT
BRANCH   4   8
ATOM      8  C   UNL     1       8.332  -0.798   0.350  0.00  0.00    +0.094 C 
ATOM      9  N   UNL     1       9.495  -0.156   0.452  0.00  0.00    -0.387 N 
ATOM     10  N   UNL     1       8.305  -2.130   0.337  0.00  0.00    -0.345 N 
ATOM     11  H   UNL     1       9.515   0.814   0.462  0.00  0.00    +0.157 HD
ATOM     12  H   UNL     1       7.459  -2.597   0.262  0.00  0.00    +0.144 HD
ATOM     13  H   UNL     1       9.133  -2.632   0.401  0.00  0.00    +0.144 HD
ATOM     14  H   UNL     1      10.323  -0.658   0.516  0.00  0.00    +0.157 HD
ENDBRANCH   4   8
BRANCH   1  15
ATOM     15  O   UNL     1       3.548   2.103  -0.021  0.00  0.00    -0.453 OA
BRANCH  15  18
ATOM     16  C   UNL     1       0.796   0.056   1.192  0.00  0.00    +0.016 A 
ATOM     17  C   UNL     1       1.985   0.759   1.166  0.00  0.00    +0.047 A 
ATOM     18  C   UNL     1       2.379   1.411   0.007  0.00  0.00    +0.129 A 
ATOM     19  C   UNL     1       1.577   1.356  -1.124  0.00  0.00    +0.047 A 
ATOM     20  C   UNL     1       0.389   0.652  -1.093  0.00  0.00    +0.016 A 
ATOM     21  C   UNL     1      -0.001   0.003   0.063  0.00  0.00    +0.055 A 
BRANCH  21  22
ATOM     22  C   UNL     1      -1.298  -0.765   0.094  0.00  0.00    +0.417 C 
ATOM     23  F   UNL     1      -2.333   0.085   0.500  0.00  0.00    -0.166 F 
ATOM     24  F   UNL     1      -1.576  -1.262  -1.183  0.00  0.00    -0.166 F 
ATOM     25  F   UNL     1      -1.188  -1.829   0.995  0.00  0.00    -0.166 F 
ENDBRANCH  21  22
ENDBRANCH  15  18
ENDBRANCH   1  15
TORSDOF 4
