REMARK  Name = ZINC27520245
REMARK  10 active torsions:
REMARK  status: ('A' for Active; 'I' for Inactive)
REMARK    1  A    between atoms: C_1  and  C_2
REMARK    2  A    between atoms: C_2  and  O_3
REMARK    3  A    between atoms: O_3  and  C_4
REMARK    4  A    between atoms: C_4  and  C_6
REMARK    5  A    between atoms: C_10  and  N_11
REMARK    6  A    between atoms: C_13  and  C_24
REMARK    7  A    between atoms: C_19  and  O_22
REMARK    8  A    between atoms: O_22  and  C_23
REMARK    9  A    between atoms: N_26  and  C_27
REMARK   10  A    between atoms: C_31  and  C_33
REMARK                            x       y       z     vdW  Elec       q    Type
REMARK                         _______ _______ _______ _____ _____    ______ ____
ROOT
ATOM      1  N   UNL     1      -2.576  -0.171  -3.331  0.00  0.00    -0.319 N 
ATOM      2  C   UNL     1      -3.409  -0.745  -4.180  0.00  0.00    +0.212 A 
ATOM      3  C   UNL     1      -3.921  -2.107  -3.941  0.00  0.00    +0.098 A 
ATOM      4  C   UNL     1      -5.143  -2.437  -4.516  0.00  0.00    +0.030 A 
ATOM      5  C   UNL     1      -5.788  -1.463  -5.323  0.00  0.00    +0.022 A 
ATOM      6  C   UNL     1      -7.108  -1.660  -5.756  0.00  0.00    +0.012 A 
ATOM      7  C   UNL     1      -7.738  -0.690  -6.481  0.00  0.00    +0.004 A 
ATOM      8  C   UNL     1      -7.083   0.489  -6.804  0.00  0.00    +0.049 A 
ATOM      9  C   UNL     1      -5.773   0.697  -6.408  0.00  0.00    +0.163 A 
ATOM     10  C   UNL     1      -5.109  -0.283  -5.675  0.00  0.00    +0.179 A 
ATOM     11  O   UNL     1      -3.817  -0.105  -5.304  0.00  0.00    -0.435 OA
ATOM     12  H   UNL     1      -2.257  -0.707  -2.425  0.00  0.00    +0.169 HD
ENDROOT
BRANCH   1  17
ATOM     13  C   UNL     1      -1.238   1.851  -2.810  0.00  0.00    +0.093 A 
ATOM     14  C   UNL     1      -0.910   3.177  -3.307  0.00  0.00    -0.021 A 
ATOM     15  C   UNL     1      -1.481   3.536  -4.479  0.00  0.00    -0.004 A 
ATOM     16  S   UNL     1      -2.474   2.147  -4.952  0.00  0.00    -0.075 S 
ATOM     17  C   UNL     1      -2.118   1.072  -3.575  0.00  0.00    +0.095 A 
ATOM     18  C   UNL     1      -1.311   4.833  -5.209  0.00  0.00    +0.043 C 
ATOM     19  C   UNL     1      -0.689   5.855  -4.242  0.00  0.00    +0.005 C 
ATOM     20  C   UNL     1       0.511   5.200  -3.553  0.00  0.00    +0.005 C 
ATOM     21  C   UNL     1       0.028   4.131  -2.573  0.00  0.00    +0.037 C 
BRANCH  13  22
ATOM     22  C   UNL     1      -0.693   1.367  -1.594  0.00  0.00    +0.342 C 
ATOM     23  O   UNL     1       0.358   0.754  -1.600  0.00  0.00    -0.245 OA
BRANCH  22  24
ATOM     24  O   UNL     1      -1.341   1.585  -0.430  0.00  0.00    -0.461 OA
BRANCH  24  26
ATOM     25  C   UNL     1      -1.607   1.411   1.966  0.00  0.00    +0.048 C 
ATOM     26  C   UNL     1      -0.734   1.068   0.756  0.00  0.00    +0.229 C 
ENDBRANCH  24  26
ENDBRANCH  22  24
ENDBRANCH  13  22
ENDBRANCH   1  17
BRANCH   3  27
ATOM     27  C   UNL     1      -3.171  -3.075  -3.122  0.00  0.00    +0.253 C 
ATOM     28  O   UNL     1      -2.106  -2.757  -2.628  0.00  0.00    -0.270 OA
ATOM     29  N   UNL     1      -3.664  -4.313  -2.921  0.00  0.00    -0.281 N 
ATOM     30  H   UNL     1      -4.665  -4.573  -3.294  0.00  0.00    +0.155 HD
BRANCH  29  31
ATOM     31  C   UNL     1      -2.902  -5.266  -2.238  0.00  0.00    +0.034 A 
ATOM     32  C   UNL     1      -3.528  -6.214  -1.438  0.00  0.00    +0.023 A 
ATOM     33  C   UNL     1      -2.774  -7.155  -0.765  0.00  0.00    +0.002 A 
ATOM     34  C   UNL     1      -1.396  -7.154  -0.888  0.00  0.00    +0.003 A 
ATOM     35  C   UNL     1      -0.770  -6.212  -1.683  0.00  0.00    -0.049 A 
ATOM     36  C   UNL     1      -1.519  -5.271  -2.362  0.00  0.00    +0.026 A 
ATOM     37  C   UNL     1       0.732  -6.215  -1.813  0.00  0.00    +0.044 C 
ENDBRANCH  29  31
ENDBRANCH   3  27
BRANCH   9  38
ATOM     38  O   UNL     1      -5.136   1.854  -6.734  0.00  0.00    -0.491 OA
ATOM     39  C   UNL     1      -5.880   2.813  -7.488  0.00  0.00    +0.277 C 
ENDBRANCH   9  38
TORSDOF 7
