REMARK  Name = ZINC59104054
REMARK  8 active torsions:
REMARK  status: ('A' for Active; 'I' for Inactive)
REMARK    1  A    between atoms: C_1  and  C_2
REMARK    2  A    between atoms: C_6  and  N_8
REMARK    3  A    between atoms: N_8  and  C_9
REMARK    4  A    between atoms: C_18  and  C_20
REMARK    5  A    between atoms: C_23  and  O_28
REMARK    6  A    between atoms: C_24  and  O_26
REMARK    7  A    between atoms: O_26  and  C_27
REMARK    8  A    between atoms: O_28  and  C_29
REMARK                            x       y       z     vdW  Elec       q    Type
REMARK                         _______ _______ _______ _____ _____    ______ ____
ROOT
ATOM      1  C   UNL     1       0.069  -4.167   2.380  0.00  0.00    +0.092 C 
ATOM      2  C   UNL     1       0.083  -4.853   3.549  0.00  0.00    +0.094 A 
ATOM      3  C   UNL     1       0.077  -4.362   4.880  0.00  0.00    +0.269 A 
ATOM      4  O   UNL     1       0.053  -3.163   5.092  0.00  0.00    -0.266 OA
ATOM      5  N   UNL     1       0.096  -5.227   5.900  0.00  0.00    -0.275 N 
ATOM      6  C   UNL     1       0.113  -6.579   5.606  0.00  0.00    +0.178 A 
ATOM      7  N   UNL     1       0.122  -7.518   6.502  0.00  0.00    -0.223 NA
ATOM      8  C   UNL     1       0.117  -7.298   7.843  0.00  0.00    +0.076 C 
ATOM      9  C   UNL     1       0.125  -6.043   8.327  0.00  0.00    -0.016 C 
ATOM     10  C   UNL     1       0.103  -4.892   7.351  0.00  0.00    +0.151 C 
ATOM     11  C   UNL     1       0.185  -5.784   9.805  0.00  0.00    +0.040 C 
ATOM     12  C   UNL     1      -0.617  -6.830  10.574  0.00  0.00    +0.040 C 
ATOM     13  C   UNL     1      -0.229  -8.214  10.126  0.00  0.00    -0.038 A 
ATOM     14  C   UNL     1       0.115  -8.437   8.794  0.00  0.00    +0.004 A 
ATOM     15  C   UNL     1       0.454  -9.717   8.367  0.00  0.00    +0.010 A 
ATOM     16  C   UNL     1       0.459 -10.761   9.273  0.00  0.00    +0.001 A 
ATOM     17  C   UNL     1       0.129 -10.533  10.596  0.00  0.00    +0.000 A 
ATOM     18  C   UNL     1      -0.214  -9.262  11.023  0.00  0.00    +0.004 A 
ATOM     19  S   UNL     1       0.107  -6.618   3.825  0.00  0.00    -0.045 S 
ENDROOT
BRANCH  10  20
ATOM     20  C   UNL     1       1.312  -4.033   7.621  0.00  0.00    -0.017 A 
ATOM     21  C   UNL     1       2.513  -4.317   6.998  0.00  0.00    +0.010 A 
ATOM     22  C   UNL     1       3.625  -3.532   7.243  0.00  0.00    +0.050 A 
ATOM     23  C   UNL     1       3.536  -2.458   8.114  0.00  0.00    +0.162 A 
ATOM     24  C   UNL     1       2.327  -2.172   8.741  0.00  0.00    +0.162 A 
ATOM     25  C   UNL     1       1.216  -2.960   8.487  0.00  0.00    +0.055 A 
BRANCH  24  26
ATOM     26  O   UNL     1       2.235  -1.119   9.596  0.00  0.00    -0.491 OA
ATOM     27  C   UNL     1       0.963  -0.885  10.203  0.00  0.00    +0.277 C 
ENDBRANCH  24  26
BRANCH  23  28
ATOM     28  O   UNL     1       4.629  -1.685   8.356  0.00  0.00    -0.491 OA
ATOM     29  C   UNL     1       5.836  -2.038   7.678  0.00  0.00    +0.277 C 
ENDBRANCH  23  28
ENDBRANCH  10  20
BRANCH   1  30
ATOM     30  N   UNL     1       0.050  -2.797   2.390  0.00  0.00    -0.319 N 
ATOM     31  H   UNL     1       0.048  -2.318   3.234  0.00  0.00    +0.152 HD
BRANCH  30  37
ATOM     32  C   UNL     1      -0.018   1.503   0.010  0.00  0.00    +0.044 C 
ATOM     33  C   UNL     1       0.002  -0.004   0.002  0.00  0.00    -0.049 A 
ATOM     34  C   UNL     1       0.006  -0.688  -1.200  0.00  0.00    +0.003 A 
ATOM     35  C   UNL     1       0.024  -2.071  -1.212  0.00  0.00    +0.002 A 
ATOM     36  C   UNL     1       0.039  -2.773  -0.023  0.00  0.00    +0.023 A 
ATOM     37  C   UNL     1       0.035  -2.090   1.186  0.00  0.00    +0.031 A 
ATOM     38  C   UNL     1       0.023  -0.700   1.194  0.00  0.00    +0.026 A 
ENDBRANCH  30  37
ENDBRANCH   1  30
TORSDOF 5
