REMARK  Name = ZINC41677751
REMARK  3 active torsions:
REMARK  status: ('A' for Active; 'I' for Inactive)
REMARK    1  A    between atoms: C_5  and  C_6
REMARK    2  A    between atoms: C_6  and  C_8
REMARK    3  A    between atoms: C_6  and  N_11
REMARK                            x       y       z     vdW  Elec       q    Type
REMARK                         _______ _______ _______ _____ _____    ______ ____
ROOT
ATOM      1  C   UNL     1      -1.156  -0.969   0.008  0.00  0.00    +0.180 C 
ENDROOT
BRANCH   1   2
ATOM      2  N   UNL     1      -0.844  -2.102   0.889  0.00  0.00    -0.291 NA
ATOM      3  C   UNL     1      -0.516  -1.640   2.246  0.00  0.00    +0.066 C 
ATOM      4  C   UNL     1      -0.140  -2.843   3.114  0.00  0.00    -0.067 C 
ATOM      5  N   UNL     1      -1.266  -3.786   3.158  0.00  0.00    +0.381 N 
ATOM      6  C   UNL     1      -1.566  -4.257   1.800  0.00  0.00    -0.067 C 
ATOM      7  C   UNL     1      -1.953  -3.066   0.920  0.00  0.00    +0.066 C 
ATOM      8  H   UNL     1      -1.022  -4.573   3.741  0.00  0.00    -0.086 HD
ATOM      9  H   UNL     1      -2.077  -3.323   3.540  0.00  0.00    -0.086 HD
ENDBRANCH   1   2
BRANCH   1  14
ATOM     10  C   UNL     1      -0.016   1.351   0.009  0.00  0.00    +0.028 A 
ATOM     11  C   UNL     1       1.184   2.038   0.002  0.00  0.00    +0.025 A 
ATOM     12  C   UNL     1       2.343   1.335  -0.013  0.00  0.00    +0.060 A 
ATOM     13  S   UNL     1       1.753  -0.350  -0.017  0.00  0.00    -0.098 S 
ATOM     14  C   UNL     1       0.002  -0.004   0.002  0.00  0.00    +0.017 A 
ATOM     15 BR   UNL     1       1.208   3.929   0.011  0.00  0.00    -0.050 Br
ENDBRANCH   1  14
BRANCH   1  16
ATOM     16  C   UNL     1      -1.397  -1.472  -1.391  0.00  0.00    +0.233 C 
ATOM     17  O   UNL     1      -1.318  -2.659  -1.631  0.00  0.00    -0.274 OA
ATOM     18  N   UNL     1      -1.702  -0.605  -2.377  0.00  0.00    -0.328 N 
ATOM     19  H   UNL     1      -1.766   0.344  -2.185  0.00  0.00    +0.145 HD
ATOM     20  H   UNL     1      -1.858  -0.929  -3.277  0.00  0.00    +0.145 HD
ENDBRANCH   1  16
TORSDOF 3
