REMARK  Name = ZINC34748678
REMARK  11 active torsions:
REMARK  status: ('A' for Active; 'I' for Inactive)
REMARK    1  A    between atoms: C_1  and  C_2
REMARK    2  A    between atoms: C_2  and  N_3
REMARK    3  A    between atoms: N_3  and  C_4
REMARK    4  A    between atoms: C_4  and  C_5
REMARK    5  A    between atoms: C_6  and  C_8
REMARK    6  A    between atoms: C_8  and  N_9
REMARK    7  A    between atoms: C_19  and  C_23
REMARK    8  A    between atoms: C_20  and  C_22
REMARK    9  A    between atoms: N_26  and  C_27
REMARK   10  A    between atoms: C_27  and  C_28
REMARK   11  A    between atoms: N_30  and  C_31
REMARK                            x       y       z     vdW  Elec       q    Type
REMARK                         _______ _______ _______ _____ _____    ______ ____
ROOT
ATOM      1  N   UNL     1       4.733  -1.161   0.681  0.00  0.00    +0.387 N 
ATOM      2  C   UNL     1       6.066  -1.417   0.122  0.00  0.00    -0.059 C 
ATOM      3  C   UNL     1       6.994  -1.929   1.228  0.00  0.00    +0.089 C 
ATOM      4  N   UNL     1       6.977  -0.961   2.336  0.00  0.00    -0.304 N 
ATOM      5  C   UNL     1       5.671  -0.522   2.852  0.00  0.00    +0.089 C 
ATOM      6  C   UNL     1       4.806  -0.076   1.669  0.00  0.00    -0.059 C 
ATOM      7  C   UNL     1       8.146  -0.482   2.873  0.00  0.00    +0.202 A 
ATOM      8  N   UNL     1       8.697   0.600   2.366  0.00  0.00    -0.208 NA
ATOM      9  C   UNL     1       9.828   1.087   2.864  0.00  0.00    +0.117 A 
ATOM     10  C   UNL     1      10.488   0.480   3.949  0.00  0.00    +0.075 A 
ATOM     11  C   UNL     1      11.711   1.141   4.370  0.00  0.00    -0.026 A 
ATOM     12  C   UNL     1      12.115   2.244   3.723  0.00  0.00    -0.008 A 
ATOM     13  S   UNL     1      10.860   2.479   2.480  0.00  0.00    -0.073 S 
ATOM     14  C   UNL     1      13.338   3.085   3.985  0.00  0.00    +0.052 C 
ATOM     15  C   UNL     1      12.516   0.594   5.520  0.00  0.00    +0.045 C 
ATOM     16  C   UNL     1       9.865  -0.695   4.477  0.00  0.00    +0.264 A 
ATOM     17  O   UNL     1      10.365  -1.289   5.417  0.00  0.00    -0.267 OA
ATOM     18  N   UNL     1       8.717  -1.131   3.928  0.00  0.00    -0.271 N 
ATOM     19  H   UNL     1       4.392  -1.999   1.128  0.00  0.00    -0.081 HD
ENDROOT
BRANCH   1  20
ATOM     20  C   UNL     1       3.816  -0.776  -0.400  0.00  0.00    +0.019 C 
BRANCH  20  22
ATOM     21  N   UNL     1       2.842  -1.809  -2.425  0.00  0.00    -0.304 N 
ATOM     22  C   UNL     1       3.645  -1.933  -1.349  0.00  0.00    +0.199 C 
ATOM     23  O   UNL     1       4.229  -2.976  -1.146  0.00  0.00    -0.278 OA
BRANCH  21  25
ATOM     24  C   UNL     1       3.735  -2.852  -4.449  0.00  0.00    +0.024 C 
ATOM     25  C   UNL     1       2.676  -2.934  -3.348  0.00  0.00    +0.104 C 
ENDBRANCH  21  25
BRANCH  21  26
ATOM     26  C   UNL     1       2.136  -0.549  -2.671  0.00  0.00    +0.104 C 
ATOM     27  C   UNL     1       0.773  -0.585  -1.977  0.00  0.00    +0.024 C 
ENDBRANCH  21  26
ENDBRANCH  20  22
ENDBRANCH   1  20
BRANCH  18  28
ATOM     28  C   UNL     1       8.071  -2.329   4.470  0.00  0.00    +0.223 C 
BRANCH  28  29
ATOM     29  C   UNL     1       8.657  -3.554   3.817  0.00  0.00    +0.233 C 
ATOM     30  O   UNL     1       9.528  -3.438   2.981  0.00  0.00    -0.274 OA
ATOM     31  N   UNL     1       8.213  -4.779   4.161  0.00  0.00    -0.311 N 
ATOM     32  H   UNL     1       7.516  -4.872   4.829  0.00  0.00    +0.149 HD
BRANCH  31  33
ATOM     33  C   UNL     1       8.783  -5.970   3.526  0.00  0.00    +0.073 C 
ATOM     34  C   UNL     1      10.055  -6.384   4.268  0.00  0.00    +0.022 C 
ATOM     35  C   UNL     1      10.650  -7.628   3.605  0.00  0.00    +0.002 C 
ATOM     36  C   UNL     1       9.634  -8.771   3.660  0.00  0.00    +0.000 C 
ATOM     37  C   UNL     1       8.361  -8.357   2.918  0.00  0.00    +0.002 C 
ATOM     38  C   UNL     1       7.766  -7.113   3.581  0.00  0.00    +0.022 C 
ENDBRANCH  31  33
ENDBRANCH  28  29
ENDBRANCH  18  28
TORSDOF 7
