REMARK  Name = ZINC53116987
REMARK  7 active torsions:
REMARK  status: ('A' for Active; 'I' for Inactive)
REMARK    1  A    between atoms: C_1  and  C_2
REMARK    2  A    between atoms: C_7  and  C_9
REMARK    3  A    between atoms: C_7  and  N_11
REMARK    4  A    between atoms: C_9  and  O_10
REMARK    5  A    between atoms: N_11  and  C_12
REMARK    6  A    between atoms: C_12  and  C_13
REMARK    7  A    between atoms: C_18  and  C_19
REMARK                            x       y       z     vdW  Elec       q    Type
REMARK                         _______ _______ _______ _____ _____    ______ ____
ROOT
ATOM      1  N   UNL     1       1.545  -2.473   2.418  0.00  0.00    +0.387 N 
ATOM      2  H   UNL     1       1.790  -3.451   2.455  0.00  0.00    -0.085 HD
ATOM      3  H   UNL     1       2.385  -1.918   2.348  0.00  0.00    -0.085 HD
ENDROOT
BRANCH   1   9
ATOM      4  C   UNL     1      -1.149   0.941   0.058  0.00  0.00    +0.007 C 
ATOM      5  C   UNL     1      -0.670  -0.512   0.042  0.00  0.00    -0.015 C 
ATOM      6  C   UNL     1      -1.880  -1.448   0.083  0.00  0.00    +0.003 C 
ATOM      7  C   UNL     1      -1.401  -2.901   0.067  0.00  0.00    -0.001 C 
ATOM      8  C   UNL     1      -0.516  -3.160   1.287  0.00  0.00    -0.010 C 
ATOM      9  C   UNL     1       0.694  -2.224   1.246  0.00  0.00    -0.044 C 
ATOM     10  C   UNL     1       0.216  -0.771   1.263  0.00  0.00    -0.007 C 
BRANCH   9  11
ATOM     11  C   UNL     1       1.497  -2.483  -0.030  0.00  0.00    +0.143 C 
BRANCH  11  12
ATOM     12  O   UNL     1       1.987  -3.825  -0.021  0.00  0.00    -0.396 OA
ATOM     13  H   UNL     1       2.506  -4.059  -0.802  0.00  0.00    +0.209 HD
ENDBRANCH  11  12
ENDBRANCH   9  11
ENDBRANCH   1   9
BRANCH   1  14
ATOM     14  C   UNL     1       0.816  -2.104   3.639  0.00  0.00    -0.042 C 
BRANCH  14  15
ATOM     15  C   UNL     1       1.657  -2.434   4.845  0.00  0.00    -0.019 A 
ATOM     16  C   UNL     1       1.531  -3.528   5.628  0.00  0.00    +0.107 A 
ATOM     17  N   UNL     1       2.467  -3.457   6.599  0.00  0.00    -0.284 N 
ATOM     18  H   UNL     1       2.607  -4.109   7.303  0.00  0.00    +0.188 HD
ATOM     19  N   UNL     1       3.200  -2.277   6.414  0.00  0.00    -0.173 NA
ATOM     20  C   UNL     1       2.720  -1.659   5.354  0.00  0.00    +0.100 A 
BRANCH  20  21
ATOM     21  C   UNL     1       3.206  -0.377   4.799  0.00  0.00    +0.039 A 
ATOM     22  C   UNL     1       3.706   0.713   5.457  0.00  0.00    +0.018 A 
ATOM     23  C   UNL     1       4.103   1.808   4.719  0.00  0.00    +0.008 A 
ATOM     24  C   UNL     1       3.985   1.773   3.368  0.00  0.00    +0.046 A 
ATOM     25  S   UNL     1       3.301   0.146   3.095  0.00  0.00    -0.095 S 
ENDBRANCH  20  21
ENDBRANCH  14  15
ENDBRANCH   1  14
TORSDOF 6
