REMARK  Name = ZINC35959000
REMARK  8 active torsions:
REMARK  status: ('A' for Active; 'I' for Inactive)
REMARK    1  A    between atoms: C_1  and  O_2
REMARK    2  A    between atoms: O_2  and  C_3
REMARK    3  A    between atoms: C_7  and  O_37
REMARK    4  A    between atoms: C_8  and  C_9
REMARK    5  A    between atoms: C_14  and  N_17
REMARK    6  A    between atoms: C_20  and  C_23
REMARK    7  A    between atoms: N_25  and  C_26
REMARK    8  A    between atoms: O_37  and  C_38
REMARK                            x       y       z     vdW  Elec       q    Type
REMARK                         _______ _______ _______ _____ _____    ______ ____
ROOT
ATOM      1  N   UNL     1      -4.016  -6.058   1.450  0.00  0.00    +0.382 N 
ATOM      2  C   UNL     1      -4.925  -5.654   2.529  0.00  0.00    -0.078 C 
ATOM      3  C   UNL     1      -5.503  -6.899   3.208  0.00  0.00    -0.006 C 
ATOM      4  C   UNL     1      -6.271  -7.727   2.174  0.00  0.00    +0.071 C 
ATOM      5  C   UNL     1      -5.332  -8.080   1.017  0.00  0.00    -0.006 C 
ATOM      6  C   UNL     1      -4.761  -6.792   0.419  0.00  0.00    -0.078 C 
ATOM      7  H   UNL     1      -3.293  -6.652   1.827  0.00  0.00    -0.081 HD
ENDROOT
BRANCH   1  13
ATOM      8  C   UNL     1       0.069  -2.829   0.034  0.00  0.00    +0.254 C 
ATOM      9  O   UNL     1       0.722  -3.150  -0.941  0.00  0.00    -0.270 OA
ATOM     10  N   UNL     1      -1.218  -3.218   0.140  0.00  0.00    -0.297 N 
ATOM     11  C   UNL     1      -2.022  -2.834   1.309  0.00  0.00    +0.106 C 
ATOM     12  C   UNL     1      -2.628  -4.098   1.927  0.00  0.00    +0.004 C 
ATOM     13  C   UNL     1      -3.405  -4.863   0.853  0.00  0.00    -0.066 C 
ATOM     14  C   UNL     1      -2.451  -5.284  -0.267  0.00  0.00    +0.004 C 
ATOM     15  C   UNL     1      -1.844  -4.029  -0.913  0.00  0.00    +0.106 C 
BRANCH   8  21
ATOM     16  C   UNL     1       0.625  -0.617   1.040  0.00  0.00    +0.136 A 
ATOM     17  C   UNL     1       1.201   0.137   2.049  0.00  0.00    +0.046 A 
ATOM     18  C   UNL     1       1.836  -0.485   3.107  0.00  0.00    +0.007 A 
ATOM     19  C   UNL     1       1.904  -1.865   3.171  0.00  0.00    +0.046 A 
ATOM     20  C   UNL     1       1.334  -2.638   2.173  0.00  0.00    +0.136 A 
ATOM     21  C   UNL     1       0.682  -2.017   1.098  0.00  0.00    +0.120 A 
BRANCH  16  23
ATOM     22  C   UNL     1      -0.017   1.425   0.010  0.00  0.00    +0.277 C 
ATOM     23  O   UNL     1       0.002  -0.004   0.002  0.00  0.00    -0.494 OA
ENDBRANCH  16  23
BRANCH  20  24
ATOM     24  O   UNL     1       1.402  -3.992   2.239  0.00  0.00    -0.494 OA
ATOM     25  C   UNL     1       2.076  -4.554   3.366  0.00  0.00    +0.277 C 
ENDBRANCH  20  24
ENDBRANCH   8  21
ENDBRANCH   1  13
BRANCH   4  26
ATOM     26  C   UNL     1      -6.776  -8.993   2.817  0.00  0.00    +0.216 C 
ATOM     27  O   UNL     1      -6.545  -9.212   3.987  0.00  0.00    -0.276 OA
ATOM     28  N   UNL     1      -7.484  -9.881   2.092  0.00  0.00    -0.308 N 
ATOM     29  H   UNL     1      -7.669  -9.705   1.156  0.00  0.00    +0.149 HD
BRANCH  28  30
ATOM     30  C   UNL     1      -7.975 -11.111   2.717  0.00  0.00    +0.103 C 
ATOM     31  C   UNL     1      -9.208 -11.603   1.962  0.00  0.00    +0.027 C 
ATOM     32  C   UNL     1      -9.575 -12.995   2.488  0.00  0.00    +0.007 C 
ATOM     33  C   UNL     1      -8.503 -13.982   2.029  0.00  0.00    +0.035 C 
ATOM     34  C   UNL     1      -7.129 -13.471   2.376  0.00  0.00    -0.042 A 
ATOM     35  C   UNL     1      -6.887 -12.152   2.687  0.00  0.00    -0.024 A 
ATOM     36  C   UNL     1      -5.594 -11.745   2.991  0.00  0.00    +0.006 A 
ATOM     37  C   UNL     1      -4.554 -12.651   2.986  0.00  0.00    +0.000 A 
ATOM     38  C   UNL     1      -4.799 -13.976   2.676  0.00  0.00    +0.000 A 
ATOM     39  C   UNL     1      -6.081 -14.382   2.373  0.00  0.00    +0.004 A 
ENDBRANCH  28  30
ENDBRANCH   4  26
TORSDOF 6
