REMARK  Name = ZINC34757292
REMARK  9 active torsions:
REMARK  status: ('A' for Active; 'I' for Inactive)
REMARK    1  A    between atoms: C_1  and  C_2
REMARK    2  A    between atoms: C_2  and  C_3
REMARK    3  A    between atoms: C_3  and  C_4
REMARK    4  A    between atoms: C_4  and  S_5
REMARK    5  A    between atoms: S_5  and  C_6
REMARK    6  A    between atoms: N_21  and  C_24
REMARK    7  A    between atoms: C_24  and  C_25
REMARK    8  A    between atoms: N_27  and  C_28
REMARK    9  A    between atoms: C_31  and  C_34
REMARK                            x       y       z     vdW  Elec       q    Type
REMARK                         _______ _______ _______ _____ _____    ______ ____
ROOT
ATOM      1  C   UNL     1      -0.732  -4.907   3.360  0.00  0.00    +0.191 A 
ATOM      2  N   UNL     1       0.028  -5.641   4.165  0.00  0.00    -0.206 NA
ATOM      3  C   UNL     1       1.282  -5.940   3.868  0.00  0.00    +0.134 A 
ATOM      4  C   UNL     1       1.837  -5.461   2.650  0.00  0.00    +0.051 A 
ATOM      5  C   UNL     1       3.197  -5.669   2.121  0.00  0.00    -0.025 A 
ATOM      6  C   UNL     1       3.480  -5.107   0.936  0.00  0.00    -0.004 A 
ATOM      7  S   UNL     1       1.984  -4.280   0.447  0.00  0.00    -0.073 S 
ATOM      8  C   UNL     1       0.978  -4.691   1.847  0.00  0.00    +0.115 A 
ATOM      9  N   UNL     1      -0.266  -4.439   2.210  0.00  0.00    -0.215 NA
ATOM     10  C   UNL     1       4.894  -5.381   0.500  0.00  0.00    +0.043 C 
ATOM     11  C   UNL     1       5.614  -5.844   1.786  0.00  0.00    +0.010 C 
ATOM     12  C   UNL     1       4.443  -6.412   2.612  0.00  0.00    +0.037 C 
ATOM     13  N   UNL     1       2.042  -6.707   4.732  0.00  0.00    -0.318 N 
ATOM     14  C   UNL     1       2.141  -8.165   4.561  0.00  0.00    +0.088 C 
ATOM     15  C   UNL     1       1.839  -8.833   5.907  0.00  0.00    -0.059 C 
ATOM     16  N   UNL     1       2.728  -8.281   6.937  0.00  0.00    +0.387 N 
ATOM     17  C   UNL     1       2.444  -6.854   7.131  0.00  0.00    -0.059 C 
ATOM     18  C   UNL     1       2.780  -6.087   5.843  0.00  0.00    +0.088 C 
ATOM     19  H   UNL     1       3.688  -8.395   6.646  0.00  0.00    -0.081 HD
ENDROOT
BRANCH   1  20
ATOM     20  S   UNL     1      -2.394  -4.552   3.827  0.00  0.00    -0.086 S 
BRANCH  20  21
ATOM     21  C   UNL     1      -3.032  -3.554   2.454  0.00  0.00    +0.077 C 
BRANCH  21  22
ATOM     22  C   UNL     1      -4.487  -3.172   2.733  0.00  0.00    +0.011 C 
BRANCH  22  24
ATOM     23  C   UNL     1      -6.480  -1.948   1.855  0.00  0.00    +0.004 C 
ATOM     24  C   UNL     1      -5.025  -2.330   1.575  0.00  0.00    -0.003 C 
ENDBRANCH  22  24
ENDBRANCH  21  22
ENDBRANCH  20  21
ENDBRANCH   1  20
BRANCH  16  25
ATOM     25  C   UNL     1       2.515  -8.999   8.201  0.00  0.00    +0.019 C 
BRANCH  25  26
ATOM     26  C   UNL     1       3.510  -8.519   9.225  0.00  0.00    +0.201 C 
ATOM     27  O   UNL     1       4.319  -7.664   8.931  0.00  0.00    -0.278 OA
ATOM     28  N   UNL     1       3.503  -9.040  10.468  0.00  0.00    -0.287 N 
ATOM     29  H   UNL     1       2.901  -9.770  10.684  0.00  0.00    +0.155 HD
BRANCH  28  30
ATOM     30  C   UNL     1       4.363  -8.529  11.446  0.00  0.00    +0.033 A 
ATOM     31  C   UNL     1       3.948  -8.460  12.770  0.00  0.00    +0.023 A 
ATOM     32  C   UNL     1       4.799  -7.955  13.733  0.00  0.00    +0.005 A 
ATOM     33  C   UNL     1       6.063  -7.518  13.381  0.00  0.00    -0.050 A 
ATOM     34  C   UNL     1       6.479  -7.586  12.064  0.00  0.00    +0.005 A 
ATOM     35  C   UNL     1       5.635  -8.095  11.097  0.00  0.00    +0.023 A 
ATOM     36  C   UNL     1       6.989  -6.968  14.434  0.00  0.00    +0.044 C 
ENDBRANCH  28  30
ENDBRANCH  25  26
ENDBRANCH  16  25
TORSDOF 7
