REMARK  Name = ZINC26469675
REMARK  8 active torsions:
REMARK  status: ('A' for Active; 'I' for Inactive)
REMARK    1  A    between atoms: C_1  and  C_2
REMARK    2  A    between atoms: N_11  and  C_14
REMARK    3  A    between atoms: C_14  and  C_15
REMARK    4  A    between atoms: C_15  and  C_16
REMARK    5  A    between atoms: C_27  and  C_37
REMARK    6  A    between atoms: C_28  and  C_29
REMARK    7  A    between atoms: C_32  and  O_36
REMARK    8  A    between atoms: C_33  and  O_35
REMARK                            x       y       z     vdW  Elec       q    Type
REMARK                         _______ _______ _______ _____ _____    ______ ____
ROOT
ATOM      1  C   UNL     1      -7.691   6.790   2.213  0.00  0.00    +0.194 C 
ATOM      2  C   UNL     1      -7.604   8.033   3.110  0.00  0.00    +0.167 C 
ATOM      3  N   UNL     1      -8.964   8.561   3.283  0.00  0.00    -0.333 N 
ATOM      4  C   UNL     1     -10.024   7.678   3.122  0.00  0.00    +0.092 A 
ATOM      5  C   UNL     1     -11.224   8.349   3.321  0.00  0.00    +0.007 A 
ATOM      6  C   UNL     1     -12.404   7.607   3.193  0.00  0.00    +0.010 A 
ATOM      7  C   UNL     1     -12.332   6.275   2.882  0.00  0.00    +0.004 A 
ATOM      8  C   UNL     1     -11.117   5.618   2.687  0.00  0.00    +0.048 A 
ATOM      9  C   UNL     1      -9.945   6.320   2.807  0.00  0.00    +0.145 A 
ATOM     10  O   UNL     1      -8.679   5.850   2.655  0.00  0.00    -0.485 OA
ATOM     11  C   UNL     1     -10.838   9.725   3.623  0.00  0.00    -0.017 A 
ATOM     12  C   UNL     1      -9.471   9.785   3.584  0.00  0.00    +0.053 A 
ATOM     13  C   UNL     1     -11.774  10.868   3.923  0.00  0.00    +0.046 C 
ENDROOT
BRANCH  12  14
ATOM     14  C   UNL     1      -8.667  11.000   3.834  0.00  0.00    +0.002 A 
ATOM     15  C   UNL     1      -7.539  10.936   4.653  0.00  0.00    +0.014 A 
ATOM     16  C   UNL     1      -6.789  12.071   4.885  0.00  0.00    +0.050 A 
ATOM     17  C   UNL     1      -7.154  13.277   4.306  0.00  0.00    +0.158 A 
ATOM     18  C   UNL     1      -8.279  13.348   3.487  0.00  0.00    +0.159 A 
ATOM     19  C   UNL     1      -9.031  12.213   3.246  0.00  0.00    +0.059 A 
BRANCH  18  20
ATOM     20  O   UNL     1      -8.634  14.532   2.920  0.00  0.00    -0.503 OA
ATOM     21  H   UNL     1      -9.522  14.587   2.273  0.00  0.00    +0.292 HD
ENDBRANCH  18  20
BRANCH  17  22
ATOM     22  O   UNL     1      -6.413  14.393   4.537  0.00  0.00    -0.503 OA
ATOM     23  H   UNL     1      -6.701  15.350   4.078  0.00  0.00    +0.292 HD
ENDBRANCH  17  22
ENDBRANCH  12  14
BRANCH   1  24
ATOM     24  C   UNL     1      -6.326   6.098   2.196  0.00  0.00    +0.061 C 
BRANCH  24  25
ATOM     25  C   UNL     1      -6.332   4.982   1.149  0.00  0.00    +0.088 C 
BRANCH  25  36
ATOM     26  C   UNL     1       2.435   3.955   0.001  0.00  0.00    +0.044 C 
ATOM     27  C   UNL     1       1.154   3.162   0.008  0.00  0.00    -0.046 A 
ATOM     28  C   UNL     1       1.179   1.773   0.000  0.00  0.00    +0.021 A 
ATOM     29  C   UNL     1      -0.013   1.076   0.008  0.00  0.00    +0.084 A 
ATOM     30  N   UNL     1      -1.169   1.711   0.017  0.00  0.00    -0.350 N 
ATOM     31  C   UNL     1      -1.234   3.034   0.030  0.00  0.00    +0.099 A 
ATOM     32  C   UNL     1      -0.073   3.800   0.023  0.00  0.00    +0.045 A 
ATOM     33  N   UNL     1      -2.474   3.662   0.045  0.00  0.00    -0.314 N 
ATOM     34  C   UNL     1      -2.588   4.575   1.192  0.00  0.00    +0.122 C 
ATOM     35  C   UNL     1      -3.932   5.304   1.128  0.00  0.00    +0.103 C 
ATOM     36  N   UNL     1      -5.022   4.318   1.133  0.00  0.00    -0.299 NA
ATOM     37  C   UNL     1      -4.908   3.406  -0.013  0.00  0.00    +0.103 C 
ATOM     38  C   UNL     1      -3.564   2.676   0.051  0.00  0.00    +0.122 C 
ATOM     39  H   UNL     1      -2.110   1.141   0.013  0.00  0.00    +0.166 HD
ENDBRANCH  25  36
ENDBRANCH  24  25
ENDBRANCH   1  24
TORSDOF 6
