REMARK  Name = ZINC49227094
REMARK  12 active torsions:
REMARK  status: ('A' for Active; 'I' for Inactive)
REMARK    1  A    between atoms: C_1  and  C_2
REMARK    2  A    between atoms: C_2  and  C_3
REMARK    3  A    between atoms: C_2  and  C_4
REMARK    4  A    between atoms: C_4  and  C_6
REMARK    5  A    between atoms: C_4  and  N_10
REMARK    6  A    between atoms: C_6  and  N_7
REMARK    7  A    between atoms: N_7  and  C_8
REMARK    8  A    between atoms: N_7  and  C_9
REMARK    9  A    between atoms: N_10  and  S_11
REMARK   10  A    between atoms: S_11  and  C_14
REMARK   11  A    between atoms: C_19  and  N_20
REMARK   12  A    between atoms: N_20  and  N_21
REMARK                            x       y       z     vdW  Elec       q    Type
REMARK                         _______ _______ _______ _____ _____    ______ ____
ROOT
ATOM      1  S   UNL     1       1.978  -2.998  -1.159  0.00  0.00    +0.062 S 
ATOM      2  O   UNL     1       1.861  -4.268  -1.784  0.00  0.00    -0.153 OA
ATOM      3  O   UNL     1       3.088  -2.139  -1.379  0.00  0.00    -0.153 OA
ENDROOT
BRANCH   1   4
ATOM      4  C   UNL     1       1.896  -3.282   0.578  0.00  0.00    +0.147 A 
ATOM      5  C   UNL     1       2.842  -2.730   1.423  0.00  0.00    +0.048 A 
ATOM      6  C   UNL     1       2.739  -2.980   2.786  0.00  0.00    +0.038 A 
ATOM      7  C   UNL     1       1.704  -3.766   3.253  0.00  0.00    +0.128 A 
ATOM      8  N   UNL     1       0.817  -4.280   2.422  0.00  0.00    -0.236 NA
ATOM      9  C   UNL     1       0.877  -4.059   1.118  0.00  0.00    +0.159 A 
ATOM     10 BR   UNL     1       4.004  -2.252   3.989  0.00  0.00    -0.049 Br
BRANCH   9  11
ATOM     11  N   UNL     1      -0.083  -4.615   0.280  0.00  0.00    -0.266 N 
ATOM     12  H   UNL     1      -0.003  -4.517  -0.682  0.00  0.00    +0.167 HD
BRANCH  11  13
ATOM     13  N   UNL     1      -1.140  -5.298   0.811  0.00  0.00    -0.255 NA
ATOM     14  H   UNL     1      -1.647  -4.726   1.469  0.00  0.00    +0.140 HD
ATOM     15  H   UNL     1      -1.750  -5.642   0.085  0.00  0.00    +0.140 HD
ENDBRANCH  11  13
ENDBRANCH   9  11
ENDBRANCH   1   4
BRANCH   1  16
ATOM     16  N   UNL     1       0.625  -2.138  -1.579  0.00  0.00    -0.188 NA
ATOM     17  H   UNL     1      -0.038  -2.534  -2.165  0.00  0.00    +0.148 HD
BRANCH  16  18
ATOM     18  C   UNL     1       0.431  -0.780  -1.064  0.00  0.00    +0.063 C 
BRANCH  18  20
ATOM     19  C   UNL     1      -0.657   0.589   0.720  0.00  0.00    +0.009 C 
ATOM     20  C   UNL     1      -0.455  -0.829   0.183  0.00  0.00    -0.000 C 
ATOM     21  C   UNL     1      -1.812  -1.436  -0.180  0.00  0.00    +0.009 C 
ENDBRANCH  18  20
BRANCH  18  22
ATOM     22  C   UNL     1      -0.242   0.080  -2.135  0.00  0.00    -0.059 C 
BRANCH  22  23
ATOM     23  N   UNL     1       0.573   0.066  -3.357  0.00  0.00    +0.377 N 
ATOM     24  C   UNL     1      -0.143   0.769  -4.430  0.00  0.00    -0.097 C 
ATOM     25  C   UNL     1       1.853   0.739  -3.100  0.00  0.00    -0.097 C 
ATOM     26  H   UNL     1       0.744  -0.888  -3.636  0.00  0.00    -0.083 HD
ENDBRANCH  22  23
ENDBRANCH  18  22
ENDBRANCH  16  18
ENDBRANCH   1  16
TORSDOF 8
