REMARK  Name = ZINC15015560
REMARK  5 active torsions:
REMARK  status: ('A' for Active; 'I' for Inactive)
REMARK    1  A    between atoms: N_6  and  C_7
REMARK    2  A    between atoms: C_7  and  C_9
REMARK    3  A    between atoms: C_7  and  C_20
REMARK    4  A    between atoms: C_18  and  O_19
REMARK    5  A    between atoms: C_22  and  O_27
REMARK                            x       y       z     vdW  Elec       q    Type
REMARK                         _______ _______ _______ _____ _____    ______ ____
ROOT
ATOM      1  C   UNL     1      -2.569   3.841   0.045  0.00  0.00    +0.137 C 
ENDROOT
BRANCH   1   2
ATOM      2  C   UNL     1      -1.213   3.186  -0.011  0.00  0.00    +0.021 A 
ATOM      3  C   UNL     1      -0.569   2.839   1.174  0.00  0.00    +0.010 A 
ATOM      4  C   UNL     1       0.658   2.250   1.157  0.00  0.00    +0.010 A 
ATOM      5  C   UNL     1       1.283   1.977  -0.071  0.00  0.00    +0.004 A 
ATOM      6  C   UNL     1       2.550   1.365  -0.129  0.00  0.00    +0.011 A 
ATOM      7  C   UNL     1       3.097   1.131  -1.358  0.00  0.00    +0.020 A 
ATOM      8  C   UNL     1       2.402   1.496  -2.509  0.00  0.00    +0.111 A 
ATOM      9  N   UNL     1       1.222   2.066  -2.451  0.00  0.00    -0.251 NA
ATOM     10  C   UNL     1       0.632   2.323  -1.280  0.00  0.00    +0.113 A 
ATOM     11  C   UNL     1      -0.637   2.936  -1.224  0.00  0.00    +0.148 A 
BRANCH  11  12
ATOM     12  O   UNL     1      -1.282   3.277  -2.370  0.00  0.00    -0.504 OA
ATOM     13  H   UNL     1      -1.854   2.582  -2.721  0.00  0.00    +0.292 HD
ENDBRANCH  11  12
ENDBRANCH   1   2
BRANCH   1  19
ATOM     14  C   UNL     1      -6.230   5.041  -1.617  0.00  0.00    +0.005 A 
ATOM     15  C   UNL     1      -7.176   4.074  -1.926  0.00  0.00    +0.018 A 
ATOM     16  C   UNL     1      -6.891   2.746  -1.679  0.00  0.00    +0.084 A 
ATOM     17  C   UNL     1      -4.806   3.280  -0.848  0.00  0.00    +0.097 A 
ATOM     18  C   UNL     1      -5.028   4.637  -1.064  0.00  0.00    +0.041 A 
ATOM     19  N   UNL     1      -3.601   2.859  -0.298  0.00  0.00    -0.320 N 
ATOM     20  H   UNL     1      -3.443   1.915  -0.142  0.00  0.00    +0.148 HD
ATOM     21  N   UNL     1      -5.720   2.311  -1.143  0.00  0.00    -0.350 N 
ATOM     22  H   UNL     1      -5.535   1.316  -0.971  0.00  0.00    +0.166 HD
ENDBRANCH   1  19
BRANCH   1  23
ATOM     23  C   UNL     1      -2.817   4.363   1.437  0.00  0.00    -0.005 A 
ATOM     24  C   UNL     1      -3.535   3.605   2.342  0.00  0.00    +0.052 A 
ATOM     25  C   UNL     1      -3.762   4.087   3.623  0.00  0.00    +0.117 A 
ATOM     26  C   UNL     1      -3.268   5.329   3.992  0.00  0.00    +0.046 A 
ATOM     27  C   UNL     1      -2.551   6.084   3.085  0.00  0.00    +0.019 A 
ATOM     28  C   UNL     1      -2.321   5.599   1.810  0.00  0.00    +0.023 A 
ATOM     29 BR   UNL     1      -1.332   6.632   0.572  0.00  0.00    -0.050 Br
BRANCH  25  30
ATOM     30  O   UNL     1      -4.468   3.342   4.514  0.00  0.00    -0.507 OA
ATOM     31  H   UNL     1      -3.923   2.747   5.048  0.00  0.00    +0.292 HD
ENDBRANCH  25  30
ENDBRANCH   1  23
TORSDOF 5
