REMARK  Name = ZINC64417441
REMARK  8 active torsions:
REMARK  status: ('A' for Active; 'I' for Inactive)
REMARK    1  A    between atoms: C_1  and  O_2
REMARK    2  A    between atoms: O_2  and  C_3
REMARK    3  A    between atoms: C_8  and  O_9
REMARK    4  A    between atoms: O_9  and  C_10
REMARK    5  A    between atoms: C_12  and  O_28
REMARK    6  A    between atoms: N_14  and  C_17
REMARK    7  A    between atoms: C_17  and  C_18
REMARK    8  A    between atoms: C_18  and  C_19
REMARK                            x       y       z     vdW  Elec       q    Type
REMARK                         _______ _______ _______ _____ _____    ______ ____
ROOT
ATOM      1  C   UNL     1      -1.202  -0.638   0.010  0.00  0.00    +0.162 A 
ATOM      2  C   UNL     1      -2.368   0.102   0.019  0.00  0.00    +0.064 A 
ATOM      3  C   UNL     1      -3.599  -0.554   0.026  0.00  0.00    +0.062 A 
ATOM      4  C   UNL     1      -3.645  -1.961   0.020  0.00  0.00    +0.046 A 
ATOM      5  C   UNL     1      -2.473  -2.692   0.013  0.00  0.00    +0.073 A 
ATOM      6  C   UNL     1      -1.252  -2.033   0.003  0.00  0.00    +0.163 A 
ATOM      7  N   UNL     1      -4.895  -2.575   0.014  0.00  0.00    -0.303 N 
ATOM      8  C   UNL     1      -6.017  -1.873  -0.622  0.00  0.00    +0.299 C 
ATOM      9  N   UNL     1      -6.019  -0.464  -0.232  0.00  0.00    -0.256 N 
ATOM     10  C   UNL     1      -4.870   0.188   0.043  0.00  0.00    +0.252 C 
ATOM     11  O   UNL     1      -4.884   1.377   0.301  0.00  0.00    -0.270 OA
ATOM     12  H   UNL     1      -5.021  -3.447   0.421  0.00  0.00    +0.150 HD
ENDROOT
BRANCH   1  14
ATOM     13  C   UNL     1      -0.017   1.425   0.010  0.00  0.00    +0.277 C 
ATOM     14  O   UNL     1       0.002  -0.004   0.002  0.00  0.00    -0.491 OA
ENDBRANCH   1  14
BRANCH   6  15
ATOM     15  O   UNL     1      -0.098  -2.749  -0.009  0.00  0.00    -0.491 OA
ATOM     16  C   UNL     1      -0.219  -4.173  -0.016  0.00  0.00    +0.277 C 
ENDBRANCH   6  15
BRANCH   8  17
ATOM     17  O   UNL     1      -5.891  -1.968  -2.042  0.00  0.00    -0.359 OA
ATOM     18  H   UNL     1      -5.893  -2.876  -2.377  0.00  0.00    +0.213 HD
ENDBRANCH   8  17
BRANCH   9  19
ATOM     19  C   UNL     1      -7.292   0.254  -0.137  0.00  0.00    +0.116 C 
BRANCH  19  20
ATOM     20  C   UNL     1      -7.849   0.121   1.282  0.00  0.00    +0.052 C 
BRANCH  20  21
ATOM     21  C   UNL     1      -9.159   0.859   1.379  0.00  0.00    -0.040 C 
ATOM     22  C   UNL     1     -10.399   0.338   1.237  0.00  0.00    -0.001 A 
ATOM     23  C   UNL     1     -10.880  -1.021   0.959  0.00  0.00    +0.010 A 
ATOM     24  C   UNL     1     -12.212  -1.240   0.872  0.00  0.00    +0.001 A 
ATOM     25  C   UNL     1     -13.142  -0.204   1.039  0.00  0.00    +0.002 A 
ATOM     26  C   UNL     1     -12.776   1.069   1.296  0.00  0.00    +0.026 A 
ATOM     27  C   UNL     1     -11.401   1.413   1.410  0.00  0.00    +0.043 A 
ATOM     28  N   UNL     1     -10.804   2.556   1.649  0.00  0.00    -0.380 N 
ATOM     29  C   UNL     1      -9.354   2.332   1.661  0.00  0.00    +0.144 C 
ATOM     30  H   UNL     1     -11.247   3.406   1.798  0.00  0.00    +0.160 HD
ENDBRANCH  20  21
ENDBRANCH  19  20
ENDBRANCH   9  19
TORSDOF 6
