REMARK  Name = ZINC08934978
REMARK  8 active torsions:
REMARK  status: ('A' for Active; 'I' for Inactive)
REMARK    1  A    between atoms: C_1  and  O_2
REMARK    2  A    between atoms: O_2  and  C_3
REMARK    3  A    between atoms: C_6  and  N_9
REMARK    4  A    between atoms: C_14  and  C_15
REMARK    5  A    between atoms: C_14  and  N_66
REMARK    6  A    between atoms: N_17  and  C_18
REMARK    7  A    between atoms: C_19  and  C_27
REMARK    8  A    between atoms: C_27  and  C_29
REMARK                            x       y       z     vdW  Elec       q    Type
REMARK                         _______ _______ _______ _____ _____    ______ ____
ROOT
ATOM      1  C   UNL     1      -1.540   7.696  -2.284  0.00  0.00    +0.201 C 
ATOM      2  O   UNL     1      -1.307   7.878  -1.108  0.00  0.00    -0.278 OA
ATOM      3  N   UNL     1      -1.579   6.443  -2.778  0.00  0.00    -0.281 N 
ATOM      4  H   UNL     1      -1.766   6.298  -3.718  0.00  0.00    +0.155 HD
ENDROOT
BRANCH   3   5
ATOM      5  C   UNL     1      -1.353   5.362  -1.942  0.00  0.00    +0.083 A 
ATOM      6  C   UNL     1      -1.250   4.016  -2.277  0.00  0.00    +0.054 A 
ATOM      7  C   UNL     1      -1.006   3.073  -1.198  0.00  0.00    -0.024 A 
ATOM      8  C   UNL     1      -0.905   3.620   0.032  0.00  0.00    -0.005 A 
ATOM      9  S   UNL     1      -1.128   5.358  -0.224  0.00  0.00    -0.077 S 
ATOM     10  C   UNL     1      -0.659   2.901   1.323  0.00  0.00    +0.043 C 
ATOM     11  C   UNL     1      -0.912   1.403   1.096  0.00  0.00    +0.005 C 
ATOM     12  C   UNL     1      -0.180   0.967  -0.177  0.00  0.00    +0.005 C 
ATOM     13  C   UNL     1      -0.868   1.570  -1.403  0.00  0.00    +0.037 C 
BRANCH   6  14
ATOM     14  C   UNL     1      -1.383   3.566  -3.665  0.00  0.00    +0.196 C 
ATOM     15  O   UNL     1      -0.415   3.576  -4.403  0.00  0.00    -0.287 OA
BRANCH  14  16
ATOM     16  C   UNL     1      -2.693   3.101  -4.169  0.00  0.00    +0.022 A 
ATOM     17  C   UNL     1      -3.826   3.185  -3.358  0.00  0.00    +0.012 A 
ATOM     18  C   UNL     1      -5.046   2.753  -3.836  0.00  0.00    +0.001 A 
ATOM     19  C   UNL     1      -5.146   2.228  -5.112  0.00  0.00    +0.000 A 
ATOM     20  C   UNL     1      -4.025   2.137  -5.919  0.00  0.00    +0.001 A 
ATOM     21  C   UNL     1      -2.800   2.570  -5.455  0.00  0.00    +0.012 A 
ENDBRANCH  14  16
ENDBRANCH   6  14
ENDBRANCH   3   5
BRANCH   1  22
ATOM     22  C   UNL     1      -1.787   8.872  -3.193  0.00  0.00    +0.019 C 
BRANCH  22  28
ATOM     23  N   UNL     1      -2.590  12.651  -1.484  0.00  0.00    -0.333 N 
ATOM     24  C   UNL     1      -1.506  12.559  -2.472  0.00  0.00    +0.086 C 
ATOM     25  C   UNL     1      -1.688  11.289  -3.308  0.00  0.00    -0.059 C 
ATOM     26  C   UNL     1      -2.774  10.211  -1.433  0.00  0.00    -0.059 C 
ATOM     27  C   UNL     1      -2.592  11.480  -0.597  0.00  0.00    +0.086 C 
ATOM     28  N   UNL     1      -1.666  10.118  -2.406  0.00  0.00    +0.387 N 
ATOM     29  H   UNL     1      -0.774  10.106  -1.897  0.00  0.00    -0.081 HD
BRANCH  23  33
ATOM     30  C   UNL     1      -2.315  16.185   0.709  0.00  0.00    +0.120 A 
ATOM     31  C   UNL     1      -3.340  15.288   0.966  0.00  0.00    +0.047 A 
ATOM     32  C   UNL     1      -3.432  14.117   0.240  0.00  0.00    +0.027 A 
ATOM     33  C   UNL     1      -2.498  13.838  -0.748  0.00  0.00    +0.030 A 
ATOM     34  C   UNL     1      -1.468  14.734  -1.002  0.00  0.00    +0.027 A 
ATOM     35  C   UNL     1      -1.381  15.908  -0.279  0.00  0.00    +0.047 A 
BRANCH  30  37
ATOM     36  C   UNL     1      -1.143  18.216   1.106  0.00  0.00    +0.277 C 
ATOM     37  O   UNL     1      -2.224  17.338   1.424  0.00  0.00    -0.495 OA
ENDBRANCH  30  37
ENDBRANCH  23  33
ENDBRANCH  22  28
ENDBRANCH   1  22
TORSDOF 7
