REMARK  Name = ZINC39609568
REMARK  10 active torsions:
REMARK  status: ('A' for Active; 'I' for Inactive)
REMARK    1  A    between atoms: C_1  and  C_2
REMARK    2  A    between atoms: C_2  and  O_3
REMARK    3  A    between atoms: O_3  and  C_4
REMARK    4  A    between atoms: C_8  and  C_10
REMARK    5  A    between atoms: C_10  and  C_11
REMARK    6  A    between atoms: C_11  and  N_12
REMARK    7  A    between atoms: C_13  and  C_15
REMARK    8  A    between atoms: C_26  and  C_28
REMARK    9  A    between atoms: C_30  and  C_37
REMARK   10  A    between atoms: C_32  and  C_33
REMARK                            x       y       z     vdW  Elec       q    Type
REMARK                         _______ _______ _______ _____ _____    ______ ____
ROOT
ATOM      1  C   UNL     1       6.453  -5.900   5.779  0.00  0.00    +0.100 C 
ATOM      2  C   UNL     1       6.513  -4.834   6.895  0.00  0.00    +0.121 C 
ATOM      3  N   UNL     1       7.835  -5.035   7.534  0.00  0.00    -0.296 N 
ATOM      4  C   UNL     1       8.750  -5.329   6.404  0.00  0.00    +0.115 C 
ATOM      5  C   UNL     1       7.922  -6.222   5.459  0.00  0.00    -0.004 C 
ATOM      6  C   UNL     1       8.233  -5.881   4.005  0.00  0.00    -0.010 C 
ATOM      7  C   UNL     1       9.683  -6.263   3.695  0.00  0.00    -0.082 C 
ATOM      8  N   UNL     1       9.874  -7.699   3.933  0.00  0.00    +0.379 N 
ATOM      9  C   UNL     1       9.664  -8.003   5.354  0.00  0.00    -0.082 C 
ATOM     10  C   UNL     1       8.213  -7.694   5.734  0.00  0.00    -0.010 C 
ATOM     11  C   UNL     1       8.138  -4.968   8.845  0.00  0.00    +0.250 C 
ATOM     12  O   UNL     1       7.252  -4.830   9.667  0.00  0.00    -0.270 OA
ATOM     13  H   UNL     1       9.214  -8.222   3.377  0.00  0.00    -0.086 HD
ATOM     14  H   UNL     1      10.813  -7.961   3.670  0.00  0.00    -0.086 HD
ENDROOT
BRANCH  11  15
ATOM     15  C   UNL     1       9.542  -5.061   9.284  0.00  0.00    +0.087 A 
ATOM     16  C   UNL     1      10.739  -5.082   8.431  0.00  0.00    +0.058 A 
ATOM     17  C   UNL     1      11.785  -5.175   9.267  0.00  0.00    +0.103 A 
ATOM     18  O   UNL     1      11.336  -5.213  10.531  0.00  0.00    -0.455 OA
ATOM     19  C   UNL     1      10.002  -5.141  10.565  0.00  0.00    +0.220 A 
ATOM     20  C   UNL     1      13.233  -5.229   8.852  0.00  0.00    +0.086 C 
BRANCH  19  21
ATOM     21  C   UNL     1       9.150  -5.149  11.809  0.00  0.00    +0.451 C 
ATOM     22  F   UNL     1       8.817  -6.468  12.137  0.00  0.00    -0.163 F 
ATOM     23  F   UNL     1       9.862  -4.571  12.865  0.00  0.00    -0.163 F 
ATOM     24  F   UNL     1       7.981  -4.417  11.578  0.00  0.00    -0.163 F 
ENDBRANCH  19  21
ENDBRANCH  11  15
BRANCH   1  26
ATOM     25  N   UNL     1       5.229  -6.184   3.648  0.00  0.00    -0.315 N 
ATOM     26  C   UNL     1       5.760  -5.346   4.560  0.00  0.00    +0.218 C 
ATOM     27  O   UNL     1       5.680  -4.146   4.401  0.00  0.00    -0.275 OA
ATOM     28  H   UNL     1       5.292  -7.143   3.775  0.00  0.00    +0.149 HD
BRANCH  25  29
ATOM     29  C   UNL     1       4.555  -5.645   2.464  0.00  0.00    +0.109 C 
BRANCH  29  30
ATOM     30  C   UNL     1       4.047  -6.799   1.597  0.00  0.00    +0.054 C 
BRANCH  30  35
ATOM     31  C   UNL     1       1.361  -5.471  -0.706  0.00  0.00    +0.121 A 
ATOM     32  C   UNL     1       2.087  -5.227  -1.863  0.00  0.00    +0.045 A 
ATOM     33  C   UNL     1       3.443  -5.493  -1.895  0.00  0.00    +0.004 A 
ATOM     34  C   UNL     1       4.076  -6.001  -0.775  0.00  0.00    +0.004 A 
ATOM     35  C   UNL     1       3.354  -6.245   0.379  0.00  0.00    -0.042 A 
ATOM     36  C   UNL     1       2.000  -5.976   0.418  0.00  0.00    +0.049 A 
BRANCH  31  37
ATOM     37  O   UNL     1       0.028  -5.210  -0.671  0.00  0.00    -0.492 OA
BRANCH  37  39
ATOM     38  C   UNL     1      -2.058  -4.463  -1.636  0.00  0.00    +0.048 C 
ATOM     39  C   UNL     1      -0.563  -4.692  -1.865  0.00  0.00    +0.225 C 
ENDBRANCH  37  39
ENDBRANCH  31  37
ENDBRANCH  30  35
ENDBRANCH  29  30
ENDBRANCH  25  29
ENDBRANCH   1  26
TORSDOF 8
