REMARK  Name = ZINC22746021
REMARK  12 active torsions:
REMARK  status: ('A' for Active; 'I' for Inactive)
REMARK    1  A    between atoms: C_1  and  C_2
REMARK    2  A    between atoms: C_5  and  C_7
REMARK    3  A    between atoms: C_7  and  N_8
REMARK    4  A    between atoms: N_8  and  C_9
REMARK    5  A    between atoms: N_8  and  C_19
REMARK    6  A    between atoms: C_11  and  C_17
REMARK    7  A    between atoms: C_11  and  C_18
REMARK    8  A    between atoms: C_13  and  C_15
REMARK    9  A    between atoms: C_13  and  C_16
REMARK   10  A    between atoms: C_19  and  N_21
REMARK   11  A    between atoms: N_21  and  C_22
REMARK   12  A    between atoms: C_24  and  C_29
REMARK                            x       y       z     vdW  Elec       q    Type
REMARK                         _______ _______ _______ _____ _____    ______ ____
ROOT
ATOM      1  N   UNL     1       0.387   5.048  -1.211  0.00  0.00    -0.302 N 
ENDROOT
BRANCH   1   2
ATOM      2  C   UNL     1       0.405   3.580  -1.178  0.00  0.00    +0.073 C 
ATOM      3  C   UNL     1      -0.504   3.041  -2.282  0.00  0.00    +0.009 C 
ATOM      4  C   UNL     1      -0.489   1.514  -2.283  0.00  0.00    -0.072 C 
ATOM      5  N   UNL     1       0.850   0.962  -2.261  0.00  0.00    +0.386 N 
ATOM      6  C   UNL     1       1.873   1.562  -1.429  0.00  0.00    -0.072 C 
ATOM      7  C   UNL     1       1.828   3.088  -1.436  0.00  0.00    +0.009 C 
ATOM      8  C   UNL     1       1.782   1.052   0.014  0.00  0.00    -0.010 C 
ATOM      9  C   UNL     1       3.252   1.134  -1.979  0.00  0.00    -0.010 C 
ATOM     10  C   UNL     1      -1.183   1.043  -3.580  0.00  0.00    -0.010 C 
ATOM     11  C   UNL     1      -1.322   0.992  -1.107  0.00  0.00    -0.010 C 
ATOM     12  H   UNL     1       0.811  -0.082  -1.917  0.00  0.00    -0.084 HD
ATOM     13  H   UNL     1       1.279   0.999  -3.273  0.00  0.00    -0.084 HD
ENDBRANCH   1   2
BRANCH   1  14
ATOM     14  C   UNL     1      -0.126   5.740  -0.175  0.00  0.00    +0.138 C 
ATOM     15  S   UNL     1      -0.266   7.444  -0.268  0.00  0.00    -0.018 S 
BRANCH  14  16
ATOM     16  N   UNL     1      -0.530   5.090   0.935  0.00  0.00    -0.296 N 
ATOM     17  H   UNL     1      -1.599   4.888   1.096  0.00  0.00    +0.154 HD
BRANCH  16  18
ATOM     18  C   UNL     1       0.412   4.673   1.883  0.00  0.00    +0.052 A 
ATOM     19  C   UNL     1       1.768   4.836   1.635  0.00  0.00    +0.037 A 
ATOM     20  C   UNL     1       2.695   4.424   2.572  0.00  0.00    +0.057 A 
ATOM     21  C   UNL     1       2.274   3.850   3.758  0.00  0.00    +0.014 A 
ATOM     22  C   UNL     1       0.924   3.686   4.009  0.00  0.00    +0.022 A 
ATOM     23  C   UNL     1      -0.009   4.101   3.077  0.00  0.00    +0.062 A 
ATOM     24 CL   UNL     1      -1.704   3.901   3.396  0.00  0.00    -0.082 Cl
BRANCH  20  25
ATOM     25  C   UNL     1       4.167   4.600   2.303  0.00  0.00    +0.417 C 
ATOM     26  F   UNL     1       4.583   5.847   2.783  0.00  0.00    -0.166 F 
ATOM     27  F   UNL     1       4.884   3.589   2.950  0.00  0.00    -0.166 F 
ATOM     28  F   UNL     1       4.401   4.529   0.925  0.00  0.00    -0.166 F 
ENDBRANCH  20  25
ENDBRANCH  16  18
ENDBRANCH  14  16
ENDBRANCH   1  14
BRANCH   1  29
ATOM     29  C   UNL     1       0.928   5.761  -2.372  0.00  0.00    +0.181 C 
BRANCH  29  34
ATOM     30  C   UNL     1      -2.167   5.011  -6.283  0.00  0.00    +0.086 C 
ATOM     31  C   UNL     1      -1.513   5.649  -5.085  0.00  0.00    +0.102 A 
ATOM     32  C   UNL     1      -1.854   6.830  -4.539  0.00  0.00    +0.045 A 
ATOM     33  C   UNL     1      -0.986   7.041  -3.443  0.00  0.00    +0.046 A 
ATOM     34  C   UNL     1      -0.167   5.976  -3.384  0.00  0.00    +0.122 A 
ATOM     35  O   UNL     1      -0.487   5.139  -4.385  0.00  0.00    -0.463 OA
ENDBRANCH  29  34
ENDBRANCH   1  29
TORSDOF 7
