REMARK  Name = ZINC12498039
REMARK  9 active torsions:
REMARK  status: ('A' for Active; 'I' for Inactive)
REMARK    1  A    between atoms: C_1  and  O_2
REMARK    2  A    between atoms: O_2  and  C_3
REMARK    3  A    between atoms: C_3  and  C_5
REMARK    4  A    between atoms: C_5  and  C_34
REMARK    5  A    between atoms: C_10  and  C_12
REMARK    6  A    between atoms: N_21  and  C_24
REMARK    7  A    between atoms: C_34  and  C_35
REMARK    8  A    between atoms: C_35  and  S_36
REMARK    9  A    between atoms: S_36  and  C_37
REMARK                            x       y       z     vdW  Elec       q    Type
REMARK                         _______ _______ _______ _____ _____    ______ ____
ROOT
ATOM      1  C   UNL     1      -0.558   2.501  -0.740  0.00  0.00    +0.044 C 
ATOM      2  C   UNL     1       0.045   1.388   0.015  0.00  0.00    +0.086 C 
ATOM      3  C   UNL     1       1.576   1.780  -0.001  0.00  0.00    +0.077 C 
ATOM      4  C   UNL     1       1.420   3.231   0.452  0.00  0.00    -0.027 C 
ATOM      5  C   UNL     1       2.014   0.738   0.993  0.00  0.00    +0.229 C 
ATOM      6  O   UNL     1       2.887   0.844   1.827  0.00  0.00    -0.275 OA
ATOM      7  N   UNL     1       1.225  -0.352   0.759  0.00  0.00    -0.210 N 
ATOM      8  C   UNL     1       0.115  -0.052   0.009  0.00  0.00    +0.229 C 
ATOM      9  O   UNL     1      -0.640  -0.827  -0.538  0.00  0.00    -0.275 OA
ATOM     10  N   UNL     1       0.136   3.685  -0.143  0.00  0.00    +0.395 N 
ATOM     11  H   UNL     1      -0.455   4.101   0.586  0.00  0.00    -0.083 HD
ATOM     12  H   UNL     1       0.320   4.382  -0.874  0.00  0.00    -0.083 HD
ENDROOT
BRANCH   7  13
ATOM     13  C   UNL     1       1.517  -1.640   1.234  0.00  0.00    +0.048 A 
ATOM     14  C   UNL     1       0.660  -2.695   0.952  0.00  0.00    +0.028 A 
ATOM     15  C   UNL     1       0.946  -3.962   1.421  0.00  0.00    +0.051 A 
ATOM     16  C   UNL     1       2.090  -4.185   2.174  0.00  0.00    +0.162 A 
ATOM     17  C   UNL     1       2.950  -3.131   2.457  0.00  0.00    +0.164 A 
ATOM     18  C   UNL     1       2.665  -1.860   1.982  0.00  0.00    +0.073 A 
ATOM     19  O   UNL     1       4.079  -3.330   3.191  0.00  0.00    -0.485 OA
ATOM     20  C   UNL     1       4.142  -4.537   3.959  0.00  0.00    +0.270 C 
ATOM     21  C   UNL     1       3.693  -5.700   3.065  0.00  0.00    +0.270 C 
ATOM     22  O   UNL     1       2.353  -5.441   2.631  0.00  0.00    -0.485 OA
ENDBRANCH   7  13
BRANCH   4  23
ATOM     23  C   UNL     1       1.357   3.304   1.956  0.00  0.00    -0.060 A 
ATOM     24  C   UNL     1       2.513   3.508   2.687  0.00  0.00    +0.005 A 
ATOM     25  C   UNL     1       2.455   3.580   4.066  0.00  0.00    +0.038 A 
ATOM     26  C   UNL     1       1.241   3.437   4.716  0.00  0.00    +0.123 A 
ATOM     27  C   UNL     1       0.085   3.227   3.983  0.00  0.00    +0.038 A 
ATOM     28  C   UNL     1       0.144   3.161   2.604  0.00  0.00    +0.005 A 
ATOM     29  F   UNL     1       1.184   3.502   6.064  0.00  0.00    -0.205 F 
ENDBRANCH   4  23
BRANCH   1  30
ATOM     30  C   UNL     1      -0.252   2.381  -2.210  0.00  0.00    +0.297 C 
ATOM     31  O   UNL     1      -0.008   1.300  -2.691  0.00  0.00    -0.252 OA
BRANCH  30  33
ATOM     32  C   UNL     1       0.054   3.287  -4.394  0.00  0.00    +0.280 C 
ATOM     33  O   UNL     1      -0.250   3.476  -2.986  0.00  0.00    -0.469 OA
ENDBRANCH  30  33
ENDBRANCH   1  30
BRANCH   1  34
ATOM     34  C   UNL     1      -2.068   2.566  -0.502  0.00  0.00    +0.010 C 
BRANCH  34  35
ATOM     35  C   UNL     1      -2.659   3.731  -1.299  0.00  0.00    +0.068 C 
BRANCH  35  36
ATOM     36  S   UNL     1      -4.450   3.809  -1.017  0.00  0.00    -0.164 S 
ATOM     37  C   UNL     1      -4.990   5.221  -2.018  0.00  0.00    +0.084 C 
ENDBRANCH  35  36
ENDBRANCH  34  35
ENDBRANCH   1  34
TORSDOF 7
