REMARK  Name = ZINC01272982
REMARK  6 active torsions:
REMARK  status: ('A' for Active; 'I' for Inactive)
REMARK    1  A    between atoms: C_1  and  C_2
REMARK    2  A    between atoms: C_2  and  C_25
REMARK    3  A    between atoms: C_3  and  N_10
REMARK    4  A    between atoms: N_5  and  N_9
REMARK    5  A    between atoms: N_10  and  O_24
REMARK    6  A    between atoms: N_13  and  C_14
REMARK                            x       y       z     vdW  Elec       q    Type
REMARK                         _______ _______ _______ _____ _____    ______ ____
ROOT
ATOM      1  N   UNL     1       0.034   2.244  -1.905  0.00  0.00    -0.144 N 
ATOM      2  C   UNL     1      -0.222   2.003  -3.206  0.00  0.00    +0.331 C 
ATOM      3  O   UNL     1      -0.966   1.094  -3.521  0.00  0.00    -0.250 OA
ATOM      4  N   UNL     1       0.346   2.770  -4.158  0.00  0.00    -0.267 N 
ATOM      5  H   UNL     1       1.007   3.437  -3.913  0.00  0.00    +0.156 HD
ENDROOT
BRANCH   4   6
ATOM      6  C   UNL     1      -0.017   2.605  -5.496  0.00  0.00    +0.043 A 
ATOM      7  C   UNL     1      -1.220   2.018  -5.823  0.00  0.00    +0.024 A 
ATOM      8  C   UNL     1      -1.593   1.853  -7.154  0.00  0.00    +0.002 A 
ATOM      9  C   UNL     1      -0.778   2.256  -8.167  0.00  0.00    +0.008 A 
ATOM     10  C   UNL     1       0.459   2.855  -7.877  0.00  0.00    -0.016 A 
ATOM     11  C   UNL     1       0.848   3.032  -6.526  0.00  0.00    +0.003 A 
ATOM     12  C   UNL     1       2.085   3.630  -6.237  0.00  0.00    +0.010 A 
ATOM     13  C   UNL     1       2.894   4.030  -7.256  0.00  0.00    +0.001 A 
ATOM     14  C   UNL     1       2.513   3.856  -8.585  0.00  0.00    +0.001 A 
ATOM     15  C   UNL     1       1.321   3.281  -8.902  0.00  0.00    +0.008 A 
ENDBRANCH   4   6
BRANCH   1  18
ATOM     16  C   UNL     1       0.311  -1.021  -0.545  0.00  0.00    +0.026 C 
ATOM     17  C   UNL     1       0.631   0.462  -0.342  0.00  0.00    +0.056 C 
ATOM     18  C   UNL     1      -0.508   1.355  -0.875  0.00  0.00    +0.224 C 
ATOM     19  N   UNL     1      -1.131   2.158   0.151  0.00  0.00    -0.233 N 
ATOM     20  C   UNL     1      -0.716   2.091   1.424  0.00  0.00    +0.125 C 
ATOM     21  S   UNL     1      -1.334   2.965   2.760  0.00  0.00    -0.027 S 
ATOM     22  S   UNL     1       0.614   0.904   1.437  0.00  0.00    -0.092 S 
ATOM     23  C   UNL     1       1.968   0.828  -0.989  0.00  0.00    +0.026 C 
BRANCH  19  24
ATOM     24  N   UNL     1      -2.156   2.998  -0.180  0.00  0.00    -0.251 NA
ATOM     25  H   UNL     1      -2.493   3.494   0.631  0.00  0.00    +0.141 HD
ATOM     26  H   UNL     1      -1.877   3.640  -0.907  0.00  0.00    +0.141 HD
ENDBRANCH  19  24
ENDBRANCH   1  18
BRANCH   1  27
ATOM     27  O   UNL     1       0.827   3.357  -1.534  0.00  0.00    -0.289 OA
ATOM     28  H   UNL     1       1.199   3.842  -2.283  0.00  0.00    +0.242 HD
ENDBRANCH   1  27
TORSDOF 4
