REMARK  Name = ZINC23178276
REMARK  12 active torsions:
REMARK  status: ('A' for Active; 'I' for Inactive)
REMARK    1  A    between atoms: C_1  and  N_2
REMARK    2  A    between atoms: N_2  and  C_3
REMARK    3  A    between atoms: N_2  and  C_4
REMARK    4  A    between atoms: C_4  and  C_6
REMARK    5  A    between atoms: C_4  and  C_29
REMARK    6  A    between atoms: C_6  and  N_7
REMARK    7  A    between atoms: C_8  and  C_10
REMARK    8  A    between atoms: C_15  and  N_16
REMARK    9  A    between atoms: C_17  and  C_19
REMARK   10  A    between atoms: C_22  and  N_26
REMARK   11  A    between atoms: C_34  and  O_35
REMARK   12  A    between atoms: O_35  and  C_36
REMARK                            x       y       z     vdW  Elec       q    Type
REMARK                         _______ _______ _______ _____ _____    ______ ____
ROOT
ATOM      1  C   UNL     1       4.182  -2.855   0.754  0.00  0.00    +0.058 A 
ATOM      2  C   UNL     1       5.262  -3.607   0.285  0.00  0.00    +0.015 A 
ATOM      3  C   UNL     1       6.536  -3.085   0.335  0.00  0.00    +0.001 A 
ATOM      4  C   UNL     1       6.754  -1.817   0.849  0.00  0.00    +0.002 A 
ATOM      5  C   UNL     1       5.697  -1.060   1.312  0.00  0.00    +0.024 A 
ATOM      6  C   UNL     1       4.406  -1.571   1.275  0.00  0.00    +0.046 A 
ENDROOT
BRANCH   1   8
ATOM      7  N   UNL     1       2.617  -4.679   0.305  0.00  0.00    -0.313 N 
ATOM      8  C   UNL     1       2.815  -3.407   0.703  0.00  0.00    +0.246 C 
ATOM      9  O   UNL     1       1.868  -2.715   1.021  0.00  0.00    -0.270 OA
ATOM     10  H   UNL     1       3.474  -5.306   0.018  0.00  0.00    +0.149 HD
BRANCH   7  11
ATOM     11  C   UNL     1       1.259  -5.227   0.254  0.00  0.00    +0.094 C 
BRANCH  11  12
ATOM     12  C   UNL     1       1.313  -6.679  -0.227  0.00  0.00    -0.017 C 
BRANCH  12  13
ATOM     13  C   UNL     1      -0.089  -7.204  -0.397  0.00  0.00    -0.018 A 
ATOM     14  C   UNL     1      -1.131  -6.329  -0.635  0.00  0.00    +0.005 A 
ATOM     15  C   UNL     1      -2.417  -6.810  -0.795  0.00  0.00    +0.000 A 
ATOM     16  C   UNL     1      -2.665  -8.168  -0.708  0.00  0.00    +0.004 A 
ATOM     17  C   UNL     1      -1.628  -9.047  -0.465  0.00  0.00    +0.046 A 
ATOM     18  C   UNL     1      -0.336  -8.566  -0.309  0.00  0.00    +0.122 A 
BRANCH  18  19
ATOM     19  O   UNL     1       0.687  -9.429  -0.071  0.00  0.00    -0.495 OA
ATOM     20  C   UNL     1       0.360 -10.818   0.007  0.00  0.00    +0.277 C 
ENDBRANCH  18  19
ENDBRANCH  12  13
BRANCH  12  22
ATOM     21  C   UNL     1       2.285  -8.134  -1.901  0.00  0.00    -0.096 C 
ATOM     22  N   UNL     1       2.019  -6.742  -1.514  0.00  0.00    +0.382 N 
ATOM     23  C   UNL     1       1.267  -6.039  -2.562  0.00  0.00    -0.096 C 
ATOM     24  H   UNL     1       2.987  -6.234  -1.394  0.00  0.00    -0.082 HD
ENDBRANCH  12  22
ENDBRANCH  11  12
ENDBRANCH   7  11
ENDBRANCH   1   8
BRANCH   6  25
ATOM     25  N   UNL     1       3.339  -0.812   1.745  0.00  0.00    -0.281 N 
ATOM     26  C   UNL     1       3.319   0.521   1.544  0.00  0.00    +0.250 C 
ATOM     27  O   UNL     1       4.272   1.071   1.026  0.00  0.00    -0.270 OA
ATOM     28  H   UNL     1       2.511  -1.299   2.282  0.00  0.00    +0.155 HD
BRANCH  26  29
ATOM     29  C   UNL     1       2.140   1.312   1.951  0.00  0.00    +0.055 A 
ATOM     30  C   UNL     1       1.045   0.683   2.546  0.00  0.00    +0.017 A 
ATOM     31  C   UNL     1      -0.055   1.427   2.919  0.00  0.00    +0.033 A 
ATOM     32  C   UNL     1      -0.071   2.796   2.714  0.00  0.00    +0.128 A 
ATOM     33  C   UNL     1       1.010   3.427   2.127  0.00  0.00    +0.053 A 
ATOM     34  C   UNL     1       2.116   2.694   1.743  0.00  0.00    +0.055 A 
ATOM     35 CL   UNL     1       3.473   3.486   1.005  0.00  0.00    -0.083 Cl
BRANCH  32  36
ATOM     36  N   UNL     1      -1.253   3.588   3.122  0.00  0.00    +0.056 N 
ATOM     37  O   UNL     1      -1.272   4.792   2.939  0.00  0.00    -0.126 OA
ATOM     38  O   UNL     1      -2.207   3.036   3.640  0.00  0.00    -0.126 OA
ENDBRANCH  32  36
ENDBRANCH  26  29
ENDBRANCH   6  25
TORSDOF 9
