REMARK  Name = ZINC39224556
REMARK  3 active torsions:
REMARK  status: ('A' for Active; 'I' for Inactive)
REMARK    1  A    between atoms: C_6  and  C_7
REMARK    2  A    between atoms: C_13  and  C_15
REMARK    3  A    between atoms: C_16  and  N_23
REMARK                            x       y       z     vdW  Elec       q    Type
REMARK                         _______ _______ _______ _____ _____    ______ ____
ROOT
ATOM      1  C   UNL     1      -1.353  -0.829  -0.042  0.00  0.00    +0.054 C 
ATOM      2  N   UNL     1      -1.500  -2.134  -0.049  0.00  0.00    -0.264 NA
ATOM      3  C   UNL     1      -2.894  -2.458   0.021  0.00  0.00    +0.205 C 
ATOM      4  C   UNL     1      -3.609  -1.238  -0.630  0.00  0.00    +0.131 C 
ATOM      5  C   UNL     1      -2.725  -0.150   0.006  0.00  0.00    +0.092 C 
ATOM      6  C   UNL     1      -5.029  -1.329  -0.162  0.00  0.00    +0.228 C 
ATOM      7  O   UNL     1      -5.651  -0.357   0.209  0.00  0.00    -0.275 OA
ATOM      8  N   UNL     1      -5.573  -2.577  -0.182  0.00  0.00    -0.240 N 
ATOM      9  C   UNL     1      -4.856  -3.664  -0.528  0.00  0.00    +0.307 C 
ATOM     10  O   UNL     1      -5.435  -4.670  -0.889  0.00  0.00    -0.252 OA
ATOM     11  N   UNL     1      -3.503  -3.648  -0.491  0.00  0.00    -0.277 N 
ATOM     12  H   UNL     1      -6.506  -2.687   0.061  0.00  0.00    +0.159 HD
ATOM     13  H   UNL     1      -2.979  -4.405  -0.797  0.00  0.00    +0.152 HD
ENDROOT
BRANCH   1  19
ATOM     14  C   UNL     1      -0.023   1.274  -0.050  0.00  0.00    +0.013 A 
ATOM     15  C   UNL     1       1.188   1.931  -0.076  0.00  0.00    +0.050 A 
ATOM     16  C   UNL     1       2.375   1.210  -0.119  0.00  0.00    +0.162 A 
ATOM     17  C   UNL     1       2.346  -0.182  -0.135  0.00  0.00    +0.163 A 
ATOM     18  C   UNL     1       1.134  -0.848  -0.111  0.00  0.00    +0.059 A 
ATOM     19  C   UNL     1      -0.059  -0.123  -0.068  0.00  0.00    +0.000 A 
ATOM     20  O   UNL     1       3.501  -0.903  -0.169  0.00  0.00    -0.485 OA
ATOM     21  C   UNL     1       4.684  -0.202  -0.567  0.00  0.00    +0.270 C 
ATOM     22  C   UNL     1       4.731   1.132   0.190  0.00  0.00    +0.270 C 
ATOM     23  O   UNL     1       3.559   1.880  -0.148  0.00  0.00    -0.485 OA
ENDBRANCH   1  19
BRANCH   5  24
ATOM     24  C   UNL     1      -2.736   1.110  -0.821  0.00  0.00    +0.064 A 
ATOM     25  C   UNL     1      -3.138   2.296  -0.272  0.00  0.00    +0.106 A 
ATOM     26  N   UNL     1      -3.139   3.431  -1.045  0.00  0.00    -0.296 N 
ATOM     27  C   UNL     1      -2.749   3.378  -2.332  0.00  0.00    +0.328 A 
ATOM     28  O   UNL     1      -2.757   4.392  -3.002  0.00  0.00    -0.247 OA
ATOM     29  N   UNL     1      -2.351   2.220  -2.888  0.00  0.00    -0.275 N 
ATOM     30  C   UNL     1      -2.329   1.083  -2.164  0.00  0.00    +0.260 A 
ATOM     31  O   UNL     1      -1.962   0.038  -2.673  0.00  0.00    -0.267 OA
ATOM     32  H   UNL     1      -2.074   2.203  -3.818  0.00  0.00    +0.173 HD
ATOM     33  H   UNL     1      -3.423   4.275  -0.662  0.00  0.00    +0.172 HD
BRANCH  25  34
ATOM     34  N   UNL     1      -3.535   2.351   1.040  0.00  0.00    -0.344 N 
ATOM     35  H   UNL     1      -3.443   1.571   1.608  0.00  0.00    +0.144 HD
ATOM     36  H   UNL     1      -3.909   3.171   1.399  0.00  0.00    +0.144 HD
ENDBRANCH  25  34
ENDBRANCH   5  24
TORSDOF 3
