REMARK  Name = ZINC00052567
REMARK  5 active torsions:
REMARK  status: ('A' for Active; 'I' for Inactive)
REMARK    1  A    between atoms: C_1  and  C_2
REMARK    2  A    between atoms: C_2  and  O_15
REMARK    3  A    between atoms: N_12  and  C_13
REMARK    4  A    between atoms: C_13  and  C_14
REMARK    5  A    between atoms: C_14  and  N_36
REMARK                            x       y       z     vdW  Elec       q    Type
REMARK                         _______ _______ _______ _____ _____    ______ ____
ROOT
ATOM      1  C   UNL     1       1.689  -1.271  -1.279  0.00  0.00    +0.068 C 
ATOM      2  C   UNL     1       1.401  -0.461  -0.014  0.00  0.00    +0.175 C 
ATOM      3  C   UNL     1       2.209   0.847  -0.015  0.00  0.00    +0.160 C 
ATOM      4  C   UNL     1       3.060   0.939  -1.277  0.00  0.00    +0.053 C 
ATOM      5  C   UNL     1       3.844   2.254  -1.272  0.00  0.00    +0.004 C 
ATOM      6  C   UNL     1       4.737   2.310  -0.031  0.00  0.00    +0.000 C 
ATOM      7  C   UNL     1       3.868   2.240   1.227  0.00  0.00    +0.004 C 
ATOM      8  C   UNL     1       3.084   0.926   1.232  0.00  0.00    +0.053 C 
ATOM      9  O   UNL     1       1.202   1.894   0.001  0.00  0.00    -0.439 OA
ATOM     10  C   UNL     1      -0.016   1.337   0.009  0.00  0.00    +0.406 C 
ATOM     11  O   UNL     1      -1.043   1.986   0.018  0.00  0.00    -0.226 OA
ATOM     12  N   UNL     1       0.002  -0.004   0.002  0.00  0.00    -0.238 N 
ENDROOT
BRANCH   2  13
ATOM     13  O   UNL     1       1.692  -1.230   1.155  0.00  0.00    -0.368 OA
ATOM     14  H   UNL     1       1.161  -2.034   1.239  0.00  0.00    +0.212 HD
ENDBRANCH   2  13
BRANCH  12  15
ATOM     15  C   UNL     1      -1.178  -0.873   0.008  0.00  0.00    +0.094 C 
BRANCH  15  16
ATOM     16  C   UNL     1      -1.602  -1.167  -1.432  0.00  0.00    -0.067 C 
BRANCH  16  19
ATOM     17  H   UNL     1      -3.085  -2.246  -2.366  0.00  0.00    -0.090 HD
ATOM     18  H   UNL     1      -2.608  -2.884  -0.906  0.00  0.00    -0.090 HD
ATOM     19  N   UNL     1      -2.802  -2.022  -1.414  0.00  0.00    +0.379 N 
ATOM     20  H   UNL     1      -3.566  -1.522  -0.946  0.00  0.00    -0.090 HD
ENDBRANCH  16  19
ENDBRANCH  15  16
ENDBRANCH  12  15
TORSDOF 4
