REMARK  Name = ZINC50330553
REMARK  6 active torsions:
REMARK  status: ('A' for Active; 'I' for Inactive)
REMARK    1  A    between atoms: C_1  and  N_2
REMARK    2  A    between atoms: N_2  and  C_3
REMARK    3  A    between atoms: C_11  and  C_13
REMARK    4  A    between atoms: C_15  and  O_21
REMARK    5  A    between atoms: C_16  and  O_20
REMARK    6  A    between atoms: O_21  and  C_22
REMARK                            x       y       z     vdW  Elec       q    Type
REMARK                         _______ _______ _______ _____ _____    ______ ____
ROOT
ATOM      1  C   UNL     1       0.738  -0.368  -1.216  0.00  0.00    -0.033 C 
ATOM      2  C   UNL     1       0.858  -1.897  -1.312  0.00  0.00    -0.010 C 
ATOM      3  C   UNL     1       1.325  -2.264  -2.724  0.00  0.00    +0.005 C 
ATOM      4  C   UNL     1       0.209  -1.996  -3.734  0.00  0.00    +0.056 C 
ATOM      5  C   UNL     1      -0.272  -0.557  -3.567  0.00  0.00    +0.051 A 
ATOM      6  C   UNL     1      -0.002   0.121  -2.415  0.00  0.00    -0.001 A 
ATOM      7  S   UNL     1      -0.746   1.705  -2.707  0.00  0.00    -0.074 S 
ATOM      8  C   UNL     1      -1.362   1.341  -4.347  0.00  0.00    +0.109 A 
ATOM      9  N   UNL     1      -0.954   0.090  -4.503  0.00  0.00    -0.244 NA
ENDROOT
BRANCH   8  10
ATOM     10  C   UNL     1      -2.123   2.202  -5.277  0.00  0.00    +0.012 A 
ATOM     11  C   UNL     1      -2.516   1.711  -6.523  0.00  0.00    +0.060 A 
ATOM     12  C   UNL     1      -3.228   2.520  -7.389  0.00  0.00    +0.163 A 
ATOM     13  C   UNL     1      -3.551   3.823  -7.018  0.00  0.00    +0.173 A 
ATOM     14  C   UNL     1      -3.161   4.312  -5.779  0.00  0.00    +0.064 A 
ATOM     15  C   UNL     1      -2.455   3.506  -4.908  0.00  0.00    +0.029 A 
ATOM     16 BR   UNL     1      -3.602   6.082  -5.282  0.00  0.00    -0.046 Br
BRANCH  13  17
ATOM     17  O   UNL     1      -4.250   4.618  -7.871  0.00  0.00    -0.503 OA
ATOM     18  H   UNL     1      -5.209   4.560  -7.766  0.00  0.00    +0.292 HD
ENDBRANCH  13  17
BRANCH  12  19
ATOM     19  O   UNL     1      -3.611   2.044  -8.604  0.00  0.00    -0.491 OA
ATOM     20  C   UNL     1      -3.245   0.699  -8.919  0.00  0.00    +0.277 C 
ENDBRANCH  12  19
ENDBRANCH   8  10
BRANCH   1  22
ATOM     21  C   UNL     1       0.799  -0.366   1.182  0.00  0.00    -0.100 C 
ATOM     22  N   UNL     1       0.002  -0.004   0.002  0.00  0.00    +0.382 N 
ATOM     23  H   UNL     1      -0.876  -0.500   0.025  0.00  0.00    -0.085 HD
ATOM     24  H   UNL     1      -0.172   0.990   0.006  0.00  0.00    -0.085 HD
ENDBRANCH   1  22
TORSDOF 4
