REMARK  Name = ZINC11982817
REMARK  3 active torsions:
REMARK  status: ('A' for Active; 'I' for Inactive)
REMARK    1  A    between atoms: C_11  and  C_14
REMARK    2  A    between atoms: C_14  and  C_15
REMARK    3  A    between atoms: C_15  and  N_28
REMARK                            x       y       z     vdW  Elec       q    Type
REMARK                         _______ _______ _______ _____ _____    ______ ____
ROOT
ATOM      1  C   UNL     1       3.544   0.067   2.944  0.00  0.00    +0.003 A 
ATOM      2  C   UNL     1       3.091   0.471   1.702  0.00  0.00    +0.005 A 
ATOM      3  C   UNL     1       1.773   0.852   1.536  0.00  0.00    -0.023 A 
ATOM      4  C   UNL     1       0.900   0.818   2.614  0.00  0.00    +0.072 A 
ATOM      5  C   UNL     1       1.360   0.418   3.864  0.00  0.00    +0.145 A 
ATOM      6  C   UNL     1       2.682   0.043   4.024  0.00  0.00    +0.040 A 
ATOM      7  F   UNL     1       0.517   0.395   4.920  0.00  0.00    -0.204 F 
ATOM      8  N   UNL     1      -0.444   1.165   2.442  0.00  0.00    -0.283 N 
ATOM      9  C   UNL     1      -0.975   1.268   1.212  0.00  0.00    +0.221 C 
ATOM     10  O   UNL     1      -2.111   1.672   1.079  0.00  0.00    -0.275 OA
ATOM     11  C   UNL     1      -0.173   0.886  -0.005  0.00  0.00    +0.078 C 
ATOM     12  C   UNL     1       1.285   1.305   0.184  0.00  0.00    +0.049 C 
ATOM     13  H   UNL     1      -1.000   1.332   3.220  0.00  0.00    +0.155 HD
ENDROOT
BRANCH  11  14
ATOM     14  C   UNL     1      -0.750   1.591  -1.234  0.00  0.00    -0.007 C 
BRANCH  14  15
ATOM     15  C   UNL     1      -0.032   1.094  -2.490  0.00  0.00    -0.086 C 
BRANCH  15  18
ATOM     16  H   UNL     1      -0.679   2.684  -3.627  0.00  0.00    -0.090 HD
ATOM     17  H   UNL     1      -0.212   1.363  -4.524  0.00  0.00    -0.090 HD
ATOM     18  N   UNL     1      -0.691   1.667  -3.678  0.00  0.00    +0.378 N 
ATOM     19  H   UNL     1      -1.666   1.345  -3.711  0.00  0.00    -0.090 HD
ENDBRANCH  15  18
ENDBRANCH  14  15
ENDBRANCH  11  14
TORSDOF 3
