REMARK  Name = ZINC09354790
REMARK  10 active torsions:
REMARK  status: ('A' for Active; 'I' for Inactive)
REMARK    1  A    between atoms: C_1  and  C_2
REMARK    2  A    between atoms: C_5  and  S_8
REMARK    3  A    between atoms: S_8  and  N_11
REMARK    4  A    between atoms: N_11  and  C_12
REMARK    5  A    between atoms: C_17  and  C_18
REMARK    6  A    between atoms: C_23  and  C_26
REMARK    7  A    between atoms: C_29  and  O_34
REMARK    8  A    between atoms: C_30  and  O_32
REMARK    9  A    between atoms: O_32  and  C_33
REMARK   10  A    between atoms: O_34  and  C_35
REMARK                            x       y       z     vdW  Elec       q    Type
REMARK                         _______ _______ _______ _____ _____    ______ ____
ROOT
ATOM      1  C   UNL     1      -2.151  10.982   4.020  0.00  0.00    +0.252 C 
ATOM      2  O   UNL     1      -1.792  11.659   3.075  0.00  0.00    -0.270 OA
ATOM      3  N   UNL     1      -2.007   9.643   3.983  0.00  0.00    -0.261 N 
ATOM      4  C   UNL     1      -1.448   9.035   2.866  0.00  0.00    +0.165 A 
ATOM      5  N   UNL     1      -1.228   7.754   2.635  0.00  0.00    -0.225 NA
ATOM      6  C   UNL     1      -0.676   7.346   1.502  0.00  0.00    +0.080 A 
ATOM      7  C   UNL     1      -0.338   8.266   0.550  0.00  0.00    +0.076 A 
ATOM      8  S   UNL     1      -0.844   9.779   1.357  0.00  0.00    -0.060 S 
ATOM      9  H   UNL     1      -2.293   9.103   4.737  0.00  0.00    +0.157 HD
ENDROOT
BRANCH   1  15
ATOM     10  C   UNL     1      -2.891  13.023   5.251  0.00  0.00    +0.060 A 
ATOM     11  C   UNL     1      -3.455  13.618   6.372  0.00  0.00    +0.025 A 
ATOM     12  C   UNL     1      -3.858  12.841   7.439  0.00  0.00    +0.002 A 
ATOM     13  C   UNL     1      -3.710  11.463   7.399  0.00  0.00    +0.001 A 
ATOM     14  C   UNL     1      -3.157  10.854   6.294  0.00  0.00    +0.015 A 
ATOM     15  C   UNL     1      -2.744  11.627   5.205  0.00  0.00    +0.059 A 
BRANCH  10  16
ATOM     16  N   UNL     1      -2.479  13.803   4.179  0.00  0.00    -0.216 N 
ATOM     17  H   UNL     1      -2.577  13.473   3.272  0.00  0.00    +0.174 HD
BRANCH  16  18
ATOM     18  S   UNL     1      -1.820  15.299   4.448  0.00  0.00    +0.072 S 
ATOM     19  O   UNL     1      -1.384  15.784   3.186  0.00  0.00    -0.150 OA
ATOM     20  O   UNL     1      -2.745  16.010   5.259  0.00  0.00    -0.150 OA
BRANCH  18  25
ATOM     21  C   UNL     1       3.138  14.489   7.790  0.00  0.00    +0.044 C 
ATOM     22  C   UNL     1       1.899  14.692   6.955  0.00  0.00    -0.050 A 
ATOM     23  C   UNL     1       1.985  14.675   5.576  0.00  0.00    +0.005 A 
ATOM     24  C   UNL     1       0.850  14.861   4.810  0.00  0.00    +0.029 A 
ATOM     25  C   UNL     1      -0.372  15.062   5.424  0.00  0.00    +0.109 A 
ATOM     26  C   UNL     1      -0.458  15.084   6.804  0.00  0.00    +0.029 A 
ATOM     27  C   UNL     1       0.677  14.894   7.569  0.00  0.00    +0.005 A 
ENDBRANCH  18  25
ENDBRANCH  16  18
ENDBRANCH  10  16
ENDBRANCH   1  15
BRANCH   6  28
ATOM     28  C   UNL     1      -0.432   5.901   1.267  0.00  0.00    +0.005 A 
ATOM     29  C   UNL     1       0.145   5.476   0.071  0.00  0.00    +0.014 A 
ATOM     30  C   UNL     1       0.376   4.133  -0.145  0.00  0.00    +0.050 A 
ATOM     31  C   UNL     1       0.027   3.203   0.822  0.00  0.00    +0.162 A 
ATOM     32  C   UNL     1      -0.549   3.621   2.018  0.00  0.00    +0.162 A 
ATOM     33  C   UNL     1      -0.779   4.967   2.241  0.00  0.00    +0.059 A 
BRANCH  32  34
ATOM     34  O   UNL     1      -0.887   2.707   2.967  0.00  0.00    -0.491 OA
ATOM     35  C   UNL     1      -1.474   3.207   4.170  0.00  0.00    +0.277 C 
ENDBRANCH  32  34
BRANCH  31  36
ATOM     36  O   UNL     1       0.253   1.879   0.604  0.00  0.00    -0.491 OA
ATOM     37  C   UNL     1       0.847   1.520  -0.645  0.00  0.00    +0.277 C 
ENDBRANCH  31  36
ENDBRANCH   6  28
TORSDOF 7
