REMARK  Name = ZINC07061162
REMARK  12 active torsions:
REMARK  status: ('A' for Active; 'I' for Inactive)
REMARK    1  A    between atoms: C_1  and  C_2
REMARK    2  A    between atoms: C_2  and  C_30
REMARK    3  A    between atoms: C_7  and  C_11
REMARK    4  A    between atoms: C_11  and  O_12
REMARK    5  A    between atoms: O_12  and  C_13
REMARK    6  A    between atoms: C_13  and  C_14
REMARK    7  A    between atoms: C_14  and  C_16
REMARK    8  A    between atoms: C_14  and  O_29
REMARK    9  A    between atoms: C_16  and  N_60
REMARK   10  A    between atoms: C_17  and  C_18
REMARK   11  A    between atoms: C_17  and  N_60
REMARK   12  A    between atoms: C_18  and  C_19
REMARK                            x       y       z     vdW  Elec       q    Type
REMARK                         _______ _______ _______ _____ _____    ______ ____
ROOT
ATOM      1  C   UNL     1       5.857  -1.932  -2.894  0.00  0.00    -0.049 C 
ENDROOT
BRANCH   1   2
ATOM      2  N   UNL     1       5.420  -1.685  -1.507  0.00  0.00    +0.381 N 
ATOM      3  H   UNL     1       6.131  -1.123  -1.024  0.00  0.00    -0.086 HD
ATOM      4  H   UNL     1       5.306  -2.583  -1.023  0.00  0.00    -0.086 HD
BRANCH   2   5
ATOM      5  C   UNL     1       4.136  -0.959  -1.496  0.00  0.00    -0.078 C 
BRANCH   5   6
ATOM      6  C   UNL     1       3.709  -0.717  -0.047  0.00  0.00    +0.016 C 
BRANCH   6   7
ATOM      7  C   UNL     1       2.397   0.024  -0.026  0.00  0.00    -0.045 A 
ATOM      8  C   UNL     1       1.207  -0.680  -0.016  0.00  0.00    +0.007 A 
ATOM      9  C   UNL     1       0.002  -0.004   0.002  0.00  0.00    +0.050 A 
ATOM     10  C   UNL     1      -0.017   1.383   0.010  0.00  0.00    +0.162 A 
ATOM     11  C   UNL     1       1.179   2.090   0.002  0.00  0.00    +0.162 A 
ATOM     12  C   UNL     1       2.386   1.406  -0.017  0.00  0.00    +0.053 A 
ATOM     13  O   UNL     1       1.184   3.451   0.018  0.00  0.00    -0.485 OA
ATOM     14  C   UNL     1      -0.040   4.103  -0.340  0.00  0.00    +0.270 C 
ATOM     15  C   UNL     1      -1.189   3.413   0.408  0.00  0.00    +0.270 C 
ATOM     16  O   UNL     1      -1.212   2.035   0.019  0.00  0.00    -0.485 OA
ENDBRANCH   6   7
ENDBRANCH   5   6
ENDBRANCH   2   5
ENDBRANCH   1   2
BRANCH   1  17
ATOM     17  C   UNL     1       7.189  -2.684  -2.874  0.00  0.00    +0.123 C 
BRANCH  17  18
ATOM     18  O   UNL     1       6.997  -3.978  -2.298  0.00  0.00    -0.391 OA
ATOM     19  H   UNL     1       6.364  -4.531  -2.776  0.00  0.00    +0.210 HD
ENDBRANCH  17  18
BRANCH  17  20
ATOM     20  C   UNL     1       7.711  -2.836  -4.304  0.00  0.00    +0.189 C 
BRANCH  20  21
ATOM     21  O   UNL     1       9.008  -3.434  -4.277  0.00  0.00    -0.373 OA
BRANCH  21  22
ATOM     22  C   UNL     1       9.589  -3.621  -5.569  0.00  0.00    +0.190 C 
BRANCH  22  28
ATOM     23  C   UNL     1      13.088  -6.468  -7.812  0.00  0.00    +0.012 C 
ATOM     24  C   UNL     1      12.436  -5.974  -6.519  0.00  0.00    -0.025 C 
ATOM     25  C   UNL     1      13.422  -5.315  -5.534  0.00  0.00    -0.000 C 
ATOM     26  C   UNL     1      12.800  -5.195  -4.136  0.00  0.00    +0.031 C 
ATOM     27  C   UNL     1      11.437  -4.553  -4.240  0.00  0.00    -0.025 C 
ATOM     28  C   UNL     1      10.948  -4.255  -5.422  0.00  0.00    -0.045 C 
ATOM     29  C   UNL     1      11.803  -4.580  -6.635  0.00  0.00    +0.023 C 
ATOM     30  C   UNL     1      13.263  -4.034  -6.371  0.00  0.00    +0.013 C 
ATOM     31  C   UNL     1      11.521  -7.017  -5.875  0.00  0.00    +0.012 C 
ENDBRANCH  22  28
ENDBRANCH  21  22
ENDBRANCH  20  21
ENDBRANCH  17  20
ENDBRANCH   1  17
TORSDOF 10
