REMARK  Name = ZINC38556667
REMARK  10 active torsions:
REMARK  status: ('A' for Active; 'I' for Inactive)
REMARK    1  A    between atoms: C_1  and  C_2
REMARK    2  A    between atoms: C_2  and  C_12
REMARK    3  A    between atoms: C_4  and  N_11
REMARK    4  A    between atoms: C_7  and  C_9
REMARK    5  A    between atoms: C_7  and  C_10
REMARK    6  A    between atoms: C_12  and  N_13
REMARK    7  A    between atoms: N_13  and  C_14
REMARK    8  A    between atoms: C_17  and  S_23
REMARK    9  A    between atoms: C_19  and  N_20
REMARK   10  A    between atoms: S_23  and  C_26
REMARK                            x       y       z     vdW  Elec       q    Type
REMARK                         _______ _______ _______ _____ _____    ______ ____
ROOT
ATOM      1  N   UNL     1       0.356   0.523  -2.503  0.00  0.00    -0.342 N 
ATOM      2  H   UNL     1      -0.445   1.065  -2.435  0.00  0.00    +0.146 HD
ENDROOT
BRANCH   1   3
ATOM      3  C   UNL     1       0.756   0.021  -3.744  0.00  0.00    +0.058 A 
ATOM      4  C   UNL     1       1.966  -0.651  -3.865  0.00  0.00    +0.027 A 
ATOM      5  C   UNL     1       2.358  -1.146  -5.093  0.00  0.00    +0.029 A 
ATOM      6  C   UNL     1       1.548  -0.974  -6.201  0.00  0.00    +0.100 A 
ATOM      7  C   UNL     1       0.344  -0.305  -6.083  0.00  0.00    +0.062 A 
ATOM      8  C   UNL     1      -0.057   0.188  -4.857  0.00  0.00    +0.149 A 
BRANCH   8   9
ATOM      9  N   UNL     1      -1.349   0.899  -4.731  0.00  0.00    +0.058 N 
ATOM     10  O   UNL     1      -2.027   0.749  -3.741  0.00  0.00    -0.126 OA
ATOM     11  O   UNL     1      -1.727   1.628  -5.618  0.00  0.00    -0.126 OA
ENDBRANCH   8   9
BRANCH   6  12
ATOM     12  S   UNL     1       2.053  -1.607  -7.766  0.00  0.00    +0.091 S 
ATOM     13  O   UNL     1       1.396  -0.783  -8.720  0.00  0.00    -0.161 OA
ATOM     14  O   UNL     1       3.472  -1.650  -7.700  0.00  0.00    -0.161 OA
BRANCH  12  15
ATOM     15  C   UNL     1       1.380  -3.291  -7.826  0.00  0.00    +0.526 C 
ATOM     16  F   UNL     1      -0.014  -3.240  -7.713  0.00  0.00    -0.150 F 
ATOM     17  F   UNL     1       1.728  -3.889  -9.042  0.00  0.00    -0.150 F 
ATOM     18  F   UNL     1       1.906  -4.042  -6.770  0.00  0.00    -0.150 F 
ENDBRANCH  12  15
ENDBRANCH   6  12
ENDBRANCH   1   3
BRANCH   1  19
ATOM     19  C   UNL     1       1.148   0.232  -1.305  0.00  0.00    +0.108 C 
BRANCH  19  21
ATOM     20  C   UNL     1       0.455   2.408  -0.345  0.00  0.00    +0.012 C 
ATOM     21  C   UNL     1       0.490   0.901  -0.078  0.00  0.00    -0.018 C 
ATOM     22  C   UNL     1      -0.930   0.359   0.037  0.00  0.00    -0.008 C 
ATOM     23  C   UNL     1      -1.574   0.799   1.350  0.00  0.00    -0.074 C 
ATOM     24  C   UNL     1      -0.761   0.233   2.512  0.00  0.00    -0.010 C 
ATOM     25  C   UNL     1       0.666   0.771   2.487  0.00  0.00    -0.036 C 
ATOM     26  C   UNL     1       1.337   0.581   1.139  0.00  0.00    +0.014 C 
ATOM     27  C   UNL     1       1.480  -0.014   3.539  0.00  0.00    +0.011 C 
ATOM     28  C   UNL     1       0.678   2.243   2.907  0.00  0.00    +0.011 C 
BRANCH  23  29
ATOM     29  N   UNL     1      -2.945   0.266   1.417  0.00  0.00    +0.380 N 
ATOM     30  H   UNL     1      -2.917  -0.742   1.374  0.00  0.00    -0.090 HD
ATOM     31  H   UNL     1      -3.376   0.553   2.283  0.00  0.00    -0.090 HD
ATOM     32  H   UNL     1      -3.482   0.621   0.640  0.00  0.00    -0.090 HD
ENDBRANCH  23  29
ENDBRANCH  19  21
ENDBRANCH   1  19
TORSDOF 7
