REMARK  Name = ZINC14263141
REMARK  11 active torsions:
REMARK  status: ('A' for Active; 'I' for Inactive)
REMARK    1  A    between atoms: C_1  and  N_2
REMARK    2  A    between atoms: N_2  and  S_3
REMARK    3  A    between atoms: S_3  and  C_6
REMARK    4  A    between atoms: C_9  and  N_15
REMARK    5  A    between atoms: C_10  and  N_12
REMARK    6  A    between atoms: N_15  and  C_16
REMARK    7  A    between atoms: C_16  and  C_17
REMARK    8  A    between atoms: C_17  and  C_18
REMARK    9  A    between atoms: C_18  and  C_19
REMARK   10  A    between atoms: C_20  and  C_26
REMARK   11  A    between atoms: C_21  and  N_25
REMARK                            x       y       z     vdW  Elec       q    Type
REMARK                         _______ _______ _______ _____ _____    ______ ____
ROOT
ATOM      1  N   UNL     1      -1.208   2.112  -0.086  0.00  0.00    -0.342 N 
ATOM      2  H   UNL     1      -1.207   3.079  -0.009  0.00  0.00    +0.146 HD
ENDROOT
BRANCH   1   6
ATOM      3  C   UNL     1       2.384   0.011   0.031  0.00  0.00    +0.108 A 
ATOM      4  C   UNL     1       1.203  -0.656  -0.237  0.00  0.00    +0.030 A 
ATOM      5  C   UNL     1       0.010   0.037  -0.275  0.00  0.00    +0.027 A 
ATOM      6  C   UNL     1      -0.004   1.407  -0.043  0.00  0.00    +0.058 A 
ATOM      7  C   UNL     1       1.184   2.074   0.227  0.00  0.00    +0.149 A 
ATOM      8  C   UNL     1       2.375   1.374   0.263  0.00  0.00    +0.063 A 
BRANCH   3   9
ATOM      9  S   UNL     1       3.905  -0.877   0.078  0.00  0.00    +0.058 S 
ATOM     10  O   UNL     1       4.794  -0.119   0.887  0.00  0.00    -0.153 OA
ATOM     11  O   UNL     1       3.577  -2.229   0.367  0.00  0.00    -0.153 OA
BRANCH   9  13
ATOM     12  C   UNL     1       4.946   0.407  -2.062  0.00  0.00    +0.127 C 
ATOM     13  N   UNL     1       4.530  -0.860  -1.456  0.00  0.00    -0.193 NA
ATOM     14  H   UNL     1       4.620  -1.688  -1.952  0.00  0.00    +0.148 HD
ENDBRANCH   9  13
ENDBRANCH   3   9
BRANCH   7  15
ATOM     15  N   UNL     1       1.175   3.533   0.475  0.00  0.00    +0.058 N 
ATOM     16  O   UNL     1       2.083   4.228   0.056  0.00  0.00    -0.126 OA
ATOM     17  O   UNL     1       0.258   4.039   1.097  0.00  0.00    -0.126 OA
ENDBRANCH   7  15
ENDBRANCH   1   6
BRANCH   1  18
ATOM     18  C   UNL     1      -2.474   1.392  -0.248  0.00  0.00    +0.102 C 
BRANCH  18  19
ATOM     19  C   UNL     1      -3.631   2.392  -0.264  0.00  0.00    +0.025 C 
BRANCH  19  20
ATOM     20  C   UNL     1      -4.953   1.640  -0.434  0.00  0.00    +0.060 C 
BRANCH  20  21
ATOM     21  C   UNL     1      -6.093   2.625  -0.449  0.00  0.00    +0.082 A 
ATOM     22  C   UNL     1      -6.627   3.258  -1.596  0.00  0.00    +0.113 A 
ATOM     23  C   UNL     1      -7.661   4.082  -1.162  0.00  0.00    +0.129 A 
ATOM     24  N   UNL     1      -7.740   3.947   0.178  0.00  0.00    -0.263 N 
ATOM     25  H   UNL     1      -8.389   4.419   0.776  0.00  0.00    +0.190 HD
ATOM     26  N   UNL     1      -6.762   3.036   0.591  0.00  0.00    -0.176 NA
BRANCH  23  27
ATOM     27  N   UNL     1      -8.456   4.888  -1.954  0.00  0.00    -0.342 N 
ATOM     28  H   UNL     1      -8.317   4.914  -2.914  0.00  0.00    +0.144 HD
ATOM     29  H   UNL     1      -9.154   5.428  -1.551  0.00  0.00    +0.144 HD
ENDBRANCH  23  27
BRANCH  22  30
ATOM     30  C   UNL     1      -6.186   3.084  -2.947  0.00  0.00    +0.104 C 
ATOM     31  N   UNL     1      -5.837   2.946  -4.020  0.00  0.00    -0.191 NA
ENDBRANCH  22  30
ENDBRANCH  20  21
ENDBRANCH  19  20
ENDBRANCH  18  19
ENDBRANCH   1  18
TORSDOF 10
