REMARK  Name = ZINC12149026
REMARK  9 active torsions:
REMARK  status: ('A' for Active; 'I' for Inactive)
REMARK    1  A    between atoms: C_1  and  C_2
REMARK    2  A    between atoms: C_3  and  C_34
REMARK    3  A    between atoms: C_4  and  O_32
REMARK    4  A    between atoms: C_7  and  C_8
REMARK    5  A    between atoms: C_8  and  N_69
REMARK    6  A    between atoms: C_11  and  C_14
REMARK    7  A    between atoms: C_11  and  O_31
REMARK    8  A    between atoms: C_21  and  C_23
REMARK    9  A    between atoms: O_32  and  C_33
REMARK                            x       y       z     vdW  Elec       q    Type
REMARK                         _______ _______ _______ _____ _____    ______ ____
ROOT
ATOM      1  C   UNL     1       1.704  -2.258  -1.305  0.00  0.00    -0.075 C 
ATOM      2  C   UNL     1       1.552  -0.818  -1.802  0.00  0.00    +0.021 C 
ATOM      3  C   UNL     1       0.325  -0.182  -1.142  0.00  0.00    +0.088 C 
ATOM      4  C   UNL     1       0.485  -0.240   0.380  0.00  0.00    +0.021 C 
ATOM      5  C   UNL     1       0.670  -1.696   0.814  0.00  0.00    -0.075 C 
ATOM      6  N   UNL     1       1.880  -2.242   0.163  0.00  0.00    +0.383 N 
ATOM      7  H   UNL     1       2.682  -1.645   0.396  0.00  0.00    -0.081 HD
ENDROOT
BRANCH   3   8
ATOM      8  C   UNL     1       0.204   1.254  -1.581  0.00  0.00    -0.015 A 
ATOM      9  C   UNL     1       1.347   1.975  -1.904  0.00  0.00    +0.010 A 
ATOM     10  C   UNL     1       1.259   3.289  -2.308  0.00  0.00    +0.047 A 
ATOM     11  C   UNL     1       0.016   3.905  -2.396  0.00  0.00    +0.136 A 
ATOM     12  C   UNL     1      -1.138   3.170  -2.068  0.00  0.00    +0.021 A 
ATOM     13  C   UNL     1      -1.028   1.837  -1.666  0.00  0.00    +0.018 A 
ATOM     14  C   UNL     1      -2.261   4.088  -2.260  0.00  0.00    +0.063 A 
ATOM     15  C   UNL     1      -1.719   5.263  -2.674  0.00  0.00    +0.191 A 
ATOM     16  O   UNL     1      -0.377   5.144  -2.750  0.00  0.00    -0.450 OA
BRANCH  15  17
ATOM     17  C   UNL     1      -2.480   6.480  -2.989  0.00  0.00    +0.282 C 
ATOM     18  O   UNL     1      -3.696   6.443  -3.032  0.00  0.00    -0.267 OA
ATOM     19  N   UNL     1      -1.832   7.636  -3.232  0.00  0.00    -0.293 N 
ATOM     20  C   UNL     1      -0.368   7.659  -3.225  0.00  0.00    +0.119 C 
ATOM     21  C   UNL     1       0.139   7.973  -4.642  0.00  0.00    +0.088 C 
ATOM     22  S   UNL     1      -0.573   9.558  -5.176  0.00  0.00    -0.158 S 
ATOM     23  C   UNL     1      -2.358   9.312  -4.935  0.00  0.00    +0.088 C 
ATOM     24  C   UNL     1      -2.600   8.855  -3.492  0.00  0.00    +0.119 C 
ENDBRANCH  15  17
ENDBRANCH   3   8
BRANCH   3  25
ATOM     25  O   UNL     1      -0.850  -0.899  -1.526  0.00  0.00    -0.384 OA
ATOM     26  H   UNL     1      -1.666  -0.552  -1.141  0.00  0.00    +0.211 HD
ENDBRANCH   3  25
BRANCH   6  27
ATOM     27  C   UNL     1       2.143  -3.611   0.654  0.00  0.00    -0.043 C 
BRANCH  27  34
ATOM     28  C   UNL     1       4.448  -2.489   1.983  0.00  0.00    +0.044 C 
ATOM     29  C   UNL     1       3.310  -3.051   2.796  0.00  0.00    -0.043 A 
ATOM     30  C   UNL     1       3.368  -3.024   4.176  0.00  0.00    -0.006 A 
ATOM     31  C   UNL     1       2.322  -3.547   4.923  0.00  0.00    +0.123 A 
ATOM     32  C   UNL     1       1.219  -4.091   4.282  0.00  0.00    +0.046 A 
ATOM     33  C   UNL     1       1.163  -4.110   2.902  0.00  0.00    +0.005 A 
ATOM     34  C   UNL     1       2.206  -3.588   2.159  0.00  0.00    -0.061 A 
ATOM     35  C   UNL     1       4.568  -2.433   4.869  0.00  0.00    +0.048 C 
BRANCH  31  36
ATOM     36  O   UNL     1       2.380  -3.527   6.281  0.00  0.00    -0.495 OA
ATOM     37  C   UNL     1       1.267  -4.082   6.985  0.00  0.00    +0.277 C 
ENDBRANCH  31  36
ENDBRANCH  27  34
ENDBRANCH   6  27
TORSDOF 6
