REMARK  Name = ZINC08395142
REMARK  4 active torsions:
REMARK  status: ('A' for Active; 'I' for Inactive)
REMARK    1  A    between atoms: C_1  and  C_2
REMARK    2  A    between atoms: C_5  and  N_9
REMARK    3  A    between atoms: C_18  and  S_22
REMARK    4  A    between atoms: S_22  and  N_25
REMARK                            x       y       z     vdW  Elec       q    Type
REMARK                         _______ _______ _______ _____ _____    ______ ____
ROOT
ATOM      1  N   UNL     1      -8.762  -5.174  -0.886  0.00  0.00    -0.269 N 
ATOM      2  C   UNL     1      -7.807  -4.270  -0.593  0.00  0.00    +0.310 C 
ATOM      3  O   UNL     1      -7.532  -4.031   0.567  0.00  0.00    -0.252 OA
ATOM      4  N   UNL     1      -7.157  -3.630  -1.585  0.00  0.00    -0.248 N 
ATOM      5  C   UNL     1      -6.175  -2.701  -1.283  0.00  0.00    +0.167 A 
ATOM      6  N   UNL     1      -5.743  -2.312  -0.106  0.00  0.00    -0.225 NA
ATOM      7  C   UNL     1      -4.770  -1.387   0.041  0.00  0.00    +0.080 A 
ATOM      8  C   UNL     1      -4.217  -0.885   1.242  0.00  0.00    +0.031 A 
ATOM      9  C   UNL     1      -3.225   0.060   1.214  0.00  0.00    +0.030 A 
ATOM     10  C   UNL     1      -2.730   0.556   0.017  0.00  0.00    +0.106 A 
ATOM     11  C   UNL     1      -3.251   0.092  -1.176  0.00  0.00    +0.045 A 
ATOM     12  C   UNL     1      -4.241  -0.859  -1.158  0.00  0.00    +0.043 A 
ATOM     13  S   UNL     1      -5.175  -1.724  -2.397  0.00  0.00    -0.052 S 
ATOM     14  H   UNL     1      -9.029  -5.316  -1.808  0.00  0.00    +0.156 HD
ATOM     15  H   UNL     1      -7.377  -3.820  -2.510  0.00  0.00    +0.158 HD
ENDROOT
BRANCH   1  20
ATOM     16  C   UNL     1     -11.223  -8.155   3.268  0.00  0.00    +0.045 C 
ATOM     17  C   UNL     1     -10.570  -7.363   2.164  0.00  0.00    -0.032 A 
ATOM     18  C   UNL     1     -10.345  -7.950   0.933  0.00  0.00    +0.006 A 
ATOM     19  C   UNL     1      -9.751  -7.226  -0.082  0.00  0.00    +0.024 A 
ATOM     20  C   UNL     1      -9.369  -5.909   0.139  0.00  0.00    +0.036 A 
ATOM     21  C   UNL     1      -9.595  -5.321   1.375  0.00  0.00    +0.043 A 
ATOM     22  C   UNL     1     -10.195  -6.049   2.386  0.00  0.00    +0.046 A 
ATOM     23 CL   UNL     1     -10.479  -5.315   3.934  0.00  0.00    -0.083 Cl
ENDBRANCH   1  20
BRANCH  10  24
ATOM     24  S   UNL     1      -1.454   1.771   0.017  0.00  0.00    +0.056 S 
ATOM     25  O   UNL     1      -1.527   2.437   1.271  0.00  0.00    -0.153 OA
ATOM     26  O   UNL     1      -1.552   2.464  -1.220  0.00  0.00    -0.153 OA
BRANCH  24  27
ATOM     27  N   UNL     1      -0.008   0.964  -0.006  0.00  0.00    -0.204 NA
ATOM     28  H   UNL     1       0.005  -0.006  -0.017  0.00  0.00    +0.144 HD
ATOM     29  H   UNL     1       0.825   1.460  -0.013  0.00  0.00    +0.144 HD
ENDBRANCH  24  27
ENDBRANCH  10  24
TORSDOF 3
