REMARK  Name = ZINC44713668
REMARK  7 active torsions:
REMARK  status: ('A' for Active; 'I' for Inactive)
REMARK    1  A    between atoms: C_1  and  C_2
REMARK    2  A    between atoms: C_3  and  C_9
REMARK    3  A    between atoms: C_4  and  C_8
REMARK    4  A    between atoms: C_9  and  C_11
REMARK    5  A    between atoms: C_9  and  N_12
REMARK    6  A    between atoms: C_13  and  C_15
REMARK    7  A    between atoms: C_26  and  C_28
REMARK                            x       y       z     vdW  Elec       q    Type
REMARK                         _______ _______ _______ _____ _____    ______ ____
ROOT
ATOM      1  C   UNL     1       2.526  -1.343  -5.213  0.00  0.00    +0.100 C 
ATOM      2  C   UNL     1       1.927  -2.694  -5.663  0.00  0.00    +0.121 C 
ATOM      3  N   UNL     1       1.417  -2.441  -7.031  0.00  0.00    -0.296 N 
ATOM      4  C   UNL     1       2.442  -1.566  -7.650  0.00  0.00    +0.115 C 
ATOM      5  C   UNL     1       2.866  -0.607  -6.520  0.00  0.00    -0.004 C 
ATOM      6  C   UNL     1       4.364  -0.331  -6.596  0.00  0.00    -0.010 C 
ATOM      7  C   UNL     1       4.670   0.453  -7.876  0.00  0.00    -0.082 C 
ATOM      8  N   UNL     1       3.919   1.714  -7.871  0.00  0.00    +0.379 N 
ATOM      9  C   UNL     1       2.478   1.438  -7.892  0.00  0.00    -0.082 C 
ATOM     10  C   UNL     1       2.079   0.697  -6.613  0.00  0.00    -0.010 C 
ATOM     11  C   UNL     1       0.280  -2.902  -7.588  0.00  0.00    +0.252 C 
ATOM     12  O   UNL     1      -0.002  -2.604  -8.732  0.00  0.00    -0.270 OA
ATOM     13  H   UNL     1       4.149   2.237  -7.039  0.00  0.00    -0.086 HD
ATOM     14  H   UNL     1       4.169   2.255  -8.685  0.00  0.00    -0.086 HD
ENDROOT
BRANCH  11  15
ATOM     15  C   UNL     1      -0.624  -3.770  -6.808  0.00  0.00    +0.107 A 
ATOM     16  C   UNL     1      -1.650  -3.208  -6.041  0.00  0.00    +0.138 A 
ATOM     17  C   UNL     1      -2.492  -4.028  -5.314  0.00  0.00    +0.039 A 
ATOM     18  C   UNL     1      -2.323  -5.400  -5.343  0.00  0.00    +0.006 A 
ATOM     19  C   UNL     1      -1.311  -5.964  -6.099  0.00  0.00    +0.039 A 
ATOM     20  C   UNL     1      -0.463  -5.159  -6.837  0.00  0.00    +0.138 A 
ATOM     21  F   UNL     1       0.521  -5.712  -7.578  0.00  0.00    -0.205 F 
ATOM     22  F   UNL     1      -1.817  -1.867  -6.010  0.00  0.00    -0.205 F 
ENDBRANCH  11  15
BRANCH   1  24
ATOM     23  N   UNL     1       1.926   0.317  -3.480  0.00  0.00    -0.308 N 
ATOM     24  C   UNL     1       1.514  -0.559  -4.418  0.00  0.00    +0.219 C 
ATOM     25  O   UNL     1       0.329  -0.716  -4.622  0.00  0.00    -0.275 OA
ATOM     26  H   UNL     1       2.874   0.442  -3.316  0.00  0.00    +0.149 HD
BRANCH  23  27
ATOM     27  C   UNL     1       0.942   1.079  -2.707  0.00  0.00    +0.104 C 
ATOM     28  C   UNL     1       0.474   0.244  -1.513  0.00  0.00    +0.033 C 
BRANCH  27  31
ATOM     29  C   UNL     1      -0.349   3.926  -2.800  0.00  0.00    +0.065 C 
ATOM     30  C   UNL     1       1.013   3.587  -2.252  0.00  0.00    +0.038 A 
ATOM     31  C   UNL     1       1.572   2.355  -2.211  0.00  0.00    +0.015 A 
ATOM     32  C   UNL     1       2.837   2.476  -1.628  0.00  0.00    +0.065 A 
ATOM     33  N   UNL     1       3.031   3.735  -1.329  0.00  0.00    -0.179 NA
ATOM     34  N   UNL     1       1.895   4.457  -1.718  0.00  0.00    -0.281 N 
ATOM     35  H   UNL     1       1.765   5.413  -1.619  0.00  0.00    +0.189 HD
ATOM     36  C   UNL     1       3.810   1.350  -1.385  0.00  0.00    +0.068 C 
ENDBRANCH  27  31
ENDBRANCH  23  27
ENDBRANCH   1  24
TORSDOF 4
