REMARK  Name = ZINC43222849
REMARK  10 active torsions:
REMARK  status: ('A' for Active; 'I' for Inactive)
REMARK    1  A    between atoms: C_1  and  C_2
REMARK    2  A    between atoms: C_2  and  C_4
REMARK    3  A    between atoms: C_2  and  N_10
REMARK    4  A    between atoms: C_11  and  C_13
REMARK    5  A    between atoms: C_18  and  C_20
REMARK    6  A    between atoms: N_22  and  C_23
REMARK    7  A    between atoms: C_23  and  C_24
REMARK    8  A    between atoms: C_24  and  C_25
REMARK    9  A    between atoms: C_25  and  C_26
REMARK   10  A    between atoms: C_26  and  C_27
REMARK                            x       y       z     vdW  Elec       q    Type
REMARK                         _______ _______ _______ _____ _____    ______ ____
ROOT
ATOM      1  C   UNL     1      -3.442  -1.177   1.191  0.00  0.00    +0.068 C 
ATOM      2  C   UNL     1      -3.487  -2.617   0.638  0.00  0.00    -0.069 C 
ATOM      3  N   UNL     1      -3.423  -3.484   1.843  0.00  0.00    +0.380 N 
ATOM      4  C   UNL     1      -4.276  -2.786   2.839  0.00  0.00    -0.069 C 
ATOM      5  C   UNL     1      -3.962  -1.285   2.640  0.00  0.00    +0.068 C 
ATOM      6  H   UNL     1      -3.795  -4.399   1.639  0.00  0.00    -0.086 HD
ATOM      7  H   UNL     1      -2.474  -3.553   2.178  0.00  0.00    -0.086 HD
ENDROOT
BRANCH   1   9
ATOM      8  N   UNL     1      -1.372  -0.511   0.012  0.00  0.00    -0.312 N 
ATOM      9  C   UNL     1      -2.029  -0.655   1.181  0.00  0.00    +0.215 C 
ATOM     10  O   UNL     1      -1.481  -0.365   2.224  0.00  0.00    -0.276 OA
ATOM     11  H   UNL     1      -1.810  -0.743  -0.822  0.00  0.00    +0.149 HD
BRANCH   8  13
ATOM     12  C   UNL     1      -0.019   1.526   0.010  0.00  0.00    +0.028 C 
ATOM     13  C   UNL     1       0.002  -0.004   0.002  0.00  0.00    +0.073 C 
BRANCH  13  14
ATOM     14  C   UNL     1       0.718  -0.497  -1.257  0.00  0.00    +0.009 C 
ATOM     15  C   UNL     1       0.739  -2.027  -1.265  0.00  0.00    +0.005 C 
ATOM     16  C   UNL     1       1.455  -2.521  -2.524  0.00  0.00    +0.000 C 
ATOM     17  C   UNL     1       2.890  -1.991  -2.535  0.00  0.00    +0.000 C 
ATOM     18  C   UNL     1       2.870  -0.461  -2.526  0.00  0.00    +0.000 C 
ATOM     19  C   UNL     1       2.154   0.032  -1.268  0.00  0.00    +0.005 C 
ENDBRANCH  13  14
ENDBRANCH   8  13
ENDBRANCH   1   9
BRANCH   5  20
ATOM     20  C   UNL     1      -5.212  -0.461   2.810  0.00  0.00    +0.215 C 
ATOM     21  O   UNL     1      -5.660   0.163   1.871  0.00  0.00    -0.276 OA
ATOM     22  N   UNL     1      -5.832  -0.416   4.006  0.00  0.00    -0.315 N 
ATOM     23  H   UNL     1      -5.474  -0.915   4.757  0.00  0.00    +0.149 HD
BRANCH  22  24
ATOM     24  C   UNL     1      -7.047   0.386   4.172  0.00  0.00    +0.104 C 
BRANCH  24  25
ATOM     25  C   UNL     1      -7.545   0.264   5.613  0.00  0.00    +0.019 C 
BRANCH  25  26
ATOM     26  C   UNL     1      -8.814   1.101   5.787  0.00  0.00    +0.006 C 
BRANCH  26  27
ATOM     27  C   UNL     1      -9.313   0.980   7.228  0.00  0.00    +0.035 C 
BRANCH  27  28
ATOM     28  C   UNL     1     -10.562   1.805   7.399  0.00  0.00    -0.047 A 
ATOM     29  C   UNL     1     -10.469   3.130   7.782  0.00  0.00    +0.003 A 
ATOM     30  C   UNL     1     -11.615   3.886   7.938  0.00  0.00    +0.000 A 
ATOM     31  C   UNL     1     -12.855   3.318   7.711  0.00  0.00    +0.000 A 
ATOM     32  C   UNL     1     -12.948   1.993   7.327  0.00  0.00    +0.000 A 
ATOM     33  C   UNL     1     -11.802   1.238   7.167  0.00  0.00    +0.003 A 
ENDBRANCH  27  28
ENDBRANCH  26  27
ENDBRANCH  25  26
ENDBRANCH  24  25
ENDBRANCH  22  24
ENDBRANCH   5  20
TORSDOF 9
