REMARK  Name = ZINC39205302
REMARK  9 active torsions:
REMARK  status: ('A' for Active; 'I' for Inactive)
REMARK    1  A    between atoms: C_1  and  C_2
REMARK    2  A    between atoms: C_2  and  O_3
REMARK    3  A    between atoms: O_3  and  C_4
REMARK    4  A    between atoms: C_4  and  C_6
REMARK    5  A    between atoms: C_7  and  C_39
REMARK    6  A    between atoms: C_14  and  C_15
REMARK    7  A    between atoms: C_25  and  C_27
REMARK    8  A    between atoms: C_30  and  O_37
REMARK    9  A    between atoms: O_37  and  C_38
REMARK                            x       y       z     vdW  Elec       q    Type
REMARK                         _______ _______ _______ _____ _____    ______ ____
ROOT
ATOM      1  C   UNL     1       2.370  -2.479  -1.794  0.00  0.00    +0.085 C 
ATOM      2  C   UNL     1       2.531  -3.835  -1.802  0.00  0.00    +0.053 C 
ATOM      3  N   UNL     1       3.004  -4.454  -2.878  0.00  0.00    -0.228 NA
ATOM      4  C   UNL     1       3.349  -3.859  -3.990  0.00  0.00    +0.178 A 
ATOM      5  N   UNL     1       3.267  -2.500  -4.193  0.00  0.00    -0.275 N 
ATOM      6  C   UNL     1       3.652  -2.002  -5.376  0.00  0.00    +0.268 A 
ATOM      7  O   UNL     1       3.598  -0.808  -5.602  0.00  0.00    -0.266 OA
ATOM      8  C   UNL     1       4.144  -2.951  -6.396  0.00  0.00    +0.080 A 
ATOM      9  C   UNL     1       4.595  -2.706  -7.678  0.00  0.00    +0.026 C 
ATOM     10  S   UNL     1       3.996  -4.501  -5.521  0.00  0.00    -0.046 S 
ATOM     11  C   UNL     1       2.740  -1.713  -3.043  0.00  0.00    +0.162 C 
ATOM     12  C   UNL     1       2.168  -4.637  -0.579  0.00  0.00    +0.066 C 
ENDROOT
BRANCH   9  13
ATOM     13  C   UNL     1       4.850  -1.397  -8.090  0.00  0.00    -0.018 C 
ATOM     14  C   UNL     1       5.422  -0.988  -9.295  0.00  0.00    +0.003 A 
ATOM     15  C   UNL     1       5.898  -1.701 -10.416  0.00  0.00    +0.010 A 
ATOM     16  C   UNL     1       6.416  -1.025 -11.473  0.00  0.00    +0.001 A 
ATOM     17  C   UNL     1       6.494   0.371 -11.484  0.00  0.00    +0.002 A 
ATOM     18  C   UNL     1       6.057   1.121 -10.445  0.00  0.00    +0.026 A 
ATOM     19  C   UNL     1       5.500   0.485  -9.301  0.00  0.00    +0.043 A 
ATOM     20  N   UNL     1       5.015   0.976  -8.183  0.00  0.00    -0.380 N 
ATOM     21  C   UNL     1       4.559  -0.124  -7.327  0.00  0.00    +0.149 C 
ATOM     22  H   UNL     1       4.962   1.919  -7.960  0.00  0.00    +0.160 HD
ENDBRANCH   9  13
BRANCH  11  23
ATOM     23  C   UNL     1       1.516  -0.966  -3.509  0.00  0.00    -0.012 A 
ATOM     24  C   UNL     1       0.716  -1.500  -4.473  0.00  0.00    +0.010 A 
ATOM     25  C   UNL     1      -0.419  -0.828  -4.917  0.00  0.00    +0.046 A 
ATOM     26  C   UNL     1      -0.763   0.389  -4.398  0.00  0.00    +0.128 A 
ATOM     27  C   UNL     1       0.042   0.971  -3.398  0.00  0.00    +0.024 A 
ATOM     28  C   UNL     1       1.194   0.280  -2.945  0.00  0.00    -0.009 A 
ATOM     29  C   UNL     1       1.995   0.858  -1.945  0.00  0.00    +0.009 A 
ATOM     30  C   UNL     1       1.651   2.067  -1.422  0.00  0.00    +0.001 A 
ATOM     31  C   UNL     1       0.516   2.742  -1.864  0.00  0.00    +0.001 A 
ATOM     32  C   UNL     1      -0.277   2.219  -2.839  0.00  0.00    +0.012 A 
BRANCH  26  33
ATOM     33  O   UNL     1      -1.873   1.033  -4.842  0.00  0.00    -0.495 OA
ATOM     34  C   UNL     1      -2.639   0.380  -5.857  0.00  0.00    +0.277 C 
ENDBRANCH  26  33
ENDBRANCH  11  23
BRANCH   1  35
ATOM     35  C   UNL     1       1.870  -1.816  -0.659  0.00  0.00    +0.339 C 
ATOM     36  O   UNL     1       2.634  -1.250   0.101  0.00  0.00    -0.245 OA
BRANCH  35  37
ATOM     37  O   UNL     1       0.542  -1.807  -0.413  0.00  0.00    -0.462 OA
BRANCH  37  39
ATOM     38  C   UNL     1      -1.411  -1.227   0.887  0.00  0.00    +0.048 C 
ATOM     39  C   UNL     1       0.093  -1.021   0.693  0.00  0.00    +0.229 C 
ENDBRANCH  37  39
ENDBRANCH  35  37
ENDBRANCH   1  35
TORSDOF 6
