REMARK  Name = ZINC44322540
REMARK  9 active torsions:
REMARK  status: ('A' for Active; 'I' for Inactive)
REMARK    1  A    between atoms: C_1  and  C_2
REMARK    2  A    between atoms: C_9  and  C_35
REMARK    3  A    between atoms: C_10  and  C_11
REMARK    4  A    between atoms: C_11  and  CA_12
REMARK    5  A    between atoms: CA_12  and  C_14
REMARK    6  A    between atoms: CA_12  and  N_17
REMARK    7  A    between atoms: C_18  and  O_20
REMARK    8  A    between atoms: O_20  and  C_21
REMARK    9  A    between atoms: C_21  and  C_22
REMARK                            x       y       z     vdW  Elec       q    Type
REMARK                         _______ _______ _______ _____ _____    ______ ____
ROOT
ATOM      1  CA  UNL     1       2.006  -4.211   3.193  0.00  0.00    +0.195 C 
ENDROOT
BRANCH   1   2
ATOM      2  N   UNL     1       2.553  -3.405   4.287  0.00  0.00    -0.267 N 
ATOM      3  C   UNL     1       3.872  -3.132   4.328  0.00  0.00    +0.401 C 
ATOM      4  O   UNL     1       4.608  -3.554   3.458  0.00  0.00    -0.226 OA
ATOM      5  H   UNL     1       1.966  -3.067   4.981  0.00  0.00    +0.153 HD
BRANCH   3   6
ATOM      6  O   UNL     1       4.375  -2.391   5.333  0.00  0.00    -0.449 OA
BRANCH   6   7
ATOM      7  C   UNL     1       5.782  -2.140   5.314  0.00  0.00    +0.246 C 
BRANCH   7   8
ATOM      8  C   UNL     1       6.165  -1.289   6.526  0.00  0.00    +0.088 C 
ATOM      9  C   UNL     1       5.592   0.101   6.387  0.00  0.00    -0.029 A 
ATOM     10  C   UNL     1       4.297   0.562   6.285  0.00  0.00    +0.005 A 
ATOM     11  C   UNL     1       4.052   1.918   6.164  0.00  0.00    +0.000 A 
ATOM     12  C   UNL     1       5.106   2.814   6.146  0.00  0.00    +0.001 A 
ATOM     13  C   UNL     1       6.405   2.362   6.248  0.00  0.00    +0.009 A 
ATOM     14  C   UNL     1       6.659   0.994   6.370  0.00  0.00    -0.014 A 
ATOM     15  C   UNL     1       7.934   0.245   6.494  0.00  0.00    -0.014 A 
ATOM     16  C   UNL     1       7.663  -1.118   6.588  0.00  0.00    -0.029 A 
ATOM     17  C   UNL     1       8.694  -2.025   6.712  0.00  0.00    +0.005 A 
ATOM     18  C   UNL     1      10.005  -1.583   6.743  0.00  0.00    +0.000 A 
ATOM     19  C   UNL     1      10.284  -0.232   6.650  0.00  0.00    +0.001 A 
ATOM     20  C   UNL     1       9.259   0.683   6.526  0.00  0.00    +0.009 A 
ENDBRANCH   7   8
ENDBRANCH   6   7
ENDBRANCH   3   6
ENDBRANCH   1   2
BRANCH   1  21
ATOM     21  C   UNL     1       2.124  -5.673   3.539  0.00  0.00    +0.376 C 
ATOM     22  O   UNL     1       2.260  -6.500   2.653  0.00  0.00    -0.244 OA
ATOM     23  OXT UNL     1       2.083  -6.029   4.704  0.00  0.00    -0.244 OA
ENDBRANCH   1  21
BRANCH   1  24
ATOM     24  C   UNL     1       0.533  -3.854   2.983  0.00  0.00    +0.090 C 
BRANCH  24  34
ATOM     25  C   UNL     1      -0.082   2.274   2.247  0.00  0.00    +0.047 C 
ATOM     26  C   UNL     1      -0.053   1.043   3.116  0.00  0.00    -0.009 A 
ATOM     27  C   UNL     1      -0.238   1.147   4.460  0.00  0.00    +0.008 A 
ATOM     28  C   UNL     1      -0.208  -0.009   5.258  0.00  0.00    +0.018 A 
ATOM     29  C   UNL     1       0.005  -1.218   4.697  0.00  0.00    +0.093 A 
ATOM     30  N   UNL     1       0.193  -1.337   3.350  0.00  0.00    -0.304 N 
ATOM     31  C   UNL     1       0.162  -0.228   2.544  0.00  0.00    +0.119 A 
ATOM     32  N   UNL     1       0.362  -0.617   1.294  0.00  0.00    -0.339 N 
ATOM     33  C   UNL     1       0.516  -1.950   1.268  0.00  0.00    +0.068 A 
ATOM     34  C   UNL     1       0.423  -2.416   2.544  0.00  0.00    +0.051 A 
ATOM     35  H   UNL     1       0.393  -0.032   0.521  0.00  0.00    +0.167 HD
BRANCH  33  36
ATOM     36  C   UNL     1       0.759  -2.773   0.057  0.00  0.00    +0.000 A 
ATOM     37  C   UNL     1       0.004  -3.921  -0.171  0.00  0.00    +0.010 A 
ATOM     38  C   UNL     1       0.235  -4.683  -1.299  0.00  0.00    +0.001 A 
ATOM     39  C   UNL     1       1.214  -4.309  -2.201  0.00  0.00    +0.000 A 
ATOM     40  C   UNL     1       1.967  -3.170  -1.979  0.00  0.00    +0.001 A 
ATOM     41  C   UNL     1       1.741  -2.398  -0.858  0.00  0.00    +0.010 A 
ENDBRANCH  33  36
ENDBRANCH  24  34
ENDBRANCH   1  24
TORSDOF 8
