REMARK  Name = ZINC03118059
REMARK  5 active torsions:
REMARK  status: ('A' for Active; 'I' for Inactive)
REMARK    1  A    between atoms: C_1  and  C_2
REMARK    2  A    between atoms: C_7  and  S_10
REMARK    3  A    between atoms: S_10  and  C_11
REMARK    4  A    between atoms: C_11  and  C_12
REMARK    5  A    between atoms: C_17  and  C_20
REMARK                            x       y       z     vdW  Elec       q    Type
REMARK                         _______ _______ _______ _____ _____    ______ ____
ROOT
ATOM      1  C   UNL     1      -3.533   5.596  -5.844  0.00  0.00    +0.229 C 
ATOM      2  O   UNL     1      -4.032   4.898  -6.701  0.00  0.00    -0.275 OA
ATOM      3  N   UNL     1      -3.607   6.938  -5.941  0.00  0.00    -0.264 N 
ATOM      4  C   UNL     1      -4.255   7.522  -7.023  0.00  0.00    +0.165 A 
ATOM      5  N   UNL     1      -4.428   8.801  -7.302  0.00  0.00    -0.225 NA
ATOM      6  C   UNL     1      -5.078   9.185  -8.390  0.00  0.00    +0.080 A 
ATOM      7  C   UNL     1      -5.579   8.240  -9.242  0.00  0.00    +0.076 A 
ATOM      8  S   UNL     1      -5.067   6.742  -8.411  0.00  0.00    -0.060 S 
ATOM      9  H   UNL     1      -3.207   7.497  -5.256  0.00  0.00    +0.157 HD
ENDROOT
BRANCH   6  10
ATOM     10  C   UNL     1      -5.262  10.628  -8.682  0.00  0.00    +0.001 A 
ATOM     11  C   UNL     1      -5.952  11.028  -9.825  0.00  0.00    +0.011 A 
ATOM     12  C   UNL     1      -6.120  12.371 -10.091  0.00  0.00    +0.016 A 
ATOM     13  C   UNL     1      -5.605  13.321  -9.226  0.00  0.00    +0.018 A 
ATOM     14  C   UNL     1      -4.918  12.929  -8.090  0.00  0.00    +0.016 A 
ATOM     15  C   UNL     1      -4.750  11.588  -7.811  0.00  0.00    +0.011 A 
ATOM     16 BR   UNL     1      -5.839  15.160  -9.598  0.00  0.00    -0.050 Br
ENDBRANCH   6  10
BRANCH   1  17
ATOM     17  C   UNL     1      -2.830   4.963  -4.671  0.00  0.00    +0.173 C 
BRANCH  17  18
ATOM     18  S   UNL     1      -2.901   3.157  -4.827  0.00  0.00    -0.077 S 
BRANCH  18  25
ATOM     19  C   UNL     1      -0.013   1.086   0.008  0.00  0.00    +0.073 C 
ATOM     20  C   UNL     1      -0.742   1.585  -1.213  0.00  0.00    +0.124 A 
ATOM     21  C   UNL     1      -0.899   3.022  -1.451  0.00  0.00    +0.295 A 
ATOM     22  O   UNL     1      -0.439   3.831  -0.659  0.00  0.00    -0.264 OA
ATOM     23  N   UNL     1      -1.550   3.441  -2.542  0.00  0.00    -0.182 NA
ATOM     24  H   UNL     1      -2.291   0.614  -3.848  0.00  0.00    +0.191 HD
ATOM     25  C   UNL     1      -2.049   2.572  -3.400  0.00  0.00    +0.187 A 
ATOM     26  N   UNL     1      -1.916   1.235  -3.203  0.00  0.00    -0.255 N 
ATOM     27  N   UNL     1      -1.239   0.744  -2.079  0.00  0.00    -0.172 NA
ENDBRANCH  18  25
ENDBRANCH  17  18
ENDBRANCH   1  17
TORSDOF 4
