REMARK  Name = ZINC46428800
REMARK  8 active torsions:
REMARK  status: ('A' for Active; 'I' for Inactive)
REMARK    1  A    between atoms: N_9  and  C_11
REMARK    2  A    between atoms: C_11  and  C_12
REMARK    3  A    between atoms: C_12  and  C_13
REMARK    4  A    between atoms: C_13  and  N_14
REMARK    5  A    between atoms: N_17  and  N_18
REMARK    6  A    between atoms: N_18  and  C_19
REMARK    7  A    between atoms: C_19  and  N_21
REMARK    8  A    between atoms: N_21  and  C_22
REMARK                            x       y       z     vdW  Elec       q    Type
REMARK                         _______ _______ _______ _____ _____    ______ ____
ROOT
ATOM      1  N   UNL     1       8.238  -2.333   1.887  0.00  0.00    -0.298 N 
ATOM      2  C   UNL     1       9.494  -2.821   1.903  0.00  0.00    +0.316 C 
ATOM      3  O   UNL     1       9.800  -3.738   1.167  0.00  0.00    -0.251 OA
ATOM      4  N   UNL     1      10.412  -2.291   2.737  0.00  0.00    -0.219 N 
ATOM      5  H   UNL     1       7.994  -1.601   2.474  0.00  0.00    +0.150 HD
ATOM      6  H   UNL     1      11.316  -2.642   2.749  0.00  0.00    +0.174 HD
ENDROOT
BRANCH   4   7
ATOM      7  N   UNL     1      10.059  -1.234   3.586  0.00  0.00    -0.245 N 
ATOM      8  H   UNL     1       9.155  -0.883   3.574  0.00  0.00    +0.172 HD
BRANCH   7   9
ATOM      9  C   UNL     1      10.977  -0.705   4.419  0.00  0.00    +0.147 C 
ATOM     10  S   UNL     1      10.546   0.588   5.457  0.00  0.00    -0.017 S 
BRANCH   9  11
ATOM     11  N   UNL     1      12.233  -1.192   4.436  0.00  0.00    -0.323 N 
ATOM     12  H   UNL     1      12.477  -1.924   3.848  0.00  0.00    +0.148 HD
BRANCH  11  13
ATOM     13  C   UNL     1      13.230  -0.617   5.342  0.00  0.00    +0.072 C 
ATOM     14  C   UNL     1      13.170  -1.324   6.712  0.00  0.00    +0.022 C 
ATOM     15  C   UNL     1      14.271  -2.410   6.627  0.00  0.00    +0.002 C 
ATOM     16  C   UNL     1      15.396  -1.696   5.838  0.00  0.00    +0.002 C 
ATOM     17  C   UNL     1      14.646  -0.854   4.786  0.00  0.00    +0.022 C 
ENDBRANCH  11  13
ENDBRANCH   9  11
ENDBRANCH   7   9
ENDBRANCH   4   7
BRANCH   1  18
ATOM     18  C   UNL     1       7.241  -2.908   0.981  0.00  0.00    +0.104 C 
BRANCH  18  19
ATOM     19  C   UNL     1       5.908  -2.179   1.160  0.00  0.00    +0.000 C 
BRANCH  19  20
ATOM     20  C   UNL     1       4.866  -2.780   0.214  0.00  0.00    -0.077 C 
BRANCH  20  29
ATOM     21  C   UNL     1      -0.017   1.376   0.010  0.00  0.00    +0.000 A 
ATOM     22  C   UNL     1       1.173   2.080   0.002  0.00  0.00    +0.000 A 
ATOM     23  C   UNL     1       2.375   1.401  -0.015  0.00  0.00    +0.002 A 
ATOM     24  C   UNL     1       2.395   0.014  -0.023  0.00  0.00    -0.061 A 
ATOM     25  C   UNL     1       1.208  -0.687  -0.013  0.00  0.00    -0.048 A 
ATOM     26  C   UNL     1       0.002  -0.004   0.002  0.00  0.00    +0.004 A 
ATOM     27  C   UNL     1       1.186  -2.194  -0.014  0.00  0.00    +0.017 C 
ATOM     28  C   UNL     1       2.554  -2.732  -0.434  0.00  0.00    -0.074 C 
ATOM     29  N   UNL     1       3.587  -2.079   0.386  0.00  0.00    +0.383 N 
ATOM     30  C   UNL     1       3.728  -0.686  -0.046  0.00  0.00    -0.043 C 
ATOM     31  H   UNL     1       3.313  -2.106   1.357  0.00  0.00    -0.081 HD
ENDBRANCH  20  29
ENDBRANCH  19  20
ENDBRANCH  18  19
ENDBRANCH   1  18
TORSDOF 8
