REMARK  Name = ZINC12151772
REMARK  10 active torsions:
REMARK  status: ('A' for Active; 'I' for Inactive)
REMARK    1  A    between atoms: C_1  and  O_2
REMARK    2  A    between atoms: O_2  and  C_3
REMARK    3  A    between atoms: C_3  and  C_4
REMARK    4  A    between atoms: C_7  and  C_9
REMARK    5  A    between atoms: C_9  and  N_68
REMARK    6  A    between atoms: C_16  and  C_28
REMARK    7  A    between atoms: C_18  and  O_19
REMARK    8  A    between atoms: O_19  and  C_20
REMARK    9  A    between atoms: C_20  and  C_21
REMARK   10  A    between atoms: C_21  and  C_22
REMARK                            x       y       z     vdW  Elec       q    Type
REMARK                         _______ _______ _______ _____ _____    ______ ____
ROOT
ATOM      1  C   UNL     1      -9.127   3.586   0.822  0.00  0.00    -0.036 C 
ATOM      2  C   UNL     1      -8.649   2.752  -0.347  0.00  0.00    +0.211 C 
ATOM      3  O   UNL     1      -7.626   1.838   0.068  0.00  0.00    -0.490 OA
ATOM      4  C   UNL     1      -6.361   2.343   0.076  0.00  0.00    +0.163 A 
ATOM      5  C   UNL     1      -6.008   3.306   1.001  0.00  0.00    -0.018 A 
ATOM      6  C   UNL     1      -4.742   3.852   1.000  0.00  0.00    +0.014 A 
ATOM      7  C   UNL     1      -3.806   3.422   0.058  0.00  0.00    -0.013 A 
ATOM      8  C   UNL     1      -4.154   2.440  -0.869  0.00  0.00    +0.058 A 
ATOM      9  C   UNL     1      -5.430   1.904  -0.863  0.00  0.00    +0.163 A 
ATOM     10  C   UNL     1      -7.024   3.745   2.039  0.00  0.00    -0.038 C 
ATOM     11  N   UNL     1      -8.088   4.503   1.340  0.00  0.00    +0.389 N 
ATOM     12  H   UNL     1      -7.669   5.006   0.549  0.00  0.00    -0.081 HD
ENDROOT
BRANCH   7  13
ATOM     13  C   UNL     1      -2.442   4.003   0.048  0.00  0.00    -0.003 A 
ATOM     14  C   UNL     1      -2.266   5.345   0.054  0.00  0.00    +0.055 A 
ATOM     15  S   UNL     1      -0.494   5.532   0.037  0.00  0.00    -0.096 S 
ATOM     16  C   UNL     1      -0.031   3.819   0.023  0.00  0.00    +0.020 A 
ATOM     17  C   UNL     1      -1.265   3.136   0.031  0.00  0.00    -0.003 A 
ATOM     18  C   UNL     1      -1.208   1.724   0.017  0.00  0.00    +0.009 A 
ATOM     19  C   UNL     1      -0.013   1.076   0.008  0.00  0.00    +0.001 A 
ATOM     20  C   UNL     1       1.189   1.771   0.000  0.00  0.00    +0.001 A 
ATOM     21  C   UNL     1       1.175   3.151   0.008  0.00  0.00    +0.015 A 
ENDBRANCH   7  13
BRANCH  11  22
ATOM     22  C   UNL     1      -8.697   5.479   2.257  0.00  0.00    -0.003 C 
BRANCH  22  26
ATOM     23  C   UNL     1     -10.249   8.099   0.241  0.00  0.00    +0.131 A 
ATOM     24  C   UNL     1     -11.324   7.314   0.437  0.00  0.00    +0.047 A 
ATOM     25  C   UNL     1     -10.895   6.219   1.221  0.00  0.00    +0.043 A 
ATOM     26  C   UNL     1      -9.583   6.400   1.458  0.00  0.00    +0.089 A 
ATOM     27  O   UNL     1      -9.198   7.543   0.867  0.00  0.00    -0.464 OA
BRANCH  23  28
ATOM     28  C   UNL     1     -10.228   9.386  -0.541  0.00  0.00    +0.233 C 
BRANCH  28  30
ATOM     29  C   UNL     1     -10.523  11.754  -0.313  0.00  0.00    +0.194 C 
ATOM     30  O   UNL     1     -10.518  10.479   0.332  0.00  0.00    -0.375 OA
ENDBRANCH  28  30
ENDBRANCH  23  28
ENDBRANCH  22  26
ENDBRANCH  11  22
BRANCH   9  31
ATOM     31  O   UNL     1      -5.774   0.952  -1.771  0.00  0.00    -0.488 OA
BRANCH  31  32
ATOM     32  C   UNL     1      -4.768   0.551  -2.703  0.00  0.00    +0.235 C 
BRANCH  32  33
ATOM     33  C   UNL     1      -5.335  -0.519  -3.638  0.00  0.00    +0.096 C 
BRANCH  33  34
ATOM     34  C   UNL     1      -4.274  -0.942  -4.621  0.00  0.00    +0.044 A 
ATOM     35  C   UNL     1      -3.938  -2.279  -4.731  0.00  0.00    +0.023 A 
ATOM     36  C   UNL     1      -2.961  -2.657  -5.638  0.00  0.00    +0.003 A 
ATOM     37  C   UNL     1      -2.356  -1.673  -6.405  0.00  0.00    +0.020 A 
ATOM     38  C   UNL     1      -2.744  -0.357  -6.240  0.00  0.00    +0.111 A 
ATOM     39  N   UNL     1      -3.681  -0.034  -5.370  0.00  0.00    -0.260 NA
ENDBRANCH  33  34
ENDBRANCH  32  33
ENDBRANCH  31  32
ENDBRANCH   9  31
TORSDOF 9
