REMARK  Name = ZINC23700988
REMARK  7 active torsions:
REMARK  status: ('A' for Active; 'I' for Inactive)
REMARK    1  A    between atoms: C_4  and  C_7
REMARK    2  A    between atoms: C_7  and  C_8
REMARK    3  A    between atoms: C_7  and  N_14
REMARK    4  A    between atoms: N_14  and  C_15
REMARK    5  A    between atoms: C_15  and  C_16
REMARK    6  A    between atoms: N_21  and  S_24
REMARK    7  A    between atoms: S_24  and  C_27
REMARK                            x       y       z     vdW  Elec       q    Type
REMARK                         _______ _______ _______ _____ _____    ______ ____
ROOT
ATOM      1  C   UNL     1       4.228  -1.895  -6.342  0.00  0.00    +0.016 C 
ENDROOT
BRANCH   1   2
ATOM      2  C   UNL     1       4.431  -0.589  -5.616  0.00  0.00    +0.199 C 
ATOM      3  O   UNL     1       4.923   0.356  -6.195  0.00  0.00    -0.278 OA
ATOM      4  N   UNL     1       4.065  -0.472  -4.324  0.00  0.00    -0.300 N 
ATOM      5  C   UNL     1       4.256   0.794  -3.604  0.00  0.00    +0.125 C 
ATOM      6  C   UNL     1       5.081   0.520  -2.341  0.00  0.00    +0.128 C 
ATOM      7  N   UNL     1       4.483  -0.617  -1.627  0.00  0.00    -0.173 NA
ATOM      8  C   UNL     1       4.297  -1.885  -2.346  0.00  0.00    +0.128 C 
ATOM      9  C   UNL     1       3.467  -1.609  -3.611  0.00  0.00    +0.125 C 
BRANCH   7  10
ATOM     10  S   UNL     1       4.034  -0.473  -0.040  0.00  0.00    +0.067 S 
ATOM     11  O   UNL     1       4.814   0.580   0.509  0.00  0.00    -0.152 OA
ATOM     12  O   UNL     1       4.036  -1.786   0.503  0.00  0.00    -0.152 OA
BRANCH  10  13
ATOM     13  C   UNL     1       2.360   0.077  -0.020  0.00  0.00    +0.144 A 
ATOM     14  C   UNL     1       1.221  -0.657  -0.013  0.00  0.00    +0.038 A 
ATOM     15  C   UNL     1       0.002  -0.004   0.002  0.00  0.00    +0.030 A 
ATOM     16  C   UNL     1      -0.016   1.352   0.009  0.00  0.00    +0.080 A 
ATOM     17  S   UNL     1       1.725   1.745  -0.005  0.00  0.00    -0.057 S 
ATOM     18 CL   UNL     1      -1.379   2.427   0.022  0.00  0.00    -0.076 Cl
ENDBRANCH  10  13
ENDBRANCH   7  10
ENDBRANCH   1   2
BRANCH   1  19
ATOM     19  N   UNL     1       4.704  -1.765  -7.725  0.00  0.00    +0.392 N 
ATOM     20  H   UNL     1       5.771  -1.501  -7.708  0.00  0.00    -0.084 HD
ATOM     21  H   UNL     1       4.136  -0.963  -8.220  0.00  0.00    -0.084 HD
BRANCH  19  22
ATOM     22  C   UNL     1       4.522  -3.021  -8.465  0.00  0.00    -0.009 C 
BRANCH  22  26
ATOM     23  C   UNL     1       4.235  -2.185 -12.644  0.00  0.00    +0.000 A 
ATOM     24  C   UNL     1       3.420  -3.144 -12.073  0.00  0.00    +0.000 A 
ATOM     25  C   UNL     1       3.513  -3.415 -10.721  0.00  0.00    +0.002 A 
ATOM     26  C   UNL     1       4.421  -2.726  -9.939  0.00  0.00    -0.057 A 
ATOM     27  C   UNL     1       5.233  -1.763 -10.509  0.00  0.00    +0.002 A 
ATOM     28  C   UNL     1       5.143  -1.496 -11.862  0.00  0.00    +0.000 A 
ENDBRANCH  22  26
BRANCH  22  29
ATOM     29  C   UNL     1       5.700  -3.927  -8.213  0.00  0.00    -0.057 A 
ATOM     30  C   UNL     1       6.978  -3.402  -8.166  0.00  0.00    +0.002 A 
ATOM     31  C   UNL     1       8.057  -4.232  -7.931  0.00  0.00    +0.000 A 
ATOM     32  C   UNL     1       7.860  -5.589  -7.752  0.00  0.00    +0.000 A 
ATOM     33  C   UNL     1       6.583  -6.115  -7.805  0.00  0.00    +0.000 A 
ATOM     34  C   UNL     1       5.503  -5.284  -8.035  0.00  0.00    +0.002 A 
ENDBRANCH  22  29
ENDBRANCH  19  22
ENDBRANCH   1  19
TORSDOF 7
