REMARK  Name = ZINC12293367
REMARK  5 active torsions:
REMARK  status: ('A' for Active; 'I' for Inactive)
REMARK    1  A    between atoms: C_4  and  C_7
REMARK    2  A    between atoms: C_7  and  C_9
REMARK    3  A    between atoms: C_7  and  O_30
REMARK    4  A    between atoms: C_9  and  N_56
REMARK    5  A    between atoms: C_16  and  O_29
REMARK                            x       y       z     vdW  Elec       q    Type
REMARK                         _______ _______ _______ _____ _____    ______ ____
ROOT
ATOM      1  C   UNL     1      -4.753   2.713   2.826  0.00  0.00    -0.075 C 
ATOM      2  C   UNL     1      -4.705   4.083   2.145  0.00  0.00    +0.029 C 
ATOM      3  C   UNL     1      -4.621   3.891   0.630  0.00  0.00    +0.110 C 
ATOM      4  C   UNL     1      -5.816   3.063   0.154  0.00  0.00    +0.029 C 
ATOM      5  C   UNL     1      -5.830   1.724   0.894  0.00  0.00    -0.075 C 
ATOM      6  C   UNL     1      -4.638   5.258  -0.063  0.00  0.00    +0.084 C 
ATOM      7  C   UNL     1      -3.483   6.093   0.495  0.00  0.00    +0.152 C 
ATOM      8  C   UNL     1      -2.213   5.278   0.493  0.00  0.00    +0.023 A 
ATOM      9  C   UNL     1      -0.994   5.956   0.590  0.00  0.00    +0.010 A 
ATOM     10  C   UNL     1       0.190   5.289   0.603  0.00  0.00    +0.009 A 
ATOM     11  C   UNL     1       0.199   3.886   0.525  0.00  0.00    -0.014 A 
ATOM     12  C   UNL     1       1.403   3.161   0.544  0.00  0.00    +0.008 A 
ATOM     13  C   UNL     1       1.369   1.802   0.472  0.00  0.00    +0.001 A 
ATOM     14  C   UNL     1       0.159   1.118   0.379  0.00  0.00    +0.001 A 
ATOM     15  C   UNL     1      -1.025   1.790   0.350  0.00  0.00    +0.012 A 
ATOM     16  C   UNL     1      -1.030   3.192   0.427  0.00  0.00    +0.024 A 
ATOM     17  C   UNL     1      -2.243   3.918   0.405  0.00  0.00    +0.135 A 
ATOM     18  O   UNL     1      -3.406   3.226   0.292  0.00  0.00    -0.485 OA
ATOM     19  N   UNL     1      -5.943   1.979   2.346  0.00  0.00    +0.382 N 
ATOM     20  H   UNL     1      -6.778   2.549   2.520  0.00  0.00    -0.082 HD
ENDROOT
BRANCH   7  21
ATOM     21  O   UNL     1      -3.302   7.255  -0.317  0.00  0.00    -0.387 OA
ATOM     22  H   UNL     1      -2.589   7.836  -0.019  0.00  0.00    +0.210 HD
ENDBRANCH   7  21
BRANCH  19  23
ATOM     23  C   UNL     1      -6.074   0.701   3.075  0.00  0.00    -0.042 C 
BRANCH  23  24
ATOM     24  C   UNL     1      -5.035  -0.308   2.582  0.00  0.00    +0.128 C 
BRANCH  24  28
ATOM     25  C   UNL     1      -5.757  -4.103   4.405  0.00  0.00    +0.000 A 
ATOM     26  C   UNL     1      -6.188  -3.864   3.114  0.00  0.00    +0.000 A 
ATOM     27  C   UNL     1      -5.954  -2.636   2.524  0.00  0.00    +0.006 A 
ATOM     28  C   UNL     1      -5.290  -1.647   3.225  0.00  0.00    -0.021 A 
ATOM     29  C   UNL     1      -4.854  -1.888   4.515  0.00  0.00    +0.006 A 
ATOM     30  C   UNL     1      -5.092  -3.115   5.107  0.00  0.00    +0.000 A 
ENDBRANCH  24  28
BRANCH  24  31
ATOM     31  O   UNL     1      -3.726   0.147   2.932  0.00  0.00    -0.389 OA
ATOM     32  H   UNL     1      -3.589   0.256   3.882  0.00  0.00    +0.210 HD
ENDBRANCH  24  31
ENDBRANCH  23  24
ENDBRANCH  19  23
TORSDOF 5
