REMARK  Name = ZINC58366989
REMARK  7 active torsions:
REMARK  status: ('A' for Active; 'I' for Inactive)
REMARK    1  A    between atoms: C_1  and  C_2
REMARK    2  A    between atoms: C_3  and  N_9
REMARK    3  A    between atoms: C_4  and  C_8
REMARK    4  A    between atoms: C_10  and  C_12
REMARK    5  A    between atoms: C_12  and  C_13
REMARK    6  A    between atoms: C_13  and  N_14
REMARK    7  A    between atoms: N_17  and  C_18
REMARK                            x       y       z     vdW  Elec       q    Type
REMARK                         _______ _______ _______ _____ _____    ______ ____
ROOT
ATOM      1  N   UNL     1       0.971  -0.695  -7.140  0.00  0.00    -0.299 N 
ATOM      2  C   UNL     1       1.380  -1.429  -8.194  0.00  0.00    +0.300 C 
ATOM      3  O   UNL     1       1.698  -2.593  -8.038  0.00  0.00    -0.253 OA
ATOM      4  N   UNL     1       1.437  -0.874  -9.421  0.00  0.00    -0.294 N 
ATOM      5  H   UNL     1       0.717   0.233  -7.265  0.00  0.00    +0.150 HD
ATOM      6  H   UNL     1       1.183   0.054  -9.545  0.00  0.00    +0.151 HD
ENDROOT
BRANCH   4   7
ATOM      7  C   UNL     1       1.882  -1.672 -10.566  0.00  0.00    +0.037 C 
ATOM      8  C   UNL     1       3.307  -2.169 -10.319  0.00  0.00    +0.029 C 
ATOM      9  C   UNL     1       3.772  -3.002 -11.515  0.00  0.00    -0.008 C 
ATOM     10  C   UNL     1       3.744  -2.140 -12.778  0.00  0.00    +0.007 C 
ATOM     11  C   UNL     1       2.318  -1.644 -13.026  0.00  0.00    -0.008 C 
ATOM     12  C   UNL     1       1.854  -0.810 -11.830  0.00  0.00    +0.029 C 
ATOM     13  C   UNL     1       1.385  -2.842 -13.206  0.00  0.00    +0.007 C 
ATOM     14  C   UNL     1       1.412  -3.704 -11.942  0.00  0.00    -0.008 C 
ATOM     15  C   UNL     1       2.838  -4.201 -11.694  0.00  0.00    +0.007 C 
ATOM     16  C   UNL     1       0.948  -2.871 -10.746  0.00  0.00    +0.029 C 
ENDBRANCH   4   7
BRANCH   1  17
ATOM     17  C   UNL     1       0.909  -1.299  -5.807  0.00  0.00    +0.115 C 
BRANCH  17  18
ATOM     18  C   UNL     1       0.417  -0.259  -4.798  0.00  0.00    +0.115 C 
BRANCH  18  20
ATOM     19  N   UNL     1      -0.056  -0.145  -2.373  0.00  0.00    -0.283 N 
ATOM     20  C   UNL     1       0.353  -0.879  -3.427  0.00  0.00    +0.219 C 
ATOM     21  O   UNL     1       0.670  -2.040  -3.271  0.00  0.00    -0.275 OA
ATOM     22  H   UNL     1      -0.381   0.759  -2.509  0.00  0.00    +0.155 HD
BRANCH  19  25
ATOM     23  C   UNL     1       2.046   0.576  -0.244  0.00  0.00    +0.067 C 
ATOM     24  C   UNL     1       0.900  -0.394  -0.115  0.00  0.00    +0.054 A 
ATOM     25  C   UNL     1      -0.012  -0.690  -1.076  0.00  0.00    +0.077 A 
ATOM     26  C   UNL     1      -0.902  -1.636  -0.547  0.00  0.00    +0.081 A 
ATOM     27  N   UNL     1      -0.541  -1.897   0.683  0.00  0.00    -0.177 NA
ATOM     28  N   UNL     1       0.595  -1.134   0.982  0.00  0.00    -0.280 N 
ATOM     29  H   UNL     1       1.077  -1.133   1.823  0.00  0.00    +0.189 HD
ATOM     30  C   UNL     1      -2.075  -2.245  -1.271  0.00  0.00    +0.069 C 
ENDBRANCH  19  25
ENDBRANCH  18  20
ENDBRANCH  17  18
ENDBRANCH   1  17
TORSDOF 5
