REMARK  Name = ZINC26510716
REMARK  7 active torsions:
REMARK  status: ('A' for Active; 'I' for Inactive)
REMARK    1  A    between atoms: C_1  and  C_2
REMARK    2  A    between atoms: C_2  and  C_4
REMARK    3  A    between atoms: C_2  and  N_15
REMARK    4  A    between atoms: N_6  and  C_7
REMARK    5  A    between atoms: N_10  and  C_12
REMARK    6  A    between atoms: C_12  and  C_13
REMARK    7  A    between atoms: C_12  and  C_14
REMARK                            x       y       z     vdW  Elec       q    Type
REMARK                         _______ _______ _______ _____ _____    ______ ____
ROOT
ATOM      1  C   UNL     1      -1.412  -0.526   0.013  0.00  0.00    +0.203 C 
ATOM      2  O   UNL     1      -1.790  -1.233   0.922  0.00  0.00    -0.277 OA
ATOM      3  N   UNL     1      -2.256  -0.206  -0.988  0.00  0.00    -0.284 N 
ATOM      4  H   UNL     1      -1.953   0.360  -1.716  0.00  0.00    +0.155 HD
ENDROOT
BRANCH   3   5
ATOM      5  C   UNL     1      -3.576  -0.693  -0.978  0.00  0.00    +0.071 A 
ATOM      6  C   UNL     1      -4.147  -1.511   0.007  0.00  0.00    +0.157 A 
ATOM      7  N   UNL     1      -5.388  -1.755  -0.328  0.00  0.00    -0.178 NA
ATOM      8  N   UNL     1      -5.654  -1.102  -1.538  0.00  0.00    -0.267 N 
ATOM      9  C   UNL     1      -4.525  -0.450  -1.918  0.00  0.00    +0.132 A 
BRANCH   8  10
ATOM     10  C   UNL     1      -6.927  -1.116  -2.264  0.00  0.00    +0.101 C 
ATOM     11  C   UNL     1      -7.745   0.119  -1.883  0.00  0.00    +0.032 C 
ATOM     12  C   UNL     1      -6.656  -1.105  -3.770  0.00  0.00    +0.032 C 
ENDBRANCH   8  10
ENDBRANCH   3   5
BRANCH   1  14
ATOM     13  C   UNL     1      -0.019   1.526   0.010  0.00  0.00    -0.005 C 
ATOM     14  C   UNL     1       0.002  -0.004   0.002  0.00  0.00    +0.010 C 
BRANCH  14  15
ATOM     15  N   UNL     1       0.713  -0.491   1.192  0.00  0.00    +0.385 N 
ATOM     16  H   UNL     1       0.240  -0.165   2.022  0.00  0.00    -0.089 HD
ATOM     17  H   UNL     1       0.726  -1.500   1.187  0.00  0.00    -0.089 HD
ATOM     18  H   UNL     1       1.659  -0.141   1.185  0.00  0.00    -0.089 HD
ENDBRANCH  14  15
ENDBRANCH   1  14
TORSDOF 4
