REMARK  Name = ZINC59170418
REMARK  7 active torsions:
REMARK  status: ('A' for Active; 'I' for Inactive)
REMARK    1  A    between atoms: C_1  and  C_2
REMARK    2  A    between atoms: C_5  and  N_8
REMARK    3  A    between atoms: C_9  and  C_11
REMARK    4  A    between atoms: N_25  and  N_26
REMARK    5  A    between atoms: N_26  and  S_27
REMARK    6  A    between atoms: S_27  and  C_30
REMARK    7  A    between atoms: C_33  and  C_36
REMARK                            x       y       z     vdW  Elec       q    Type
REMARK                         _______ _______ _______ _____ _____    ______ ____
ROOT
ATOM      1  C   UNL     1       0.717  -6.449   0.956  0.00  0.00    +0.099 A 
ATOM      2  C   UNL     1       0.673  -7.110   2.173  0.00  0.00    +0.030 A 
ATOM      3  C   UNL     1       0.282  -8.470   2.184  0.00  0.00    +0.026 A 
ATOM      4  C   UNL     1       0.004  -9.158   3.445  0.00  0.00    -0.007 A 
ATOM      5  C   UNL     1       0.133  -8.510   4.677  0.00  0.00    +0.009 A 
ATOM      6  C   UNL     1      -0.137  -9.189   5.829  0.00  0.00    +0.001 A 
ATOM      7  C   UNL     1      -0.538 -10.522   5.794  0.00  0.00    +0.001 A 
ATOM      8  C   UNL     1      -0.673 -11.183   4.611  0.00  0.00    +0.008 A 
ATOM      9  C   UNL     1      -0.404 -10.513   3.405  0.00  0.00    -0.017 A 
ATOM     10  C   UNL     1      -0.534 -11.163   2.164  0.00  0.00    +0.012 A 
ATOM     11  C   UNL     1      -0.263 -10.513   1.002  0.00  0.00    +0.047 A 
ATOM     12  C   UNL     1       0.151  -9.180   0.985  0.00  0.00    +0.138 A 
ATOM     13  O   UNL     1       0.448  -8.577  -0.195  0.00  0.00    -0.437 OA
ATOM     14  C   UNL     1       0.310  -7.218  -0.244  0.00  0.00    +0.225 A 
ATOM     15  N   UNL     1      -0.156  -6.620  -1.304  0.00  0.00    -0.260 N 
ATOM     16  H   UNL     1      -0.366  -5.673  -1.275  0.00  0.00    +0.189 HD
ENDROOT
BRANCH   1  18
ATOM     17  N   UNL     1       1.327  -4.318   1.980  0.00  0.00    -0.281 N 
ATOM     18  C   UNL     1       1.142  -5.044   0.860  0.00  0.00    +0.253 C 
ATOM     19  O   UNL     1       1.327  -4.538  -0.231  0.00  0.00    -0.270 OA
ATOM     20  H   UNL     1       1.280  -4.747   2.849  0.00  0.00    +0.155 HD
BRANCH  17  25
ATOM     21  C   UNL     1       2.377   1.244   1.615  0.00  0.00    +0.044 C 
ATOM     22  C   UNL     1       2.097  -0.234   1.712  0.00  0.00    -0.050 A 
ATOM     23  C   UNL     1       1.478  -0.746   2.837  0.00  0.00    +0.005 A 
ATOM     24  C   UNL     1       1.221  -2.100   2.929  0.00  0.00    +0.023 A 
ATOM     25  C   UNL     1       1.585  -2.947   1.890  0.00  0.00    +0.034 A 
ATOM     26  C   UNL     1       2.206  -2.429   0.761  0.00  0.00    +0.023 A 
ATOM     27  C   UNL     1       2.456  -1.073   0.673  0.00  0.00    +0.005 A 
ENDBRANCH  17  25
ENDBRANCH   1  18
BRANCH  15  28
ATOM     28  N   UNL     1      -0.355  -7.345  -2.486  0.00  0.00    -0.157 N 
ATOM     29  H   UNL     1      -0.225  -8.306  -2.494  0.00  0.00    +0.194 HD
BRANCH  28  30
ATOM     30  S   UNL     1      -0.813  -6.561  -3.872  0.00  0.00    +0.085 S 
ATOM     31  O   UNL     1      -0.634  -7.482  -4.938  0.00  0.00    -0.149 OA
ATOM     32  O   UNL     1      -2.065  -5.948  -3.596  0.00  0.00    -0.149 OA
BRANCH  30  33
ATOM     33  C   UNL     1       0.340  -5.255  -4.136  0.00  0.00    +0.110 A 
ATOM     34  C   UNL     1       0.120  -4.013  -3.568  0.00  0.00    +0.029 A 
ATOM     35  C   UNL     1       1.025  -2.989  -3.776  0.00  0.00    +0.005 A 
ATOM     36  C   UNL     1       2.149  -3.205  -4.550  0.00  0.00    -0.050 A 
ATOM     37  C   UNL     1       2.369  -4.447  -5.117  0.00  0.00    +0.005 A 
ATOM     38  C   UNL     1       1.467  -5.473  -4.906  0.00  0.00    +0.029 A 
ATOM     39  C   UNL     1       3.135  -2.088  -4.777  0.00  0.00    +0.044 C 
ENDBRANCH  30  33
ENDBRANCH  28  30
ENDBRANCH  15  28
TORSDOF 5
