REMARK  Name = ZINC08738466
REMARK  5 active torsions:
REMARK  status: ('A' for Active; 'I' for Inactive)
REMARK    1  A    between atoms: C_1  and  C_2
REMARK    2  A    between atoms: C_5  and  N_8
REMARK    3  A    between atoms: C_11  and  C_17
REMARK    4  A    between atoms: C_12  and  O_16
REMARK    5  A    between atoms: C_14  and  O_15
REMARK                            x       y       z     vdW  Elec       q    Type
REMARK                         _______ _______ _______ _____ _____    ______ ____
ROOT
ATOM      1  N   UNL     1       1.219   2.952   0.006  0.00  0.00    -0.231 N 
ATOM      2  C   UNL     1       2.343   3.507  -0.493  0.00  0.00    +0.267 A 
ATOM      3  O   UNL     1       2.331   4.645  -0.934  0.00  0.00    -0.267 OA
ATOM      4  C   UNL     1       3.524   2.754  -0.496  0.00  0.00    +0.069 A 
ATOM      5  C   UNL     1       3.493   1.467   0.013  0.00  0.00    +0.224 A 
ATOM      6  N   UNL     1       2.350   0.972   0.499  0.00  0.00    -0.161 NA
ATOM      7  C   UNL     1       1.244   1.682   0.495  0.00  0.00    +0.306 A 
ENDROOT
BRANCH   4   8
ATOM      8  C   UNL     1       4.803   3.333  -1.043  0.00  0.00    +0.001 C 
ATOM      9  C   UNL     1       4.654   3.558  -2.525  0.00  0.00    -0.054 A 
ATOM     10  C   UNL     1       4.028   2.579  -3.282  0.00  0.00    +0.002 A 
ATOM     11  C   UNL     1       3.872   2.742  -4.644  0.00  0.00    +0.000 A 
ATOM     12  C   UNL     1       4.343   3.887  -5.258  0.00  0.00    +0.000 A 
ATOM     13  C   UNL     1       4.965   4.863  -4.506  0.00  0.00    +0.004 A 
ATOM     14  C   UNL     1       5.121   4.701  -3.138  0.00  0.00    -0.047 A 
ATOM     15  C   UNL     1       5.803   5.795  -2.357  0.00  0.00    +0.016 C 
ATOM     16  C   UNL     1       6.242   5.266  -0.992  0.00  0.00    -0.077 C 
ATOM     17  N   UNL     1       5.091   4.599  -0.355  0.00  0.00    +0.387 N 
ATOM     18  H   UNL     1       5.311   4.408   0.630  0.00  0.00    -0.085 HD
ATOM     19  H   UNL     1       4.269   5.212  -0.410  0.00  0.00    -0.085 HD
ENDBRANCH   4   8
BRANCH   1  24
ATOM     20  C   UNL     1      -3.619   5.917   0.066  0.00  0.00    +0.044 C 
ATOM     21  C   UNL     1      -2.335   5.129   0.050  0.00  0.00    -0.050 A 
ATOM     22  C   UNL     1      -2.021   4.342  -1.043  0.00  0.00    +0.005 A 
ATOM     23  C   UNL     1      -0.844   3.620  -1.060  0.00  0.00    +0.026 A 
ATOM     24  C   UNL     1       0.024   3.683   0.021  0.00  0.00    +0.054 A 
ATOM     25  C   UNL     1      -0.297   4.470   1.120  0.00  0.00    +0.026 A 
ATOM     26  C   UNL     1      -1.472   5.195   1.129  0.00  0.00    +0.005 A 
ENDBRANCH   1  24
BRANCH   7  27
ATOM     27  O   UNL     1       0.111   1.142   0.990  0.00  0.00    -0.479 OA
ATOM     28  H   UNL     1       0.167   0.238   1.328  0.00  0.00    +0.295 HD
ENDBRANCH   7  27
BRANCH   5  29
ATOM     29  O   UNL     1       4.618   0.714   0.023  0.00  0.00    -0.492 OA
ATOM     30  H   UNL     1       4.496  -0.169   0.398  0.00  0.00    +0.294 HD
ENDBRANCH   5  29
TORSDOF 4
