REMARK  Name = ZINC03103273
REMARK  10 active torsions:
REMARK  status: ('A' for Active; 'I' for Inactive)
REMARK    1  A    between atoms: C_1  and  C_2
REMARK    2  A    between atoms: C_2  and  O_3
REMARK    3  A    between atoms: O_3  and  C_4
REMARK    4  A    between atoms: C_4  and  C_6
REMARK    5  A    between atoms: C_6  and  C_7
REMARK    6  A    between atoms: C_6  and  N_19
REMARK    7  A    between atoms: C_6  and  N_45
REMARK    8  A    between atoms: C_11  and  C_12
REMARK    9  A    between atoms: C_11  and  N_45
REMARK   10  A    between atoms: C_20  and  C_22
REMARK                            x       y       z     vdW  Elec       q    Type
REMARK                         _______ _______ _______ _____ _____    ______ ____
ROOT
ATOM      1  C   UNL     1       1.170  -4.065  -1.170  0.00  0.00    +0.196 C 
ENDROOT
BRANCH   1   2
ATOM      2  C   UNL     1      -0.316  -4.312  -0.903  0.00  0.00    +0.406 C 
ATOM      3  F   UNL     1      -1.083  -3.541  -1.783  0.00  0.00    -0.170 F 
ATOM      4  F   UNL     1      -0.606  -5.667  -1.097  0.00  0.00    -0.170 F 
ATOM      5  F   UNL     1      -0.619  -3.955   0.415  0.00  0.00    -0.170 F 
ENDBRANCH   1   2
BRANCH   1   6
ATOM      6  N   UNL     1       1.492  -4.461  -2.543  0.00  0.00    -0.305 N 
ATOM      7  C   UNL     1       2.775  -4.478  -2.956  0.00  0.00    +0.249 C 
ATOM      8  O   UNL     1       3.671  -4.251  -2.166  0.00  0.00    -0.270 OA
ATOM      9  H   UNL     1       0.782  -4.712  -3.155  0.00  0.00    +0.148 HD
BRANCH   7  10
ATOM     10  C   UNL     1       3.091  -4.771  -4.367  0.00  0.00    +0.107 A 
ATOM     11  C   UNL     1       3.168  -3.733  -5.301  0.00  0.00    +0.138 A 
ATOM     12  C   UNL     1       3.471  -4.016  -6.620  0.00  0.00    +0.039 A 
ATOM     13  C   UNL     1       3.686  -5.323  -7.019  0.00  0.00    +0.006 A 
ATOM     14  C   UNL     1       3.607  -6.356  -6.103  0.00  0.00    +0.039 A 
ATOM     15  C   UNL     1       3.311  -6.090  -4.779  0.00  0.00    +0.138 A 
ATOM     16  F   UNL     1       3.234  -7.101  -3.886  0.00  0.00    -0.205 F 
ATOM     17  F   UNL     1       2.953  -2.457  -4.915  0.00  0.00    -0.205 F 
ENDBRANCH   7  10
ENDBRANCH   1   6
BRANCH   1  18
ATOM     18  N   UNL     1       1.474  -2.634  -0.981  0.00  0.00    +0.409 N 
ATOM     19  H   UNL     1       2.490  -2.511  -0.902  0.00  0.00    -0.081 HD
ATOM     20  H   UNL     1       1.022  -2.303  -0.120  0.00  0.00    -0.081 HD
BRANCH  18  21
ATOM     21  C   UNL     1       0.976  -1.849  -2.126  0.00  0.00    -0.042 C 
BRANCH  21  22
ATOM     22  C   UNL     1       1.243  -0.387  -1.875  0.00  0.00    -0.064 A 
ATOM     23  C   UNL     1       2.432   0.180  -2.295  0.00  0.00    +0.004 A 
ATOM     24  C   UNL     1       2.678   1.520  -2.067  0.00  0.00    +0.038 A 
ATOM     25  C   UNL     1       1.732   2.296  -1.417  0.00  0.00    +0.123 A 
ATOM     26  C   UNL     1       0.542   1.727  -0.997  0.00  0.00    +0.038 A 
ATOM     27  C   UNL     1       0.298   0.387  -1.226  0.00  0.00    +0.004 A 
ATOM     28  F   UNL     1       1.972   3.607  -1.193  0.00  0.00    -0.205 F 
ENDBRANCH  21  22
ENDBRANCH  18  21
ENDBRANCH   1  18
BRANCH   1  29
ATOM     29  C   UNL     1       1.995  -4.878  -0.206  0.00  0.00    +0.322 C 
ATOM     30  O   UNL     1       2.486  -4.349   0.764  0.00  0.00    -0.250 OA
BRANCH  29  31
ATOM     31  O   UNL     1       2.186  -6.188  -0.424  0.00  0.00    -0.465 OA
BRANCH  31  33
ATOM     32  C   UNL     1       3.097  -8.377   0.132  0.00  0.00    +0.048 C 
ATOM     33  C   UNL     1       2.992  -6.908   0.545  0.00  0.00    +0.229 C 
ENDBRANCH  31  33
ENDBRANCH  29  31
ENDBRANCH   1  29
TORSDOF 9
