REMARK  Name = ZINC46285862
REMARK  8 active torsions:
REMARK  status: ('A' for Active; 'I' for Inactive)
REMARK    1  A    between atoms: C_1  and  N_2
REMARK    2  A    between atoms: C_10  and  C_11
REMARK    3  A    between atoms: C_11  and  C_12
REMARK    4  A    between atoms: N_14  and  N_15
REMARK    5  A    between atoms: N_18  and  C_19
REMARK    6  A    between atoms: C_19  and  C_20
REMARK    7  A    between atoms: N_26  and  C_27
REMARK    8  A    between atoms: N_26  and  C_28
REMARK                            x       y       z     vdW  Elec       q    Type
REMARK                         _______ _______ _______ _____ _____    ______ ____
ROOT
ATOM      1  N   UNL     1      -3.012   0.384   4.760  0.00  0.00    -0.218 N 
ATOM      2  C   UNL     1      -3.232   0.787   6.027  0.00  0.00    +0.316 C 
ATOM      3  O   UNL     1      -4.369   0.895   6.442  0.00  0.00    -0.251 OA
ATOM      4  N   UNL     1      -2.190   1.070   6.834  0.00  0.00    -0.294 N 
ATOM      5  H   UNL     1      -3.762   0.180   4.179  0.00  0.00    +0.174 HD
ATOM      6  H   UNL     1      -1.282   0.984   6.503  0.00  0.00    +0.151 HD
ENDROOT
BRANCH   1   9
ATOM      7  C   UNL     1      -1.482  -0.144   3.015  0.00  0.00    +0.236 C 
ATOM      8  O   UNL     1      -2.419  -0.399   2.288  0.00  0.00    -0.274 OA
ATOM      9  N   UNL     1      -1.701   0.259   4.282  0.00  0.00    -0.233 N 
ATOM     10  H   UNL     1      -0.951   0.463   4.863  0.00  0.00    +0.173 HD
BRANCH   7  11
ATOM     11  C   UNL     1      -0.071  -0.279   2.500  0.00  0.00    +0.171 C 
BRANCH  11  21
ATOM     12  C   UNL     1      -0.162   1.546   0.005  0.00  0.00    +0.150 C 
ATOM     13  N   UNL     1      -0.141   0.081  -0.017  0.00  0.00    -0.330 N 
ATOM     14  C   UNL     1      -0.151  -0.721  -1.141  0.00  0.00    +0.069 A 
ATOM     15  C   UNL     1      -0.182  -0.472  -2.506  0.00  0.00    +0.028 A 
ATOM     16  C   UNL     1      -0.184  -1.527  -3.393  0.00  0.00    +0.002 A 
ATOM     17  C   UNL     1      -0.157  -2.835  -2.929  0.00  0.00    +0.002 A 
ATOM     18  C   UNL     1      -0.127  -3.099  -1.590  0.00  0.00    +0.030 A 
ATOM     19  C   UNL     1      -0.123  -2.045  -0.672  0.00  0.00    +0.089 A 
ATOM     20  N   UNL     1      -0.097  -1.985   0.684  0.00  0.00    -0.232 NA
ATOM     21  C   UNL     1      -0.102  -0.741   1.067  0.00  0.00    +0.119 A 
ENDBRANCH  11  21
ENDBRANCH   7  11
ENDBRANCH   1   9
BRANCH   4  22
ATOM     22  C   UNL     1      -2.429   1.508   8.212  0.00  0.00    +0.141 C 
BRANCH  22  23
ATOM     23  C   UNL     1      -1.109   1.758   8.895  0.00  0.00    -0.026 A 
ATOM     24  C   UNL     1      -0.459   0.738   9.578  0.00  0.00    +0.023 A 
ATOM     25  C   UNL     1       0.749   0.999  10.194  0.00  0.00    +0.084 A 
ATOM     26  N   UNL     1       1.290   2.201  10.140  0.00  0.00    -0.350 N 
ATOM     27  C   UNL     1       0.701   3.200   9.499  0.00  0.00    +0.098 A 
ATOM     28  C   UNL     1      -0.515   3.006   8.852  0.00  0.00    +0.047 A 
ATOM     29  N   UNL     1       1.307   4.450   9.468  0.00  0.00    -0.323 N 
ATOM     30  C   UNL     1       2.520   4.697  10.252  0.00  0.00    +0.130 C 
ATOM     31  C   UNL     1       0.732   5.523   8.652  0.00  0.00    +0.130 C 
ATOM     32  H   UNL     1       2.139   2.358  10.581  0.00  0.00    +0.166 HD
ENDBRANCH  22  23
ENDBRANCH   4  22
TORSDOF 5
