REMARK  Name = ZINC29037905
REMARK  4 active torsions:
REMARK  status: ('A' for Active; 'I' for Inactive)
REMARK    1  A    between atoms: C_2  and  C_9
REMARK    2  A    between atoms: C_15  and  C_17
REMARK    3  A    between atoms: C_19  and  C_27
REMARK    4  A    between atoms: N_29  and  O_30
REMARK                            x       y       z     vdW  Elec       q    Type
REMARK                         _______ _______ _______ _____ _____    ______ ____
ROOT
ATOM      1  C   UNL     1       2.116   6.244  -2.689  0.00  0.00    -0.041 C 
ATOM      2  C   UNL     1       2.307   7.490  -3.049  0.00  0.00    -0.004 C 
ATOM      3  C   UNL     1       1.592   8.653  -2.420  0.00  0.00    +0.135 C 
ATOM      4  N   UNL     1       0.508   8.148  -1.565  0.00  0.00    -0.299 N 
ATOM      5  C   UNL     1       0.807   6.988  -0.707  0.00  0.00    +0.112 C 
ATOM      6  C   UNL     1       1.162   5.809  -1.616  0.00  0.00    +0.054 C 
ATOM      7  C   UNL     1      -0.711   8.723  -1.566  0.00  0.00    +0.203 C 
ATOM      8  O   UNL     1      -1.610   8.240  -0.910  0.00  0.00    -0.277 OA
ENDROOT
BRANCH   7   9
ATOM      9  C   UNL     1      -0.957   9.967  -2.381  0.00  0.00    +0.028 C 
ATOM     10  C   UNL     1      -0.694  11.201  -1.517  0.00  0.00    +0.072 C 
ATOM     11  C   UNL     1      -0.887  12.463  -2.367  0.00  0.00    +0.016 C 
ATOM     12  C   UNL     1      -2.279  12.411  -3.005  0.00  0.00    -0.044 C 
ATOM     13  C   UNL     1      -3.423  13.112  -2.273  0.00  0.00    +0.005 C 
ATOM     14  C   UNL     1      -2.855  13.711  -3.562  0.00  0.00    +0.005 C 
ATOM     15  C   UNL     1      -2.599  11.111  -3.750  0.00  0.00    -0.075 C 
ATOM     16  N   UNL     1      -2.347   9.974  -2.852  0.00  0.00    +0.387 N 
ATOM     17  H   UNL     1      -2.554   9.042  -3.399  0.00  0.00    -0.085 HD
ATOM     18  H   UNL     1      -3.026  10.051  -1.990  0.00  0.00    -0.085 HD
BRANCH  10  19
ATOM     19  C   UNL     1       0.719  11.158  -0.994  0.00  0.00    +0.237 C 
ATOM     20  O   UNL     1       1.617  11.667  -1.630  0.00  0.00    -0.273 OA
ATOM     21  N   UNL     1       0.984  10.554   0.182  0.00  0.00    -0.197 N 
ATOM     22  H   UNL     1       0.162  10.138   0.784  0.00  0.00    +0.182 HD
BRANCH  21  23
ATOM     23  O   UNL     1       2.319  10.455   0.641  0.00  0.00    -0.295 OA
ATOM     24  H   UNL     1       2.536   9.962   1.601  0.00  0.00    +0.241 HD
ENDBRANCH  21  23
ENDBRANCH  10  19
ENDBRANCH   7   9
BRANCH   1  26
ATOM     25  C   UNL     1       2.248   4.247  -4.172  0.00  0.00    +0.028 A 
ATOM     26  C   UNL     1       2.896   5.198  -3.383  0.00  0.00    -0.019 A 
ATOM     27  C   UNL     1       4.285   5.158  -3.253  0.00  0.00    +0.028 A 
ATOM     28  C   UNL     1       5.009   4.178  -3.904  0.00  0.00    +0.043 A 
ATOM     29  C   UNL     1       4.360   3.238  -4.685  0.00  0.00    +0.040 A 
ATOM     30  C   UNL     1       2.983   3.276  -4.823  0.00  0.00    +0.043 A 
ATOM     31 CL   UNL     1       2.178   2.097  -5.811  0.00  0.00    -0.083 Cl
ATOM     32 CL   UNL     1       6.737   4.127  -3.743  0.00  0.00    -0.083 Cl
ENDBRANCH   1  26
TORSDOF 4
