REMARK  Name = ZINC03848943
REMARK  4 active torsions:
REMARK  status: ('A' for Active; 'I' for Inactive)
REMARK    1  A    between atoms: C_4  and  C_7
REMARK    2  A    between atoms: C_16  and  N_17
REMARK    3  A    between atoms: N_18  and  C_19
REMARK    4  A    between atoms: C_22  and  N_25
REMARK                            x       y       z     vdW  Elec       q    Type
REMARK                         _______ _______ _______ _____ _____    ______ ____
ROOT
ATOM      1  C   UNL     1       3.695  -0.684  -0.037  0.00  0.00    +0.080 A 
ATOM      2  C   UNL     1       4.553  -0.596   1.026  0.00  0.00    +0.100 A 
ATOM      3  C   UNL     1       5.771  -1.289   0.981  0.00  0.00    +0.274 A 
ATOM      4  O   UNL     1       6.631  -1.213   2.025  0.00  0.00    -0.266 OA
ATOM      5  N   UNL     1       6.081  -2.016  -0.078  0.00  0.00    -0.187 NA
ATOM      6  C   UNL     1       5.252  -2.107  -1.118  0.00  0.00    +0.189 A 
ATOM      7  N   UNL     1       4.050  -1.454  -1.117  0.00  0.00    -0.210 N 
ATOM      8  N   UNL     1       3.397  -1.736  -2.322  0.00  0.00    -0.147 NA
ATOM      9  C   UNL     1       4.143  -2.532  -3.050  0.00  0.00    +0.168 A 
ATOM     10  C   UNL     1       5.339  -2.799  -2.343  0.00  0.00    +0.171 A 
ATOM     11  N   UNL     1       3.816  -3.025  -4.311  0.00  0.00    -0.340 N 
ATOM     12  H   UNL     1       2.973  -2.781  -4.724  0.00  0.00    +0.144 HD
ATOM     13  H   UNL     1       4.432  -3.611  -4.778  0.00  0.00    +0.144 HD
ENDROOT
BRANCH   1  17
ATOM     14  C   UNL     1      -0.017   1.379   0.010  0.00  0.00    +0.000 A 
ATOM     15  C   UNL     1       1.168   2.094   0.002  0.00  0.00    +0.001 A 
ATOM     16  C   UNL     1       2.377   1.430  -0.013  0.00  0.00    +0.010 A 
ATOM     17  C   UNL     1       2.404   0.034  -0.021  0.00  0.00    +0.001 A 
ATOM     18  C   UNL     1       1.204  -0.681  -0.013  0.00  0.00    +0.010 A 
ATOM     19  C   UNL     1       0.002  -0.004   0.002  0.00  0.00    +0.001 A 
ENDBRANCH   1  17
BRANCH  10  20
ATOM     20  N   UNL     1       6.360  -3.576  -2.757  0.00  0.00    -0.142 NA
ATOM     21  N   UNL     1       6.307  -4.152  -3.909  0.00  0.00    -0.149 NA
BRANCH  21  22
ATOM     22  C   UNL     1       7.343  -4.941  -4.329  0.00  0.00    +0.086 A 
ATOM     23  C   UNL     1       8.458  -5.129  -3.509  0.00  0.00    +0.032 A 
ATOM     24  C   UNL     1       9.499  -5.925  -3.938  0.00  0.00    +0.035 A 
ATOM     25  C   UNL     1       9.440  -6.537  -5.177  0.00  0.00    +0.126 A 
ATOM     26  C   UNL     1       8.339  -6.356  -5.995  0.00  0.00    +0.035 A 
ATOM     27  C   UNL     1       7.288  -5.566  -5.577  0.00  0.00    +0.032 A 
BRANCH  25  28
ATOM     28  N   UNL     1      10.563  -7.391  -5.631  0.00  0.00    +0.056 N 
ATOM     29  O   UNL     1      11.526  -7.552  -4.919  0.00  0.00    -0.126 OA
ATOM     30  O   UNL     1      10.515  -7.928  -6.714  0.00  0.00    -0.126 OA
ENDBRANCH  25  28
ENDBRANCH  21  22
ENDBRANCH  10  20
TORSDOF 4
