REMARK  Name = ZINC63703095
REMARK  6 active torsions:
REMARK  status: ('A' for Active; 'I' for Inactive)
REMARK    1  A    between atoms: C_3  and  C_22
REMARK    2  A    between atoms: C_7  and  C_9
REMARK    3  A    between atoms: C_9  and  C_10
REMARK    4  A    between atoms: C_10  and  C_11
REMARK    5  A    between atoms: C_11  and  C_12
REMARK    6  A    between atoms: C_12  and  C_13
REMARK                            x       y       z     vdW  Elec       q    Type
REMARK                         _______ _______ _______ _____ _____    ______ ____
ROOT
ATOM      1  C   UNL     1      -1.111  -1.854  -1.859  0.00  0.00    +0.096 C 
ENDROOT
BRANCH   1   8
ATOM      2  C   UNL     1      -0.019   1.528   0.010  0.00  0.00    +0.020 C 
ATOM      3  C   UNL     1       1.419   2.053  -0.001  0.00  0.00    +0.016 C 
ATOM      4  C   UNL     1       2.124   1.587  -1.276  0.00  0.00    +0.092 C 
ATOM      5  C   UNL     1       2.170   0.056  -1.299  0.00  0.00    +0.120 C 
ATOM      6  N   UNL     1       0.803  -0.460  -1.143  0.00  0.00    -0.301 N 
ATOM      7  C   UNL     1       0.002  -0.004   0.002  0.00  0.00    +0.108 C 
ATOM      8  C   UNL     1       0.293  -1.334  -2.033  0.00  0.00    +0.216 C 
ATOM      9  O   UNL     1       0.964  -1.702  -2.973  0.00  0.00    -0.276 OA
BRANCH   4  10
ATOM     10  C   UNL     1       3.529   2.132  -1.301  0.00  0.00    +0.215 C 
ATOM     11  O   UNL     1       4.474   1.372  -1.337  0.00  0.00    -0.276 OA
ATOM     12  N   UNL     1       3.736   3.464  -1.284  0.00  0.00    -0.329 N 
ATOM     13  H   UNL     1       2.980   4.071  -1.255  0.00  0.00    +0.145 HD
ATOM     14  H   UNL     1       4.640   3.814  -1.300  0.00  0.00    +0.145 HD
ENDBRANCH   4  10
ENDBRANCH   1   8
BRANCH   1  15
ATOM     15  C   UNL     1      -1.440  -2.823  -2.996  0.00  0.00    +0.009 C 
BRANCH  15  16
ATOM     16  C   UNL     1      -2.866  -3.351  -2.819  0.00  0.00    +0.002 C 
BRANCH  16  17
ATOM     17  C   UNL     1      -3.195  -4.320  -3.957  0.00  0.00    +0.016 C 
BRANCH  17  18
ATOM     18  C   UNL     1      -4.620  -4.848  -3.780  0.00  0.00    +0.069 C 
ATOM     19  C   UNL     1      -4.978  -5.860  -4.889  0.00  0.00    +0.108 C 
ATOM     20  C   UNL     1      -5.792  -7.058  -4.390  0.00  0.00    +0.105 C 
ATOM     21  C   UNL     1      -6.094  -7.015  -2.877  0.00  0.00    +0.093 C 
ATOM     22  S   UNL     1      -4.755  -5.899  -2.269  0.00  0.00    -0.154 S 
ATOM     23  N   UNL     1      -7.057  -6.965  -5.136  0.00  0.00    -0.294 N 
ATOM     24  C   UNL     1      -7.011  -5.897  -5.943  0.00  0.00    +0.300 C 
ATOM     25  O   UNL     1      -7.927  -5.580  -6.677  0.00  0.00    -0.253 OA
ATOM     26  N   UNL     1      -5.863  -5.209  -5.868  0.00  0.00    -0.294 N 
ATOM     27  H   UNL     1      -7.805  -7.578  -5.055  0.00  0.00    +0.151 HD
ATOM     28  H   UNL     1      -5.650  -4.411  -6.376  0.00  0.00    +0.151 HD
ENDBRANCH  17  18
ENDBRANCH  16  17
ENDBRANCH  15  16
ENDBRANCH   1  15
TORSDOF 6
