REMARK  Name = ZINC08309204
REMARK  7 active torsions:
REMARK  status: ('A' for Active; 'I' for Inactive)
REMARK    1  A    between atoms: C_1  and  C_2
REMARK    2  A    between atoms: C_2  and  C_4
REMARK    3  A    between atoms: C_2  and  N_48
REMARK    4  A    between atoms: N_6  and  C_7
REMARK    5  A    between atoms: C_8  and  C_12
REMARK    6  A    between atoms: N_17  and  C_20
REMARK    7  A    between atoms: C_25  and  O_26
REMARK                            x       y       z     vdW  Elec       q    Type
REMARK                         _______ _______ _______ _____ _____    ______ ____
ROOT
ATOM      1  C   UNL     1      -0.288   5.472  -2.354  0.00  0.00    -0.004 C 
ATOM      2  C   UNL     1       0.484   5.458  -1.033  0.00  0.00    +0.017 C 
ENDROOT
BRANCH   2   8
ATOM      3  C   UNL     1       1.217   4.043   0.790  0.00  0.00    -0.059 C 
ATOM      4  C   UNL     1       1.341   2.589   1.252  0.00  0.00    +0.086 C 
ATOM      5  N   UNL     1       0.003   1.986   1.324  0.00  0.00    -0.331 N 
ATOM      6  C   UNL     1      -0.661   2.026   0.013  0.00  0.00    +0.086 C 
ATOM      7  C   UNL     1      -0.784   3.480  -0.449  0.00  0.00    -0.059 C 
ATOM      8  N   UNL     1       0.569   4.068  -0.538  0.00  0.00    +0.389 N 
ATOM      9  H   UNL     1       1.131   3.514  -1.194  0.00  0.00    -0.081 HD
BRANCH   5  10
ATOM     10  C   UNL     1       0.070   0.675   1.812  0.00  0.00    +0.072 A 
ATOM     11  C   UNL     1       0.803  -0.285   1.130  0.00  0.00    +0.027 A 
ATOM     12  C   UNL     1       0.871  -1.576   1.617  0.00  0.00    +0.002 A 
ATOM     13  C   UNL     1       0.202  -1.917   2.778  0.00  0.00    +0.004 A 
ATOM     14  C   UNL     1      -0.536  -0.967   3.460  0.00  0.00    +0.047 A 
ATOM     15  C   UNL     1      -0.605   0.331   2.981  0.00  0.00    +0.138 A 
BRANCH  15  16
ATOM     16  O   UNL     1      -1.331   1.267   3.651  0.00  0.00    -0.505 OA
ATOM     17  H   UNL     1      -2.254   1.323   3.369  0.00  0.00    +0.292 HD
ENDBRANCH  15  16
ENDBRANCH   5  10
ENDBRANCH   2   8
BRANCH   2  18
ATOM     18  C   UNL     1       1.879   5.981  -1.261  0.00  0.00    +0.204 C 
ATOM     19  O   UNL     1       2.783   5.210  -1.505  0.00  0.00    -0.277 OA
ATOM     20  N   UNL     1       2.122   7.305  -1.194  0.00  0.00    -0.281 N 
ATOM     21  H   UNL     1       1.399   7.921  -0.998  0.00  0.00    +0.155 HD
BRANCH  20  22
ATOM     22  C   UNL     1       3.405   7.786  -1.403  0.00  0.00    +0.084 A 
ATOM     23  C   UNL     1       3.848   9.103  -1.381  0.00  0.00    +0.065 A 
ATOM     24  C   UNL     1       5.253   9.320  -1.632  0.00  0.00    +0.022 A 
ATOM     25  C   UNL     1       6.008   8.234  -1.875  0.00  0.00    +0.048 A 
ATOM     26  S   UNL     1       4.844   6.891  -1.763  0.00  0.00    -0.081 S 
BRANCH  23  27
ATOM     27  C   UNL     1       2.934  10.217  -1.113  0.00  0.00    +0.244 C 
ATOM     28  O   UNL     1       1.755  10.000  -0.902  0.00  0.00    -0.270 OA
ATOM     29  N   UNL     1       3.399  11.482  -1.099  0.00  0.00    -0.325 N 
ATOM     30  H   UNL     1       4.338  11.655  -1.268  0.00  0.00    +0.145 HD
ATOM     31  H   UNL     1       2.794  12.220  -0.922  0.00  0.00    +0.145 HD
ENDBRANCH  23  27
ENDBRANCH  20  22
ENDBRANCH   2  18
TORSDOF 6
