REMARK  Name = ZINC63573047
REMARK  7 active torsions:
REMARK  status: ('A' for Active; 'I' for Inactive)
REMARK    1  A    between atoms: C_1  and  C_2
REMARK    2  A    between atoms: C_3  and  N_9
REMARK    3  A    between atoms: C_18  and  O_35
REMARK    4  A    between atoms: C_25  and  C_27
REMARK    5  A    between atoms: C_30  and  O_33
REMARK    6  A    between atoms: O_33  and  C_34
REMARK    7  A    between atoms: O_35  and  C_36
REMARK                            x       y       z     vdW  Elec       q    Type
REMARK                         _______ _______ _______ _____ _____    ______ ____
ROOT
ATOM      1  N   UNL     1      -0.127   0.313  -2.494  0.00  0.00    -0.269 N 
ATOM      2  C   UNL     1       0.040  -0.445  -3.597  0.00  0.00    +0.307 C 
ATOM      3  O   UNL     1       0.121  -1.654  -3.497  0.00  0.00    -0.252 OA
ATOM      4  N   UNL     1       0.117   0.138  -4.810  0.00  0.00    -0.276 N 
ATOM      5  C   UNL     1       0.138   1.601  -4.911  0.00  0.00    +0.114 C 
ATOM      6  C   UNL     1      -1.034   2.070  -5.793  0.00  0.00    +0.052 C 
ATOM      7  C   UNL     1      -1.049   1.174  -7.006  0.00  0.00    -0.035 C 
ATOM      8  C   UNL     1      -1.064   1.452  -8.303  0.00  0.00    +0.003 A 
ATOM      9  C   UNL     1      -1.181   2.724  -9.034  0.00  0.00    +0.055 A 
ATOM     10  C   UNL     1      -1.141   2.653 -10.393  0.00  0.00    +0.121 A 
ATOM     11  C   UNL     1      -0.998   1.458 -11.112  0.00  0.00    +0.047 A 
ATOM     12  C   UNL     1      -0.890   0.231 -10.541  0.00  0.00    +0.029 A 
ATOM     13  C   UNL     1      -0.928   0.177  -9.073  0.00  0.00    +0.043 A 
ATOM     14  N   UNL     1      -0.872  -0.838  -8.265  0.00  0.00    -0.375 N 
ATOM     15  C   UNL     1      -1.026  -0.346  -6.895  0.00  0.00    +0.131 C 
ATOM     16  C   UNL     1       0.185  -0.700  -6.017  0.00  0.00    +0.134 C 
ATOM     17  H   UNL     1      -0.235   1.273  -2.578  0.00  0.00    +0.156 HD
ATOM     18  H   UNL     1      -0.748  -1.764  -8.525  0.00  0.00    +0.160 HD
ENDROOT
BRANCH   1  21
ATOM     19  C   UNL     1       0.686   1.873  -0.258  0.00  0.00    +0.047 C 
ATOM     20  C   UNL     1       0.245   0.439  -0.111  0.00  0.00    -0.011 A 
ATOM     21  C   UNL     1      -0.143  -0.286  -1.230  0.00  0.00    +0.039 A 
ATOM     22  C   UNL     1      -0.549  -1.607  -1.091  0.00  0.00    +0.024 A 
ATOM     23  C   UNL     1      -0.565  -2.196   0.159  0.00  0.00    +0.003 A 
ATOM     24  C   UNL     1      -0.177  -1.472   1.271  0.00  0.00    +0.020 A 
ATOM     25  C   UNL     1       0.233  -0.157   1.135  0.00  0.00    +0.046 A 
ATOM     26 CL   UNL     1       0.726   0.746   2.534  0.00  0.00    -0.083 Cl
ENDBRANCH   1  21
BRANCH  16  27
ATOM     27  C   UNL     1       1.462  -0.416  -6.764  0.00  0.00    -0.024 A 
ATOM     28  C   UNL     1       2.365  -1.436  -7.002  0.00  0.00    +0.009 A 
ATOM     29  C   UNL     1       3.537  -1.178  -7.686  0.00  0.00    +0.046 A 
ATOM     30  C   UNL     1       3.808   0.106  -8.136  0.00  0.00    +0.120 A 
ATOM     31  C   UNL     1       2.901   1.128  -7.896  0.00  0.00    +0.046 A 
ATOM     32  C   UNL     1       1.728   0.864  -7.216  0.00  0.00    +0.009 A 
BRANCH  30  33
ATOM     33  O   UNL     1       4.960   0.363  -8.809  0.00  0.00    -0.495 OA
ATOM     34  C   UNL     1       5.173   1.708  -9.242  0.00  0.00    +0.277 C 
ENDBRANCH  30  33
ENDBRANCH  16  27
BRANCH  10  35
ATOM     35  O   UNL     1      -1.247   3.812 -11.095  0.00  0.00    -0.495 OA
ATOM     36  C   UNL     1      -1.203   3.713 -12.520  0.00  0.00    +0.277 C 
ENDBRANCH  10  35
TORSDOF 4
