REMARK  Name = ZINC08834865
REMARK  12 active torsions:
REMARK  status: ('A' for Active; 'I' for Inactive)
REMARK    1  A    between atoms: C_1  and  C_2
REMARK    2  A    between atoms: C_2  and  N_62
REMARK    3  A    between atoms: C_3  and  C_4
REMARK    4  A    between atoms: C_3  and  N_62
REMARK    5  A    between atoms: C_5  and  C_6
REMARK    6  A    between atoms: C_5  and  N_62
REMARK    7  A    between atoms: C_6  and  C_7
REMARK    8  A    between atoms: C_7  and  N_8
REMARK    9  A    between atoms: C_9  and  C_25
REMARK   10  A    between atoms: C_28  and  O_31
REMARK   11  A    between atoms: O_31  and  C_32
REMARK   12  A    between atoms: C_32  and  C_33
REMARK                            x       y       z     vdW  Elec       q    Type
REMARK                         _______ _______ _______ _____ _____    ______ ____
ROOT
ATOM      1  N   UNL     1      -0.027   1.330   0.008  0.00  0.00    -0.284 N 
ATOM      2  C   UNL     1       1.369   1.783   0.010  0.00  0.00    +0.144 C 
ATOM      3  C   UNL     1       2.211   0.534  -0.014  0.00  0.00    +0.072 A 
ATOM      4  C   UNL     1       3.660   0.313  -0.023  0.00  0.00    +0.199 A 
ATOM      5  O   UNL     1       4.448   1.241  -0.010  0.00  0.00    -0.287 OA
ATOM      6  C   UNL     1       4.116  -1.091  -0.048  0.00  0.00    +0.065 A 
ATOM      7  C   UNL     1       5.471  -1.415  -0.058  0.00  0.00    +0.030 A 
ATOM      8  C   UNL     1       5.853  -2.739  -0.081  0.00  0.00    +0.019 A 
ATOM      9  C   UNL     1       4.893  -3.742  -0.094  0.00  0.00    +0.019 A 
ATOM     10  C   UNL     1       3.550  -3.434  -0.084  0.00  0.00    +0.048 A 
ATOM     11  C   UNL     1       3.141  -2.103  -0.061  0.00  0.00    +0.140 A 
ATOM     12  O   UNL     1       1.833  -1.791  -0.051  0.00  0.00    -0.450 OA
ATOM     13  C   UNL     1       1.367  -0.526  -0.028  0.00  0.00    +0.199 A 
ATOM     14  C   UNL     1      -0.027  -0.014  -0.015  0.00  0.00    +0.283 C 
ATOM     15  O   UNL     1      -1.023  -0.709  -0.022  0.00  0.00    -0.267 OA
ATOM     16 BR   UNL     1       7.689  -3.191  -0.095  0.00  0.00    -0.050 Br
ENDROOT
BRANCH   2  17
ATOM     17  C   UNL     1       1.646   2.619  -1.213  0.00  0.00    -0.022 A 
ATOM     18  C   UNL     1       1.115   2.250  -2.436  0.00  0.00    +0.009 A 
ATOM     19  C   UNL     1       1.362   3.017  -3.557  0.00  0.00    +0.046 A 
ATOM     20  C   UNL     1       2.154   4.153  -3.459  0.00  0.00    +0.121 A 
ATOM     21  C   UNL     1       2.689   4.518  -2.232  0.00  0.00    +0.046 A 
ATOM     22  C   UNL     1       2.434   3.750  -1.112  0.00  0.00    +0.009 A 
BRANCH  20  23
ATOM     23  O   UNL     1       2.404   4.906  -4.562  0.00  0.00    -0.492 OA
BRANCH  23  24
ATOM     24  C   UNL     1       1.819   4.470  -5.791  0.00  0.00    +0.225 C 
ATOM     25  C   UNL     1       2.209   5.436  -6.912  0.00  0.00    +0.048 C 
ENDBRANCH  23  24
ENDBRANCH  20  23
ENDBRANCH   2  17
BRANCH   1  26
ATOM     26  C   UNL     1      -1.212   2.191   0.021  0.00  0.00    +0.107 C 
BRANCH  26  27
ATOM     27  C   UNL     1      -1.626   2.467   1.468  0.00  0.00    +0.000 C 
BRANCH  27  28
ATOM     28  C   UNL     1      -2.864   3.366   1.482  0.00  0.00    -0.077 C 
BRANCH  28  29
ATOM     29  N   UNL     1      -3.332   3.506   2.877  0.00  0.00    +0.379 N 
ATOM     30  H   UNL     1      -3.279   2.591   3.339  0.00  0.00    -0.082 HD
BRANCH  29  32
ATOM     31  C   UNL     1      -2.835   4.420   5.091  0.00  0.00    -0.017 C 
ATOM     32  C   UNL     1      -2.473   4.463   3.605  0.00  0.00    -0.082 C 
ENDBRANCH  29  32
BRANCH  29  33
ATOM     33  C   UNL     1      -4.735   3.972   2.894  0.00  0.00    -0.082 C 
ATOM     34  C   UNL     1      -5.649   2.791   2.564  0.00  0.00    -0.017 C 
ENDBRANCH  29  33
ENDBRANCH  28  29
ENDBRANCH  27  28
ENDBRANCH  26  27
ENDBRANCH   1  26
TORSDOF 9
