REMARK  Name = ZINC22913159
REMARK  12 active torsions:
REMARK  status: ('A' for Active; 'I' for Inactive)
REMARK    1  A    between atoms: C_1  and  C_2
REMARK    2  A    between atoms: C_2  and  C_4
REMARK    3  A    between atoms: C_2  and  N_16
REMARK    4  A    between atoms: N_6  and  C_7
REMARK    5  A    between atoms: C_10  and  C_13
REMARK    6  A    between atoms: C_13  and  C_15
REMARK    7  A    between atoms: N_20  and  C_23
REMARK    8  A    between atoms: C_23  and  C_25
REMARK    9  A    between atoms: C_23  and  C_26
REMARK   10  A    between atoms: N_28  and  C_29
REMARK   11  A    between atoms: C_32  and  C_35
REMARK   12  A    between atoms: C_35  and  C_37
REMARK                            x       y       z     vdW  Elec       q    Type
REMARK                         _______ _______ _______ _____ _____    ______ ____
ROOT
ATOM      1  N   UNL     1      -3.603   2.352   4.569  0.00  0.00    +0.388 N 
ATOM      2  C   UNL     1      -2.276   2.693   5.020  0.00  0.00    -0.076 C 
ATOM      3  C   UNL     1      -2.226   4.209   5.303  0.00  0.00    -0.003 C 
ATOM      4  C   UNL     1      -2.096   4.989   4.074  0.00  0.00    +0.083 C 
ATOM      5  N   UNL     1      -3.239   4.780   3.155  0.00  0.00    -0.294 NA
ATOM      6  C   UNL     1      -3.064   3.549   2.423  0.00  0.00    +0.066 C 
ATOM      7  C   UNL     1      -3.767   2.357   3.096  0.00  0.00    -0.062 C 
ATOM      8  H   UNL     1      -4.235   3.163   4.960  0.00  0.00    -0.081 HD
ENDROOT
BRANCH   1  10
ATOM      9  C   UNL     1      -2.998  -0.006   4.841  0.00  0.00    -0.004 C 
ATOM     10  C   UNL     1      -4.041   1.072   5.143  0.00  0.00    +0.016 C 
BRANCH  10  11
ATOM     11  C   UNL     1      -4.195   1.217   6.635  0.00  0.00    +0.203 C 
ATOM     12  O   UNL     1      -3.963   2.282   7.168  0.00  0.00    -0.277 OA
ATOM     13  N   UNL     1      -4.590   0.164   7.378  0.00  0.00    -0.287 N 
ATOM     14  H   UNL     1      -4.881  -0.776   6.887  0.00  0.00    +0.155 HD
BRANCH  13  15
ATOM     15  C   UNL     1      -4.631   0.267   8.766  0.00  0.00    +0.033 A 
ATOM     16  C   UNL     1      -5.617  -0.405   9.483  0.00  0.00    +0.024 A 
ATOM     17  C   UNL     1      -5.657  -0.311  10.850  0.00  0.00    +0.013 A 
ATOM     18  C   UNL     1      -4.711   0.471  11.525  0.00  0.00    +0.017 A 
ATOM     19  C   UNL     1      -3.724   1.149  10.799  0.00  0.00    +0.013 A 
ATOM     20  C   UNL     1      -3.688   1.045   9.432  0.00  0.00    +0.024 A 
BRANCH  18  21
ATOM     21  C   UNL     1      -4.754   0.579  12.989  0.00  0.00    +0.160 C 
ATOM     22  O   UNL     1      -3.995   1.330  13.564  0.00  0.00    -0.292 OA
ATOM     23  C   UNL     1      -5.741  -0.244  13.777  0.00  0.00    +0.091 C 
ENDBRANCH  18  21
ENDBRANCH  13  15
ENDBRANCH  10  11
ENDBRANCH   1  10
BRANCH   5  24
ATOM     24  C   UNL     1      -3.394   5.919   2.241  0.00  0.00    +0.140 C 
ATOM     25  C   UNL     1      -2.262   5.905   1.212  0.00  0.00    +0.034 C 
BRANCH  24  26
ATOM     26  C   UNL     1      -4.719   5.816   1.531  0.00  0.00    +0.234 C 
ATOM     27  O   UNL     1      -5.335   4.771   1.544  0.00  0.00    -0.274 OA
ATOM     28  N   UNL     1      -5.221   6.885   0.881  0.00  0.00    -0.284 N 
ATOM     29  H   UNL     1      -4.630   7.810   0.807  0.00  0.00    +0.155 HD
BRANCH  28  30
ATOM     30  C   UNL     1      -6.486   6.819   0.303  0.00  0.00    +0.033 A 
ATOM     31  C   UNL     1      -7.309   7.942   0.303  0.00  0.00    +0.024 A 
ATOM     32  C   UNL     1      -8.554   7.882  -0.268  0.00  0.00    +0.013 A 
ATOM     33  C   UNL     1      -9.001   6.686  -0.844  0.00  0.00    +0.017 A 
ATOM     34  C   UNL     1      -8.172   5.558  -0.837  0.00  0.00    +0.013 A 
ATOM     35  C   UNL     1      -6.927   5.628  -0.267  0.00  0.00    +0.024 A 
BRANCH  33  36
ATOM     36  C   UNL     1     -10.336   6.616  -1.453  0.00  0.00    +0.160 C 
ATOM     37  O   UNL     1     -10.721   5.580  -1.951  0.00  0.00    -0.292 OA
ATOM     38  C   UNL     1     -11.226   7.832  -1.459  0.00  0.00    +0.091 C 
ENDBRANCH  33  36
ENDBRANCH  28  30
ENDBRANCH  24  26
ENDBRANCH   5  24
TORSDOF 8
