REMARK  Name = ZINC40812980
REMARK  6 active torsions:
REMARK  status: ('A' for Active; 'I' for Inactive)
REMARK    1  A    between atoms: C_1  and  C_2
REMARK    2  A    between atoms: C_6  and  C_7
REMARK    3  A    between atoms: N_9  and  C_10
REMARK    4  A    between atoms: N_22  and  N_23
REMARK    5  A    between atoms: C_24  and  C_26
REMARK    6  A    between atoms: C_30  and  N_32
REMARK                            x       y       z     vdW  Elec       q    Type
REMARK                         _______ _______ _______ _____ _____    ______ ____
ROOT
ATOM      1  C   UNL     1      -0.040   1.504   0.012  0.00  0.00    +0.048 C 
ATOM      2  C   UNL     1      -0.022  -0.003   0.003  0.00  0.00    +0.009 A 
ATOM      3  C   UNL     1      -0.025  -0.837  -1.122  0.00  0.00    +0.042 A 
ATOM      4  C   UNL     1      -0.006  -2.136  -0.672  0.00  0.00    +0.115 A 
ATOM      5  O   UNL     1       0.012  -2.111   0.658  0.00  0.00    -0.454 OA
ATOM      6  C   UNL     1       0.007  -0.830   1.091  0.00  0.00    +0.193 A 
ATOM      7  C   UNL     1      -0.009  -3.325  -1.599  0.00  0.00    +0.075 C 
ATOM      8  C   UNL     1      -0.543  -2.900  -2.970  0.00  0.00    +0.014 C 
ATOM      9  C   UNL     1       0.226  -1.684  -3.496  0.00  0.00    +0.058 C 
ATOM     10  C   UNL     1      -0.043  -0.511  -2.565  0.00  0.00    +0.070 C 
ATOM     11  N   UNL     1      -0.272   0.689  -3.005  0.00  0.00    -0.184 NA
ENDROOT
BRANCH   6  12
ATOM     12  C   UNL     1       0.026  -0.399   2.494  0.00  0.00    +0.284 C 
ATOM     13  O   UNL     1       0.017   0.787   2.766  0.00  0.00    -0.266 OA
ATOM     14  N   UNL     1       0.055  -1.317   3.480  0.00  0.00    -0.278 N 
ATOM     15  H   UNL     1      -0.004  -2.262   3.265  0.00  0.00    +0.155 HD
BRANCH  14  16
ATOM     16  C   UNL     1       0.168  -0.909   4.813  0.00  0.00    +0.052 A 
ATOM     17  C   UNL     1      -0.435   0.270   5.234  0.00  0.00    +0.026 A 
ATOM     18  C   UNL     1      -0.322   0.671   6.550  0.00  0.00    +0.022 A 
ATOM     19  C   UNL     1       0.392  -0.100   7.451  0.00  0.00    +0.042 A 
ATOM     20  C   UNL     1       0.994  -1.274   7.036  0.00  0.00    +0.041 A 
ATOM     21  C   UNL     1       0.880  -1.684   5.721  0.00  0.00    +0.064 A 
ATOM     22 CL   UNL     1       1.629  -3.161   5.202  0.00  0.00    -0.082 Cl
ATOM     23 CL   UNL     1       0.531   0.408   9.105  0.00  0.00    -0.083 Cl
ENDBRANCH  14  16
ENDBRANCH   6  12
BRANCH  11  24
ATOM     24  N   UNL     1      -0.277   0.940  -4.383  0.00  0.00    -0.203 N 
ATOM     25  C   UNL     1      -0.515   2.186  -4.840  0.00  0.00    +0.263 C 
ATOM     26  O   UNL     1      -0.726   3.091  -4.056  0.00  0.00    -0.268 OA
ATOM     27  H   UNL     1      -0.109   0.218  -5.009  0.00  0.00    +0.178 HD
BRANCH  25  28
ATOM     28  C   UNL     1      -0.520   2.451  -6.294  0.00  0.00    +0.041 A 
ATOM     29  C   UNL     1      -0.285   1.413  -7.197  0.00  0.00    +0.013 A 
ATOM     30  C   UNL     1      -0.291   1.668  -8.553  0.00  0.00    +0.003 A 
ATOM     31  C   UNL     1      -0.531   2.949  -9.018  0.00  0.00    +0.033 A 
ATOM     32  C   UNL     1      -0.765   3.982  -8.128  0.00  0.00    +0.127 A 
ATOM     33  C   UNL     1      -0.767   3.740  -6.770  0.00  0.00    +0.045 A 
BRANCH  32  34
ATOM     34  N   UNL     1      -1.020   5.349  -8.635  0.00  0.00    +0.056 N 
ATOM     35  O   UNL     1      -1.024   5.562  -9.825  0.00  0.00    -0.126 OA
ATOM     36  O   UNL     1      -1.225   6.253  -7.859  0.00  0.00    -0.126 OA
ENDBRANCH  32  34
ENDBRANCH  25  28
ENDBRANCH  11  24
TORSDOF 5
