REMARK  Name = ZINC08791054
REMARK  11 active torsions:
REMARK  status: ('A' for Active; 'I' for Inactive)
REMARK    1  A    between atoms: C_1  and  C_2
REMARK    2  A    between atoms: C_13  and  C_15
REMARK    3  A    between atoms: C_15  and  C_16
REMARK    4  A    between atoms: C_16  and  C_17
REMARK    5  A    between atoms: N_22  and  C_25
REMARK    6  A    between atoms: C_25  and  C_26
REMARK    7  A    between atoms: C_26  and  C_27
REMARK    8  A    between atoms: C_30  and  O_35
REMARK    9  A    between atoms: C_31  and  O_33
REMARK   10  A    between atoms: O_33  and  C_34
REMARK   11  A    between atoms: O_35  and  C_36
REMARK                            x       y       z     vdW  Elec       q    Type
REMARK                         _______ _______ _______ _____ _____    ______ ____
ROOT
ATOM      1  C   UNL     1       1.219  -2.193  -0.021  0.00  0.00    +0.044 C 
ATOM      2  C   UNL     1       1.205  -0.686  -0.013  0.00  0.00    -0.050 A 
ATOM      3  C   UNL     1       0.002  -0.004   0.002  0.00  0.00    +0.005 A 
ATOM      4  C   UNL     1      -0.017   1.375   0.010  0.00  0.00    +0.024 A 
ATOM      5  C   UNL     1       1.177   2.092   0.002  0.00  0.00    +0.036 A 
ATOM      6  C   UNL     1       2.382   1.395  -0.014  0.00  0.00    -0.027 A 
ATOM      7  C   UNL     1       2.396   0.018  -0.021  0.00  0.00    +0.008 A 
ATOM      8  C   UNL     1       3.461   2.441  -0.021  0.00  0.00    +0.050 C 
ATOM      9  C   UNL     1       4.390   2.298   1.192  0.00  0.00    +0.088 C 
ATOM     10  C   UNL     1       5.621   1.519   0.651  0.00  0.00    +0.073 C 
ATOM     11  C   UNL     1       5.305   1.262  -0.838  0.00  0.00    -0.057 C 
ATOM     12  C   UNL     1       6.745   2.523   0.758  0.00  0.00    +0.224 C 
ATOM     13  O   UNL     1       7.896   2.325   0.431  0.00  0.00    -0.275 OA
ATOM     14  N   UNL     1       6.273   3.666   1.270  0.00  0.00    -0.241 N 
ATOM     15  C   UNL     1       4.965   3.650   1.552  0.00  0.00    +0.225 C 
ATOM     16  O   UNL     1       4.339   4.574   2.023  0.00  0.00    -0.275 OA
ATOM     17  C   UNL     1       2.732   3.756  -0.004  0.00  0.00    +0.211 C 
ATOM     18  O   UNL     1       3.232   4.861  -0.002  0.00  0.00    -0.277 OA
ATOM     19  N   UNL     1       1.416   3.468   0.007  0.00  0.00    -0.286 N 
ATOM     20  H   UNL     1       0.715   4.139   0.017  0.00  0.00    +0.155 HD
ATOM     21  N   UNL     1       4.328   2.299  -1.177  0.00  0.00    +0.394 N 
ATOM     22  H   UNL     1       4.806   3.187  -1.373  0.00  0.00    -0.083 HD
ATOM     23  H   UNL     1       3.781   2.016  -1.998  0.00  0.00    -0.083 HD
ENDROOT
BRANCH  11  24
ATOM     24  C   UNL     1       6.574   1.393  -1.683  0.00  0.00    -0.006 C 
BRANCH  24  25
ATOM     25  C   UNL     1       6.246   1.086  -3.146  0.00  0.00    +0.094 C 
BRANCH  25  26
ATOM     26  C   UNL     1       7.495   1.214  -3.978  0.00  0.00    +0.210 C 
ATOM     27  O   UNL     1       8.545   1.521  -3.454  0.00  0.00    -0.276 OA
ATOM     28  N   UNL     1       7.447   0.988  -5.306  0.00  0.00    -0.329 N 
ATOM     29  H   UNL     1       6.607   0.743  -5.726  0.00  0.00    +0.145 HD
ATOM     30  H   UNL     1       8.251   1.071  -5.842  0.00  0.00    +0.145 HD
ENDBRANCH  25  26
ENDBRANCH  24  25
ENDBRANCH  11  24
BRANCH  14  31
ATOM     31  C   UNL     1       7.119   4.838   1.504  0.00  0.00    +0.121 C 
BRANCH  31  32
ATOM     32  C   UNL     1       7.706   4.771   2.915  0.00  0.00    +0.054 C 
BRANCH  32  33
ATOM     33  C   UNL     1       8.577   5.977   3.156  0.00  0.00    -0.042 A 
ATOM     34  C   UNL     1       9.924   5.928   2.848  0.00  0.00    +0.007 A 
ATOM     35  C   UNL     1      10.726   7.034   3.062  0.00  0.00    +0.049 A 
ATOM     36  C   UNL     1      10.182   8.191   3.596  0.00  0.00    +0.161 A 
ATOM     37  C   UNL     1       8.827   8.238   3.911  0.00  0.00    +0.162 A 
ATOM     38  C   UNL     1       8.028   7.128   3.689  0.00  0.00    +0.053 A 
BRANCH  37  39
ATOM     39  O   UNL     1       8.289   9.372   4.435  0.00  0.00    -0.491 OA
ATOM     40  C   UNL     1       6.891   9.348   4.733  0.00  0.00    +0.277 C 
ENDBRANCH  37  39
BRANCH  36  41
ATOM     41  O   UNL     1      10.970   9.278   3.812  0.00  0.00    -0.491 OA
ATOM     42  C   UNL     1      12.351   9.157   3.465  0.00  0.00    +0.277 C 
ENDBRANCH  36  41
ENDBRANCH  32  33
ENDBRANCH  31  32
ENDBRANCH  14  31
TORSDOF 8
