REMARK  Name = ZINC09767761
REMARK  7 active torsions:
REMARK  status: ('A' for Active; 'I' for Inactive)
REMARK    1  A    between atoms: C_2  and  C_30
REMARK    2  A    between atoms: N_7  and  C_8
REMARK    3  A    between atoms: C_8  and  C_9
REMARK    4  A    between atoms: C_9  and  N_10
REMARK    5  A    between atoms: C_11  and  C_13
REMARK    6  A    between atoms: C_13  and  C_14
REMARK    7  A    between atoms: C_14  and  C_15
REMARK                            x       y       z     vdW  Elec       q    Type
REMARK                         _______ _______ _______ _____ _____    ______ ____
ROOT
ATOM      1  N   UNL     1      -2.552  10.530  -5.410  0.00  0.00    -0.314 N 
ATOM      2  C   UNL     1      -2.439   9.223  -5.721  0.00  0.00    +0.213 C 
ATOM      3  O   UNL     1      -2.581   8.858  -6.869  0.00  0.00    -0.276 OA
ATOM      4  H   UNL     1      -2.438  10.822  -4.492  0.00  0.00    +0.149 HD
ENDROOT
BRANCH   1   5
ATOM      5  C   UNL     1      -2.846  11.509  -6.459  0.00  0.00    +0.123 C 
BRANCH   5   6
ATOM      6  C   UNL     1      -2.921  12.908  -5.844  0.00  0.00    +0.121 C 
BRANCH   6  13
ATOM      7  C   UNL     1      -3.724  17.500  -7.240  0.00  0.00    +0.037 A 
ATOM      8  C   UNL     1      -3.553  17.868  -5.912  0.00  0.00    +0.072 A 
ATOM      9  C   UNL     1      -3.277  16.897  -4.971  0.00  0.00    +0.096 A 
ATOM     10  C   UNL     1      -3.331  15.236  -6.572  0.00  0.00    +0.115 A 
ATOM     11  C   UNL     1      -3.606  16.162  -7.575  0.00  0.00    +0.079 A 
ATOM     12 CL   UNL     1      -3.803  15.646  -9.221  0.00  0.00    -0.080 Cl
ATOM     13  N   UNL     1      -3.215  13.888  -6.893  0.00  0.00    -0.328 N 
ATOM     14  H   UNL     1      -3.329  13.596  -7.811  0.00  0.00    +0.147 HD
ATOM     15  N   UNL     1      -3.159  15.574  -5.262  0.00  0.00    -0.348 N 
ATOM     16  H   UNL     1      -2.953  14.873  -4.541  0.00  0.00    +0.167 HD
BRANCH   8  17
ATOM     17  C   UNL     1      -3.667  19.314  -5.503  0.00  0.00    +0.419 C 
ATOM     18  F   UNL     1      -3.456  19.427  -4.125  0.00  0.00    -0.166 F 
ATOM     19  F   UNL     1      -2.707  20.069  -6.185  0.00  0.00    -0.166 F 
ATOM     20  F   UNL     1      -4.945  19.789  -5.819  0.00  0.00    -0.166 F 
ENDBRANCH   8  17
ENDBRANCH   6  13
ENDBRANCH   5   6
ENDBRANCH   1   5
BRANCH   2  21
ATOM     21  C   UNL     1      -2.136   8.216  -4.642  0.00  0.00    +0.103 C 
BRANCH  21  22
ATOM     22  C   UNL     1      -2.062   6.816  -5.257  0.00  0.00    +0.083 C 
BRANCH  22  23
ATOM     23  C   UNL     1      -1.759   5.809  -4.178  0.00  0.00    +0.111 A 
ATOM     24  N   UNL     1      -1.651   4.504  -4.524  0.00  0.00    -0.310 N 
ATOM     25  H   UNL     1      -1.773   4.261  -5.456  0.00  0.00    +0.170 HD
ATOM     26  C   UNL     1      -1.382   3.522  -3.632  0.00  0.00    +0.260 A 
ATOM     27  O   UNL     1      -1.288   2.352  -3.962  0.00  0.00    -0.267 OA
ATOM     28  C   UNL     1      -1.213   3.947  -2.271  0.00  0.00    +0.075 A 
ATOM     29  C   UNL     1      -0.921   3.104  -1.126  0.00  0.00    -0.023 A 
ATOM     30  C   UNL     1      -0.803   3.725   0.071  0.00  0.00    -0.004 A 
ATOM     31  S   UNL     1      -1.074   5.446  -0.270  0.00  0.00    -0.073 S 
ATOM     32  C   UNL     1      -1.343   5.329  -2.010  0.00  0.00    +0.116 A 
ATOM     33  N   UNL     1      -1.610   6.237  -2.944  0.00  0.00    -0.227 NA
ATOM     34  C   UNL     1      -0.510   3.093   1.397  0.00  0.00    +0.043 C 
ATOM     35  C   UNL     1      -0.726   1.578   1.270  0.00  0.00    +0.005 C 
ATOM     36  C   UNL     1      -0.013   1.086   0.008  0.00  0.00    +0.005 C 
ATOM     37  C   UNL     1      -0.749   1.591  -1.233  0.00  0.00    +0.037 C 
ENDBRANCH  22  23
ENDBRANCH  21  22
ENDBRANCH   2  21
TORSDOF 7
