REMARK  Name = ZINC05005318
REMARK  12 active torsions:
REMARK  status: ('A' for Active; 'I' for Inactive)
REMARK    1  A    between atoms: C_1  and  C_2
REMARK    2  A    between atoms: C_4  and  O_38
REMARK    3  A    between atoms: C_6  and  O_37
REMARK    4  A    between atoms: C_8  and  O_36
REMARK    5  A    between atoms: C_10  and  N_13
REMARK    6  A    between atoms: N_13  and  C_14
REMARK    7  A    between atoms: C_18  and  N_20
REMARK    8  A    between atoms: N_20  and  C_21
REMARK    9  A    between atoms: C_23  and  O_35
REMARK   10  A    between atoms: C_25  and  O_34
REMARK   11  A    between atoms: C_27  and  O_33
REMARK   12  A    between atoms: C_29  and  C_32
REMARK                            x       y       z     vdW  Elec       q    Type
REMARK                         _______ _______ _______ _____ _____    ______ ____
ROOT
ATOM      1  C   UNL     1       2.811  -3.249   2.301  0.00  0.00    +0.031 A 
ATOM      2  C   UNL     1       3.454  -3.090   1.080  0.00  0.00    +0.023 A 
ATOM      3  C   UNL     1       4.834  -3.059   1.023  0.00  0.00    +0.004 A 
ATOM      4  C   UNL     1       5.579  -3.186   2.179  0.00  0.00    +0.023 A 
ATOM      5  C   UNL     1       4.942  -3.346   3.404  0.00  0.00    +0.031 A 
ATOM      6  C   UNL     1       3.556  -3.372   3.465  0.00  0.00    +0.046 A 
ENDROOT
BRANCH   1   7
ATOM      7  N   UNL     1       1.415  -3.281   2.358  0.00  0.00    -0.317 N 
ATOM      8  H   UNL     1       0.967  -3.388   3.212  0.00  0.00    +0.149 HD
BRANCH   7  14
ATOM      9  C   UNL     1      -0.828  -0.051  -0.346  0.00  0.00    +0.041 C 
ATOM     10  C   UNL     1      -0.504  -1.543  -0.243  0.00  0.00    +0.149 C 
ATOM     11  C   UNL     1      -1.806  -2.346  -0.194  0.00  0.00    +0.174 C 
ATOM     12  C   UNL     1      -1.474  -3.833  -0.030  0.00  0.00    +0.178 C 
ATOM     13  C   UNL     1      -0.628  -4.019   1.233  0.00  0.00    +0.192 C 
ATOM     14  C   UNL     1       0.629  -3.151   1.129  0.00  0.00    +0.235 C 
ATOM     15  O   UNL     1       0.250  -1.786   0.947  0.00  0.00    -0.351 OA
BRANCH  13  16
ATOM     16  O   UNL     1      -1.387  -3.628   2.378  0.00  0.00    -0.385 OA
ATOM     17  H   UNL     1      -0.911  -3.720   3.216  0.00  0.00    +0.210 HD
ENDBRANCH  13  16
BRANCH  12  18
ATOM     18  O   UNL     1      -2.684  -4.583   0.088  0.00  0.00    -0.386 OA
ATOM     19  H   UNL     1      -2.549  -5.534   0.195  0.00  0.00    +0.210 HD
ENDBRANCH  12  18
BRANCH  11  20
ATOM     20  O   UNL     1      -2.596  -1.908   0.913  0.00  0.00    -0.387 OA
ATOM     21  H   UNL     1      -2.840  -0.973   0.876  0.00  0.00    +0.210 HD
ENDBRANCH  11  20
ENDBRANCH   7  14
ENDBRANCH   1   7
BRANCH   5  22
ATOM     22  N   UNL     1       5.697  -3.475   4.572  0.00  0.00    -0.317 N 
ATOM     23  H   UNL     1       6.662  -3.552   4.520  0.00  0.00    +0.149 HD
BRANCH  22  24
ATOM     24  C   UNL     1       5.029  -3.494   5.876  0.00  0.00    +0.235 C 
ATOM     25  C   UNL     1       5.927  -2.822   6.919  0.00  0.00    +0.192 C 
ATOM     26  C   UNL     1       5.250  -2.899   8.290  0.00  0.00    +0.178 C 
ATOM     27  C   UNL     1       4.967  -4.366   8.626  0.00  0.00    +0.174 C 
ATOM     28  C   UNL     1       4.106  -4.979   7.518  0.00  0.00    +0.149 C 
ATOM     29  O   UNL     1       4.780  -4.846   6.265  0.00  0.00    -0.351 OA
ATOM     30  C   UNL     1       3.869  -6.461   7.816  0.00  0.00    +0.041 C 
BRANCH  27  31
ATOM     31  O   UNL     1       6.201  -5.080   8.724  0.00  0.00    -0.387 OA
ATOM     32  H   UNL     1       6.097  -6.018   8.935  0.00  0.00    +0.210 HD
ENDBRANCH  27  31
BRANCH  26  33
ATOM     33  O   UNL     1       6.112  -2.337   9.282  0.00  0.00    -0.386 OA
ATOM     34  H   UNL     1       6.337  -1.410   9.127  0.00  0.00    +0.210 HD
ENDBRANCH  26  33
BRANCH  25  35
ATOM     35  O   UNL     1       7.187  -3.494   6.968  0.00  0.00    -0.385 OA
ATOM     36  H   UNL     1       7.670  -3.488   6.131  0.00  0.00    +0.210 HD
ENDBRANCH  25  35
ENDBRANCH  22  24
ENDBRANCH   5  22
TORSDOF 10
