REMARK  Name = ZINC49203781
REMARK  12 active torsions:
REMARK  status: ('A' for Active; 'I' for Inactive)
REMARK    1  A    between atoms: C_1  and  C_2
REMARK    2  A    between atoms: C_2  and  C_3
REMARK    3  A    between atoms: C_3  and  N_4
REMARK    4  A    between atoms: C_5  and  C_7
REMARK    5  A    between atoms: C_7  and  C_9
REMARK    6  A    between atoms: C_7  and  N_10
REMARK    7  A    between atoms: N_10  and  C_11
REMARK    8  A    between atoms: C_11  and  C_12
REMARK    9  A    between atoms: C_12  and  C_14
REMARK   10  A    between atoms: C_12  and  O_23
REMARK   11  A    between atoms: C_14  and  O_15
REMARK   12  A    between atoms: O_15  and  C_16
REMARK                            x       y       z     vdW  Elec       q    Type
REMARK                         _______ _______ _______ _____ _____    ______ ____
ROOT
ATOM      1  C   UNL     1      -3.912  -6.167  -0.114  0.00  0.00    -0.046 C 
ENDROOT
BRANCH   1   2
ATOM      2  N   UNL     1      -3.929  -4.704   0.014  0.00  0.00    +0.388 N 
ATOM      3  H   UNL     1      -4.375  -4.447   0.882  0.00  0.00    -0.085 HD
ATOM      4  H   UNL     1      -4.441  -4.304  -0.758  0.00  0.00    -0.085 HD
BRANCH   2   5
ATOM      5  C   UNL     1      -2.551  -4.195   0.004  0.00  0.00    +0.013 C 
ATOM      6  C   UNL     1      -1.811  -4.702   1.243  0.00  0.00    -0.004 C 
BRANCH   5   8
ATOM      7  N   UNL     1      -1.413  -1.998   0.005  0.00  0.00    -0.317 N 
ATOM      8  C   UNL     1      -2.571  -2.688   0.012  0.00  0.00    +0.199 C 
ATOM      9  O   UNL     1      -3.630  -2.096   0.025  0.00  0.00    -0.278 OA
ATOM     10  H   UNL     1      -0.567  -2.472  -0.006  0.00  0.00    +0.149 HD
BRANCH   7  11
ATOM     11  C   UNL     1      -1.433  -0.534   0.013  0.00  0.00    +0.104 C 
BRANCH  11  13
ATOM     12  C   UNL     1      -0.019   1.526   0.010  0.00  0.00    +0.005 C 
ATOM     13  C   UNL     1       0.002  -0.004   0.002  0.00  0.00    +0.015 C 
ENDBRANCH  11  13
ENDBRANCH   7  11
ENDBRANCH   5   8
ENDBRANCH   2   5
ENDBRANCH   1   2
BRANCH   1  14
ATOM     14  C   UNL     1      -5.348  -6.696  -0.104  0.00  0.00    +0.135 C 
BRANCH  14  15
ATOM     15  O   UNL     1      -6.039  -6.223  -1.261  0.00  0.00    -0.390 OA
ATOM     16  H   UNL     1      -5.639  -6.498  -2.098  0.00  0.00    +0.210 HD
ENDBRANCH  14  15
BRANCH  14  17
ATOM     17  C   UNL     1      -5.327  -8.226  -0.112  0.00  0.00    +0.258 C 
BRANCH  17  18
ATOM     18  O   UNL     1      -6.661  -8.721   0.015  0.00  0.00    -0.489 OA
BRANCH  18  19
ATOM     19  C   UNL     1      -6.820 -10.071   0.025  0.00  0.00    +0.121 A 
ATOM     20  C   UNL     1      -5.714 -10.902  -0.080  0.00  0.00    +0.047 A 
ATOM     21  C   UNL     1      -5.878 -12.273  -0.070  0.00  0.00    +0.019 A 
ATOM     22  C   UNL     1      -7.144 -12.819   0.045  0.00  0.00    +0.018 A 
ATOM     23  C   UNL     1      -8.248 -11.992   0.150  0.00  0.00    +0.019 A 
ATOM     24  C   UNL     1      -8.088 -10.620   0.146  0.00  0.00    +0.047 A 
ATOM     25 BR   UNL     1      -7.365 -14.697   0.059  0.00  0.00    -0.050 Br
ENDBRANCH  18  19
ENDBRANCH  17  18
ENDBRANCH  14  17
ENDBRANCH   1  14
TORSDOF 10
