REMARK  Name = ZINC36028153
REMARK  11 active torsions:
REMARK  status: ('A' for Active; 'I' for Inactive)
REMARK    1  A    between atoms: C_1  and  C_2
REMARK    2  A    between atoms: C_2  and  C_3
REMARK    3  A    between atoms: C_3  and  C_5
REMARK    4  A    between atoms: C_3  and  C_6
REMARK    5  A    between atoms: N_10  and  C_29
REMARK    6  A    between atoms: N_15  and  S_18
REMARK    7  A    between atoms: S_18  and  C_21
REMARK    8  A    between atoms: C_29  and  C_30
REMARK    9  A    between atoms: C_30  and  C_31
REMARK   10  A    between atoms: C_31  and  O_32
REMARK   11  A    between atoms: O_32  and  C_33
REMARK                            x       y       z     vdW  Elec       q    Type
REMARK                         _______ _______ _______ _____ _____    ______ ____
ROOT
ATOM      1  C   UNL     1       1.283  -2.290  -1.601  0.00  0.00    +0.022 C 
ATOM      2  C   UNL     1      -0.152  -2.767  -1.545  0.00  0.00    +0.201 C 
ATOM      3  O   UNL     1      -1.038  -2.272  -0.879  0.00  0.00    -0.277 OA
ATOM      4  N   UNL     1      -0.281  -3.835  -2.360  0.00  0.00    -0.314 N 
ATOM      5  C   UNL     1       1.011  -4.132  -2.984  0.00  0.00    +0.006 C 
ATOM      6  N   UNL     1       1.846  -2.922  -2.819  0.00  0.00    +0.401 N 
ATOM      7  C   UNL     1       0.824  -4.434  -4.469  0.00  0.00    +0.023 C 
ATOM      8  C   UNL     1      -0.072  -5.667  -4.629  0.00  0.00    +0.109 C 
ATOM      9  N   UNL     1       0.501  -6.771  -3.848  0.00  0.00    -0.177 NA
ATOM     10  C   UNL     1       0.788  -6.555  -2.423  0.00  0.00    +0.109 C 
ATOM     11  C   UNL     1       1.677  -5.315  -2.282  0.00  0.00    +0.023 C 
ATOM     12  H   UNL     1       1.747  -2.311  -3.616  0.00  0.00    -0.082 HD
ATOM     13  H   UNL     1       2.813  -3.171  -2.677  0.00  0.00    -0.082 HD
ENDROOT
BRANCH   9  14
ATOM     14  S   UNL     1       0.818  -8.233  -4.559  0.00  0.00    +0.061 S 
ATOM     15  O   UNL     1       0.812  -9.201  -3.519  0.00  0.00    -0.153 OA
ATOM     16  O   UNL     1      -0.035  -8.326  -5.692  0.00  0.00    -0.153 OA
BRANCH  14  17
ATOM     17  C   UNL     1       2.467  -8.166  -5.176  0.00  0.00    +0.107 A 
ATOM     18  C   UNL     1       2.707  -7.713  -6.460  0.00  0.00    +0.030 A 
ATOM     19  C   UNL     1       4.000  -7.661  -6.945  0.00  0.00    +0.023 A 
ATOM     20  C   UNL     1       5.056  -8.061  -6.145  0.00  0.00    +0.059 A 
ATOM     21  C   UNL     1       4.816  -8.513  -4.859  0.00  0.00    +0.061 A 
ATOM     22  C   UNL     1       3.521  -8.560  -4.373  0.00  0.00    +0.050 A 
ATOM     23 CL   UNL     1       6.139  -9.015  -3.854  0.00  0.00    -0.082 Cl
ATOM     24 CL   UNL     1       6.680  -7.995  -6.754  0.00  0.00    -0.082 Cl
ENDBRANCH  14  17
ENDBRANCH   9  14
BRANCH   1  25
ATOM     25  C   UNL     1       1.334  -0.766  -1.720  0.00  0.00    -0.020 C 
ATOM     26  C   UNL     1       0.448  -0.315  -2.883  0.00  0.00    +0.006 C 
BRANCH  25  28
ATOM     27  C   UNL     1       0.995   1.383  -0.490  0.00  0.00    +0.004 C 
ATOM     28  C   UNL     1       0.828  -0.136  -0.420  0.00  0.00    -0.001 C 
ENDBRANCH  25  28
ENDBRANCH   1  25
BRANCH   4  29
ATOM     29  C   UNL     1      -1.521  -4.581  -2.586  0.00  0.00    +0.108 C 
BRANCH  29  30
ATOM     30  C   UNL     1      -2.301  -3.939  -3.735  0.00  0.00    +0.047 C 
BRANCH  30  31
ATOM     31  C   UNL     1      -3.526  -4.795  -4.061  0.00  0.00    +0.161 C 
BRANCH  31  32
ATOM     32  O   UNL     1      -4.254  -4.195  -5.135  0.00  0.00    -0.383 OA
ATOM     33  C   UNL     1      -5.424  -4.920  -5.520  0.00  0.00    +0.193 C 
ENDBRANCH  31  32
ENDBRANCH  30  31
ENDBRANCH  29  30
ENDBRANCH   4  29
TORSDOF 8
