REMARK  Name = ZINC31933421
REMARK  5 active torsions:
REMARK  status: ('A' for Active; 'I' for Inactive)
REMARK    1  A    between atoms: C_1  and  C_2
REMARK    2  A    between atoms: C_8  and  C_11
REMARK    3  A    between atoms: C_11  and  C_13
REMARK    4  A    between atoms: C_11  and  C_14
REMARK    5  A    between atoms: C_14  and  N_16
REMARK                            x       y       z     vdW  Elec       q    Type
REMARK                         _______ _______ _______ _____ _____    ______ ____
ROOT
ATOM      1  C   UNL     1      -0.462   4.751   5.810  0.00  0.00    +0.045 C 
ATOM      2  C   UNL     1       0.014   3.397   5.352  0.00  0.00    -0.034 A 
ATOM      3  C   UNL     1       0.757   2.585   6.225  0.00  0.00    +0.008 A 
ATOM      4  C   UNL     1       1.185   1.363   5.808  0.00  0.00    +0.047 A 
ATOM      5  C   UNL     1       0.875   0.931   4.503  0.00  0.00    +0.138 A 
ATOM      6  N   UNL     1       1.154  -0.183   3.841  0.00  0.00    -0.236 NA
ATOM      7  C   UNL     1       0.630  -0.108   2.616  0.00  0.00    +0.135 A 
ATOM      8  C   UNL     1       0.000   1.080   2.488  0.00  0.00    +0.052 A 
ATOM      9  N   UNL     1       0.153   1.748   3.672  0.00  0.00    -0.303 N 
ATOM     10  C   UNL     1      -0.275   2.970   4.105  0.00  0.00    +0.096 A 
ENDROOT
BRANCH   8  11
ATOM     11  C   UNL     1      -0.729   1.579   1.267  0.00  0.00    +0.086 C 
ATOM     12  C   UNL     1      -0.013   1.086   0.008  0.00  0.00    +0.021 C 
BRANCH  11  13
ATOM     13  C   UNL     1      -2.143   1.058   1.278  0.00  0.00    +0.055 C 
ATOM     14  S   UNL     1      -2.575  -0.060   2.337  0.00  0.00    -0.040 S 
BRANCH  13  15
ATOM     15  N   UNL     1      -3.043   1.533   0.395  0.00  0.00    -0.355 N 
ATOM     16  H   UNL     1      -4.075   1.152   0.402  0.00  0.00    +0.143 HD
ATOM     17  H   UNL     1      -2.746   2.302  -0.334  0.00  0.00    +0.143 HD
ENDBRANCH  13  15
ENDBRANCH  11  13
ENDBRANCH   8  11
TORSDOF 3
