REMARK  Name = ZINC30499945
REMARK  11 active torsions:
REMARK  status: ('A' for Active; 'I' for Inactive)
REMARK    1  A    between atoms: C_1  and  C_2
REMARK    2  A    between atoms: C_2  and  C_3
REMARK    3  A    between atoms: N_5  and  C_6
REMARK    4  A    between atoms: C_9  and  C_12
REMARK    5  A    between atoms: C_12  and  C_14
REMARK    6  A    between atoms: C_12  and  N_15
REMARK    7  A    between atoms: N_15  and  C_16
REMARK    8  A    between atoms: C_16  and  C_18
REMARK    9  A    between atoms: C_16  and  C_19
REMARK   10  A    between atoms: N_21  and  C_22
REMARK   11  A    between atoms: C_25  and  C_29
REMARK                            x       y       z     vdW  Elec       q    Type
REMARK                         _______ _______ _______ _____ _____    ______ ____
ROOT
ATOM      1  N   UNL     1       0.366   2.067   1.434  0.00  0.00    +0.391 N 
ATOM      2  H   UNL     1       1.035   2.112   2.306  0.00  0.00    -0.084 HD
ATOM      3  H   UNL     1      -0.362   1.255   1.571  0.00  0.00    -0.084 HD
ENDROOT
BRANCH   1   4
ATOM      4  C   UNL     1      -0.345   3.345   1.296  0.00  0.00    -0.043 C 
ATOM      5  C   UNL     1       0.611   4.498   1.611  0.00  0.00    -0.009 C 
BRANCH   4   9
ATOM      6  C   UNL     1      -3.638   3.442   4.018  0.00  0.00    +0.033 A 
ATOM      7  C   UNL     1      -3.780   3.957   2.736  0.00  0.00    +0.023 A 
ATOM      8  C   UNL     1      -2.713   3.925   1.859  0.00  0.00    +0.004 A 
ATOM      9  C   UNL     1      -1.506   3.380   2.256  0.00  0.00    -0.062 A 
ATOM     10  C   UNL     1      -1.363   2.862   3.530  0.00  0.00    +0.004 A 
ATOM     11  C   UNL     1      -2.424   2.896   4.414  0.00  0.00    +0.023 A 
BRANCH   6  14
ATOM     12  C   UNL     1      -5.974   3.316   4.451  0.00  0.00    +0.217 C 
ATOM     13  O   UNL     1      -6.165   3.049   3.283  0.00  0.00    -0.275 OA
ATOM     14  N   UNL     1      -4.717   3.473   4.909  0.00  0.00    -0.286 N 
ATOM     15  H   UNL     1      -4.538   3.626   5.984  0.00  0.00    +0.155 HD
BRANCH  12  17
ATOM     16  C   UNL     1      -8.447   3.244   4.622  0.00  0.00    +0.013 C 
ATOM     17  C   UNL     1      -7.143   3.472   5.389  0.00  0.00    +0.093 C 
ENDBRANCH  12  17
ENDBRANCH   6  14
ENDBRANCH   4   9
ENDBRANCH   1   4
BRANCH   1  18
ATOM     18  C   UNL     1       1.171   1.782   0.238  0.00  0.00    +0.014 C 
ATOM     19  C   UNL     1       2.258   0.763   0.587  0.00  0.00    -0.004 C 
BRANCH  18  20
ATOM     20  C   UNL     1       0.283   1.219  -0.842  0.00  0.00    +0.203 C 
ATOM     21  O   UNL     1      -0.903   1.071  -0.636  0.00  0.00    -0.277 OA
ATOM     22  N   UNL     1       0.807   0.881  -2.037  0.00  0.00    -0.287 N 
ATOM     23  H   UNL     1       1.893   0.945  -2.199  0.00  0.00    +0.155 HD
BRANCH  22  24
ATOM     24  C   UNL     1      -0.028   0.449  -3.068  0.00  0.00    +0.035 A 
ATOM     25  C   UNL     1      -1.153  -0.317  -2.775  0.00  0.00    +0.024 A 
ATOM     26  C   UNL     1      -1.982  -0.741  -3.788  0.00  0.00    +0.022 A 
ATOM     27  C   UNL     1      -1.688  -0.411  -5.115  0.00  0.00    +0.070 A 
ATOM     28  C   UNL     1      -0.554   0.354  -5.406  0.00  0.00    +0.060 A 
ATOM     29  C   UNL     1       0.269   0.779  -4.385  0.00  0.00    +0.044 A 
ATOM     30 CL   UNL     1      -0.182   0.766  -7.051  0.00  0.00    -0.082 Cl
BRANCH  27  31
ATOM     31  C   UNL     1      -2.545  -0.856  -6.172  0.00  0.00    +0.101 C 
ATOM     32  N   UNL     1      -3.225  -1.209  -7.011  0.00  0.00    -0.191 NA
ENDBRANCH  27  31
ENDBRANCH  22  24
ENDBRANCH  18  20
ENDBRANCH   1  18
TORSDOF 8
