REMARK  Name = ZINC04223000
REMARK  12 active torsions:
REMARK  status: ('A' for Active; 'I' for Inactive)
REMARK    1  A    between atoms: C_1  and  C_2
REMARK    2  A    between atoms: C_2  and  C_3
REMARK    3  A    between atoms: C_2  and  C_4
REMARK    4  A    between atoms: C_2  and  N_41
REMARK    5  A    between atoms: C_4  and  O_5
REMARK    6  A    between atoms: C_6  and  C_7
REMARK    7  A    between atoms: C_6  and  N_41
REMARK    8  A    between atoms: C_9  and  O_19
REMARK    9  A    between atoms: C_10  and  O_14
REMARK   10  A    between atoms: O_14  and  C_15
REMARK   11  A    between atoms: C_15  and  C_16
REMARK   12  A    between atoms: O_19  and  C_20
REMARK                            x       y       z     vdW  Elec       q    Type
REMARK                         _______ _______ _______ _____ _____    ______ ____
ROOT
ATOM      1  C   UNL     1       0.936   0.439   4.819  0.00  0.00    -0.060 A 
ATOM      2  C   UNL     1       1.347   1.612   4.213  0.00  0.00    +0.051 A 
ATOM      3  C   UNL     1       0.807   1.987   2.993  0.00  0.00    +0.163 A 
ATOM      4  C   UNL     1      -0.148   1.182   2.381  0.00  0.00    +0.176 A 
ATOM      5  C   UNL     1      -0.559   0.010   2.996  0.00  0.00    +0.063 A 
ATOM      6  C   UNL     1      -0.013  -0.362   4.211  0.00  0.00    +0.021 A 
ATOM      7 BR   UNL     1      -1.863  -1.084   2.171  0.00  0.00    -0.046 Br
ENDROOT
BRANCH   3   8
ATOM      8  O   UNL     1       1.210   3.141   2.396  0.00  0.00    -0.491 OA
ATOM      9  C   UNL     1       2.194   3.917   3.082  0.00  0.00    +0.277 C 
ENDBRANCH   3   8
BRANCH   1  10
ATOM     10  C   UNL     1       1.525   0.032   6.145  0.00  0.00    -0.046 C 
BRANCH  10  11
ATOM     11  N   UNL     1       0.703   0.598   7.232  0.00  0.00    +0.387 N 
ATOM     12  H   UNL     1       0.695   1.621   7.153  0.00  0.00    -0.085 HD
ATOM     13  H   UNL     1      -0.256   0.241   7.152  0.00  0.00    -0.085 HD
BRANCH  11  15
ATOM     14  C   UNL     1       1.268  -1.310   8.674  0.00  0.00    -0.008 C 
ATOM     15  C   UNL     1       1.257   0.215   8.545  0.00  0.00    -0.050 C 
ATOM     16  C   UNL     1       2.686   0.748   8.675  0.00  0.00    -0.008 C 
BRANCH  15  17
ATOM     17  C   UNL     1       0.386   0.814   9.651  0.00  0.00    +0.143 C 
BRANCH  17  18
ATOM     18  O   UNL     1       0.917   0.448  10.926  0.00  0.00    -0.396 OA
ATOM     19  H   UNL     1       0.413   0.794  11.675  0.00  0.00    +0.209 HD
ENDBRANCH  17  18
ENDBRANCH  15  17
ENDBRANCH  11  15
ENDBRANCH  10  11
ENDBRANCH   1  10
BRANCH   4  20
ATOM     20  O   UNL     1      -0.682   1.547   1.184  0.00  0.00    -0.478 OA
BRANCH  20  21
ATOM     21  C   UNL     1      -0.013   1.086   0.008  0.00  0.00    +0.324 C 
BRANCH  21  22
ATOM     22  C   UNL     1      -0.742   1.585  -1.213  0.00  0.00    +0.248 C 
ATOM     23  O   UNL     1      -1.736   2.268  -1.088  0.00  0.00    -0.272 OA
ATOM     24  N   UNL     1      -0.288   1.272  -2.443  0.00  0.00    -0.327 N 
ATOM     25  H   UNL     1       0.507   0.726  -2.543  0.00  0.00    +0.145 HD
ATOM     26  H   UNL     1      -0.758   1.594  -3.229  0.00  0.00    +0.145 HD
ENDBRANCH  21  22
ENDBRANCH  20  21
ENDBRANCH   4  20
TORSDOF 9
