REMARK  Name = ZINC31155129
REMARK  12 active torsions:
REMARK  status: ('A' for Active; 'I' for Inactive)
REMARK    1  A    between atoms: C_1  and  O_2
REMARK    2  A    between atoms: O_2  and  C_3
REMARK    3  A    between atoms: C_3  and  C_5
REMARK    4  A    between atoms: C_8  and  O_20
REMARK    5  A    between atoms: C_16  and  C_18
REMARK    6  A    between atoms: C_18  and  O_19
REMARK    7  A    between atoms: O_20  and  C_21
REMARK    8  A    between atoms: C_23  and  O_36
REMARK    9  A    between atoms: C_25  and  O_35
REMARK   10  A    between atoms: C_27  and  O_34
REMARK   11  A    between atoms: C_29  and  C_32
REMARK   12  A    between atoms: C_32  and  O_33
REMARK                            x       y       z     vdW  Elec       q    Type
REMARK                         _______ _______ _______ _____ _____    ______ ____
ROOT
ATOM      1  C   UNL     1      -1.247  -2.047   0.003  0.00  0.00    +0.078 C 
ATOM      2  C   UNL     1      -2.445  -2.638   0.006  0.00  0.00    +0.201 C 
ATOM      3  O   UNL     1      -2.584  -3.968  -0.010  0.00  0.00    -0.470 OA
ATOM      4  C   UNL     1      -1.491  -4.797   0.333  0.00  0.00    +0.314 C 
ATOM      5  C   UNL     1      -0.174  -4.309  -0.246  0.00  0.00    +0.078 C 
ATOM      6  C   UNL     1       0.036  -2.808  -0.013  0.00  0.00    +0.061 C 
ATOM      7  C   UNL     1       0.747  -2.715   1.315  0.00  0.00    -0.022 C 
ATOM      8  C   UNL     1       1.270  -3.868   1.640  0.00  0.00    -0.024 C 
ATOM      9  C   UNL     1       0.986  -4.909   0.591  0.00  0.00    +0.047 C 
ENDROOT
BRANCH   1  10
ATOM     10  C   UNL     1      -1.192  -0.633   0.010  0.00  0.00    +0.338 C 
ATOM     11  O   UNL     1      -2.221   0.016   0.023  0.00  0.00    -0.245 OA
BRANCH  10  13
ATOM     12  C   UNL     1      -0.017   1.425   0.010  0.00  0.00    +0.280 C 
ATOM     13  O   UNL     1       0.002  -0.004   0.002  0.00  0.00    -0.465 OA
ENDBRANCH  10  13
ENDBRANCH   1  10
BRANCH   9  14
ATOM     14  C   UNL     1       2.222  -5.123  -0.285  0.00  0.00    +0.163 C 
BRANCH  14  15
ATOM     15  O   UNL     1       3.236  -5.782   0.476  0.00  0.00    -0.394 OA
ATOM     16  H   UNL     1       4.051  -5.950  -0.017  0.00  0.00    +0.209 HD
ENDBRANCH  14  15
ENDBRANCH   9  14
BRANCH   4  17
ATOM     17  O   UNL     1      -1.744  -6.117  -0.151  0.00  0.00    -0.310 OA
BRANCH  17  18
ATOM     18  C   UNL     1      -2.860  -6.760   0.469  0.00  0.00    +0.286 C 
ATOM     19  C   UNL     1      -3.113  -8.109  -0.209  0.00  0.00    +0.201 C 
ATOM     20  C   UNL     1      -4.271  -8.818   0.500  0.00  0.00    +0.179 C 
ATOM     21  C   UNL     1      -3.930  -8.969   1.986  0.00  0.00    +0.177 C 
ATOM     22  C   UNL     1      -3.645  -7.586   2.579  0.00  0.00    +0.178 C 
ATOM     23  O   UNL     1      -2.579  -6.969   1.854  0.00  0.00    -0.340 OA
BRANCH  21  24
ATOM     24  O   UNL     1      -5.034  -9.565   2.671  0.00  0.00    -0.386 OA
ATOM     25  H   UNL     1      -5.272 -10.443   2.342  0.00  0.00    +0.210 HD
ENDBRANCH  21  24
BRANCH  20  26
ATOM     26  O   UNL     1      -4.469 -10.108  -0.081  0.00  0.00    -0.386 OA
ATOM     27  H   UNL     1      -4.682 -10.087  -1.023  0.00  0.00    +0.210 HD
ENDBRANCH  20  26
BRANCH  19  28
ATOM     28  O   UNL     1      -3.450  -7.897  -1.582  0.00  0.00    -0.384 OA
ATOM     29  H   UNL     1      -2.761  -7.448  -2.091  0.00  0.00    +0.210 HD
ENDBRANCH  19  28
BRANCH  22  30
ATOM     30  C   UNL     1      -3.245  -7.734   4.048  0.00  0.00    +0.190 C 
BRANCH  30  31
ATOM     31  O   UNL     1      -3.092  -6.439   4.633  0.00  0.00    -0.392 OA
ATOM     32  H   UNL     1      -2.839  -6.457   5.566  0.00  0.00    +0.210 HD
ENDBRANCH  30  31
ENDBRANCH  22  30
ENDBRANCH  17  18
ENDBRANCH   4  17
TORSDOF 11
