REMARK  Name = ZINC20393240
REMARK  6 active torsions:
REMARK  status: ('A' for Active; 'I' for Inactive)
REMARK    1  A    between atoms: C_6  and  C_7
REMARK    2  A    between atoms: C_7  and  C_8
REMARK    3  A    between atoms: C_8  and  N_9
REMARK    4  A    between atoms: C_13  and  N_14
REMARK    5  A    between atoms: N_14  and  C_15
REMARK    6  A    between atoms: C_21  and  N_23
REMARK                            x       y       z     vdW  Elec       q    Type
REMARK                         _______ _______ _______ _____ _____    ______ ____
ROOT
ATOM      1  N   UNL     1      -3.043  -1.785  -1.805  0.00  0.00    -0.221 N 
ATOM      2  C   UNL     1      -2.997  -3.114  -1.583  0.00  0.00    +0.260 C 
ATOM      3  O   UNL     1      -1.942  -3.672  -1.347  0.00  0.00    -0.269 OA
ATOM      4  C   UNL     1      -4.260  -3.873  -1.633  0.00  0.00    +0.113 C 
ATOM      5  C   UNL     1      -4.290  -5.238  -1.416  0.00  0.00    +0.086 C 
ATOM      6  C   UNL     1      -5.488  -3.113  -1.925  0.00  0.00    +0.258 C 
ATOM      7  O   UNL     1      -6.568  -3.669  -1.983  0.00  0.00    -0.270 OA
ATOM      8  N   UNL     1      -5.382  -1.783  -2.127  0.00  0.00    -0.235 N 
ATOM      9  C   UNL     1      -4.199  -1.156  -2.061  0.00  0.00    +0.315 C 
ATOM     10  O   UNL     1      -4.173   0.044  -2.247  0.00  0.00    -0.252 OA
ATOM     11  H   UNL     1      -6.181  -1.268  -2.320  0.00  0.00    +0.159 HD
ENDROOT
BRANCH   5  12
ATOM     12  N   UNL     1      -5.473  -5.876  -1.306  0.00  0.00    -0.348 N 
ATOM     13  H   UNL     1      -6.299  -5.369  -1.299  0.00  0.00    +0.146 HD
BRANCH  12  14
ATOM     14  C   UNL     1      -5.509  -7.337  -1.197  0.00  0.00    +0.055 C 
ATOM     15  C   UNL     1      -5.320  -7.744   0.266  0.00  0.00    +0.020 C 
ATOM     16  C   UNL     1      -6.443  -7.141   1.112  0.00  0.00    +0.002 C 
ATOM     17  C   UNL     1      -7.793  -7.656   0.610  0.00  0.00    -0.001 C 
ATOM     18  C   UNL     1      -7.982  -7.249  -0.853  0.00  0.00    -0.014 C 
ATOM     19  C   UNL     1      -6.859  -7.852  -1.699  0.00  0.00    -0.055 C 
BRANCH  19  20
ATOM     20  N   UNL     1      -7.040  -7.462  -3.103  0.00  0.00    +0.381 N 
ATOM     21  H   UNL     1      -6.300  -7.859  -3.662  0.00  0.00    -0.090 HD
ATOM     22  H   UNL     1      -7.931  -7.802  -3.435  0.00  0.00    -0.090 HD
ATOM     23  H   UNL     1      -7.015  -6.456  -3.179  0.00  0.00    -0.090 HD
ENDBRANCH  19  20
ENDBRANCH  12  14
ENDBRANCH   5  12
BRANCH   1  24
ATOM     24  C   UNL     1      -1.801  -1.008  -1.760  0.00  0.00    +0.123 C 
BRANCH  24  25
ATOM     25  C   UNL     1      -1.560  -0.515  -0.332  0.00  0.00    +0.054 C 
BRANCH  25  31
ATOM     26  C   UNL     1      -0.313   1.648  -0.505  0.00  0.00    +0.006 A 
ATOM     27  C   UNL     1       0.858   2.382  -0.463  0.00  0.00    +0.038 A 
ATOM     28  C   UNL     1       2.061   1.749  -0.201  0.00  0.00    +0.123 A 
ATOM     29  C   UNL     1       2.090   0.383   0.019  0.00  0.00    +0.038 A 
ATOM     30  C   UNL     1       0.918  -0.349  -0.024  0.00  0.00    +0.006 A 
ATOM     31  C   UNL     1      -0.283   0.284  -0.286  0.00  0.00    -0.046 A 
ATOM     32  F   UNL     1       3.206   2.465  -0.160  0.00  0.00    -0.205 F 
ENDBRANCH  25  31
ENDBRANCH  24  25
ENDBRANCH   1  24
TORSDOF 6
