REMARK  Name = ZINC19228585
REMARK  12 active torsions:
REMARK  status: ('A' for Active; 'I' for Inactive)
REMARK    1  A    between atoms: C_1  and  C_2
REMARK    2  A    between atoms: C_2  and  C_3
REMARK    3  A    between atoms: C_3  and  N_4
REMARK    4  A    between atoms: C_7  and  N_10
REMARK    5  A    between atoms: N_10  and  C_11
REMARK    6  A    between atoms: C_14  and  C_27
REMARK    7  A    between atoms: N_16  and  C_18
REMARK    8  A    between atoms: C_18  and  C_19
REMARK    9  A    between atoms: C_20  and  C_21
REMARK   10  A    between atoms: N_29  and  C_30
REMARK   11  A    between atoms: C_30  and  C_31
REMARK   12  A    between atoms: C_30  and  C_32
REMARK                            x       y       z     vdW  Elec       q    Type
REMARK                         _______ _______ _______ _____ _____    ______ ____
ROOT
ATOM      1  C   UNL     1       2.012  -6.852   2.607  0.00  0.00    -0.055 C 
ATOM      2  C   UNL     1       2.020  -8.393   2.790  0.00  0.00    +0.014 C 
ATOM      3  C   UNL     1       3.392  -8.658   3.443  0.00  0.00    +0.142 C 
ATOM      4  N   UNL     1       4.261  -7.514   3.114  0.00  0.00    -0.289 NA
ATOM      5  C   UNL     1       3.497  -6.568   2.272  0.00  0.00    +0.070 C 
ENDROOT
BRANCH   3   6
ATOM      6  C   UNL     1       3.984  -9.930   2.893  0.00  0.00    +0.230 C 
ATOM      7  O   UNL     1       4.350  -9.979   1.737  0.00  0.00    -0.274 OA
ATOM      8  N   UNL     1       4.108 -11.014   3.685  0.00  0.00    -0.312 N 
ATOM      9  H   UNL     1       3.816 -10.975   4.609  0.00  0.00    +0.149 HD
BRANCH   8  10
ATOM     10  C   UNL     1       4.684 -12.250   3.150  0.00  0.00    +0.067 C 
ATOM     11  C   UNL     1       6.209 -12.187   3.248  0.00  0.00    +0.027 C 
ATOM     12  C   UNL     1       4.170 -13.443   3.958  0.00  0.00    +0.027 C 
ENDBRANCH   8  10
ENDBRANCH   3   6
BRANCH   1  13
ATOM     13  N   UNL     1       1.137  -6.459   1.495  0.00  0.00    +0.384 N 
ATOM     14  H   UNL     1       0.201  -6.794   1.669  0.00  0.00    -0.085 HD
ATOM     15  H   UNL     1       1.483  -6.859   0.636  0.00  0.00    -0.085 HD
BRANCH  13  19
ATOM     16  N   UNL     1      -0.386  -2.532   1.283  0.00  0.00    -0.302 NA
ATOM     17  C   UNL     1       0.242  -3.061   0.066  0.00  0.00    +0.083 C 
ATOM     18  C   UNL     1       0.308  -4.588   0.146  0.00  0.00    -0.000 C 
ATOM     19  C   UNL     1       1.119  -4.994   1.380  0.00  0.00    -0.069 C 
ATOM     20  C   UNL     1       0.470  -4.391   2.629  0.00  0.00    -0.000 C 
ATOM     21  C   UNL     1       0.400  -2.870   2.477  0.00  0.00    +0.083 C 
BRANCH  16  22
ATOM     22  C   UNL     1      -0.592  -1.081   1.182  0.00  0.00    +0.084 C 
BRANCH  22  24
ATOM     23  C   UNL     1      -1.827   0.725  -0.025  0.00  0.00    +0.005 C 
ATOM     24  C   UNL     1      -1.613  -0.786   0.081  0.00  0.00    +0.012 C 
ENDBRANCH  22  24
ENDBRANCH  16  22
ENDBRANCH  13  19
ENDBRANCH   1  13
BRANCH   4  25
ATOM     25  C   UNL     1       5.483  -7.959   2.431  0.00  0.00    +0.112 C 
BRANCH  25  26
ATOM     26  C   UNL     1       6.506  -6.852   2.458  0.00  0.00    -0.011 C 
ATOM     27  C   UNL     1       7.713  -7.078   2.955  0.00  0.00    +0.005 C 
BRANCH  27  28
ATOM     28  C   UNL     1       8.716  -5.993   2.982  0.00  0.00    -0.025 A 
ATOM     29  C   UNL     1       8.393  -4.728   2.489  0.00  0.00    +0.008 A 
ATOM     30  C   UNL     1       9.334  -3.719   2.517  0.00  0.00    +0.001 A 
ATOM     31  C   UNL     1      10.596  -3.959   3.031  0.00  0.00    +0.000 A 
ATOM     32  C   UNL     1      10.923  -5.211   3.520  0.00  0.00    +0.001 A 
ATOM     33  C   UNL     1       9.989  -6.227   3.505  0.00  0.00    +0.008 A 
ENDBRANCH  27  28
ENDBRANCH  25  26
ENDBRANCH   4  25
TORSDOF 9
