REMARK  Name = ZINC08791307
REMARK  9 active torsions:
REMARK  status: ('A' for Active; 'I' for Inactive)
REMARK    1  A    between atoms: C_1  and  O_2
REMARK    2  A    between atoms: O_2  and  C_3
REMARK    3  A    between atoms: C_5  and  N_13
REMARK    4  A    between atoms: C_7  and  O_11
REMARK    5  A    between atoms: C_8  and  O_9
REMARK    6  A    between atoms: O_9  and  C_10
REMARK    7  A    between atoms: O_11  and  C_12
REMARK    8  A    between atoms: C_16  and  C_23
REMARK    9  A    between atoms: C_17  and  O_22
REMARK                            x       y       z     vdW  Elec       q    Type
REMARK                         _______ _______ _______ _____ _____    ______ ____
ROOT
ATOM      1  N   UNL     1      -1.478   3.396  -2.572  0.00  0.00    -0.229 N 
ATOM      2  C   UNL     1      -1.498   2.970  -1.294  0.00  0.00    +0.267 A 
ATOM      3  O   UNL     1      -1.574   3.774  -0.381  0.00  0.00    -0.267 OA
ATOM      4  C   UNL     1      -1.425   1.593  -1.020  0.00  0.00    +0.069 A 
ATOM      5  C   UNL     1      -1.346   0.714  -2.060  0.00  0.00    +0.201 A 
ATOM      6  N   UNL     1      -1.334   1.190  -3.347  0.00  0.00    -0.278 N 
ATOM      7  H   UNL     1      -1.278   0.569  -4.090  0.00  0.00    +0.173 HD
ATOM      8  C   UNL     1      -1.400   2.513  -3.585  0.00  0.00    +0.336 A 
ATOM      9  O   UNL     1      -1.389   2.916  -4.732  0.00  0.00    -0.246 OA
ENDROOT
BRANCH   4  10
ATOM     10  C   UNL     1      -1.439   1.095   0.402  0.00  0.00    +0.018 C 
ATOM     11  C   UNL     1      -2.762   1.432   1.049  0.00  0.00    +0.011 A 
ATOM     12  C   UNL     1      -2.864   1.923   2.305  0.00  0.00    -0.022 A 
ATOM     13  C   UNL     1      -4.270   2.122   2.573  0.00  0.00    +0.003 A 
ATOM     14  C   UNL     1      -4.967   2.599   3.687  0.00  0.00    +0.010 A 
ATOM     15  C   UNL     1      -6.336   2.653   3.588  0.00  0.00    +0.001 A 
ATOM     16  C   UNL     1      -7.007   2.256   2.443  0.00  0.00    +0.002 A 
ATOM     17  C   UNL     1      -6.343   1.779   1.326  0.00  0.00    +0.026 A 
ATOM     18  C   UNL     1      -4.953   1.714   1.397  0.00  0.00    +0.047 A 
ATOM     19  N   UNL     1      -4.009   1.303   0.500  0.00  0.00    -0.359 N 
ATOM     20  H   UNL     1      -4.194   0.970  -0.392  0.00  0.00    +0.166 HD
ATOM     21  C   UNL     1      -1.675   2.185   3.194  0.00  0.00    +0.018 C 
ATOM     22  C   UNL     1      -0.467   1.447   2.601  0.00  0.00    -0.076 C 
ATOM     23  N   UNL     1      -0.356   1.758   1.161  0.00  0.00    +0.388 N 
ATOM     24  H   UNL     1      -0.423   2.773   1.028  0.00  0.00    -0.084 HD
ATOM     25  H   UNL     1       0.552   1.426   0.813  0.00  0.00    -0.084 HD
ENDBRANCH   4  10
BRANCH   1  28
ATOM     26  C   UNL     1      -0.446   6.872  -3.226  0.00  0.00    +0.167 A 
ATOM     27  C   UNL     1      -0.380   5.514  -2.953  0.00  0.00    +0.076 A 
ATOM     28  C   UNL     1      -1.546   4.769  -2.850  0.00  0.00    +0.062 A 
ATOM     29  C   UNL     1      -2.780   5.380  -3.028  0.00  0.00    +0.076 A 
ATOM     30  C   UNL     1      -2.848   6.738  -3.297  0.00  0.00    +0.167 A 
ATOM     31  C   UNL     1      -1.681   7.486  -3.399  0.00  0.00    +0.204 A 
BRANCH  26  33
ATOM     32  C   UNL     1       1.930   6.905  -3.138  0.00  0.00    +0.277 C 
ATOM     33  O   UNL     1       0.697   7.602  -3.327  0.00  0.00    -0.491 OA
ENDBRANCH  26  33
BRANCH  31  34
ATOM     34  O   UNL     1      -1.747   8.819  -3.668  0.00  0.00    -0.488 OA
ATOM     35  C   UNL     1      -1.728   9.204  -5.044  0.00  0.00    +0.277 C 
ENDBRANCH  31  34
BRANCH  30  36
ATOM     36  O   UNL     1      -4.057   7.338  -3.465  0.00  0.00    -0.491 OA
ATOM     37  C   UNL     1      -5.215   6.509  -3.346  0.00  0.00    +0.277 C 
ENDBRANCH  30  36
ENDBRANCH   1  28
BRANCH   5  38
ATOM     38  O   UNL     1      -1.280  -0.613  -1.825  0.00  0.00    -0.493 OA
ATOM     39  H   UNL     1      -1.226  -1.152  -2.626  0.00  0.00    +0.294 HD
ENDBRANCH   5  38
TORSDOF 6
