REMARK  Name = ZINC63808543
REMARK  8 active torsions:
REMARK  status: ('A' for Active; 'I' for Inactive)
REMARK    1  A    between atoms: C_1  and  O_2
REMARK    2  A    between atoms: O_2  and  C_3
REMARK    3  A    between atoms: C_9  and  C_12
REMARK    4  A    between atoms: C_12  and  C_13
REMARK    5  A    between atoms: C_13  and  N_14
REMARK    6  A    between atoms: C_15  and  C_33
REMARK    7  A    between atoms: C_19  and  C_27
REMARK    8  A    between atoms: C_37  and  O_39
REMARK                            x       y       z     vdW  Elec       q    Type
REMARK                         _______ _______ _______ _____ _____    ______ ____
ROOT
ATOM      1  N   UNL     1      -0.441  -6.750  -2.188  0.00  0.00    -0.292 N 
ATOM      2  C   UNL     1      -0.428  -8.207  -1.837  0.00  0.00    +0.114 C 
ATOM      3  C   UNL     1      -1.504  -8.268  -0.820  0.00  0.00    +0.077 C 
ATOM      4  C   UNL     1      -1.804  -9.106   0.369  0.00  0.00    +0.136 C 
ATOM      5  N   UNL     1      -2.581  -8.111   1.178  0.00  0.00    -0.305 N 
ATOM      6  N   UNL     1      -2.206  -6.934   0.924  0.00  0.00    -0.203 NA
ATOM      7  C   UNL     1      -1.065  -6.982   0.016  0.00  0.00    +0.218 C 
ATOM      8  C   UNL     1      -0.955  -6.031  -1.139  0.00  0.00    +0.243 C 
ATOM      9  O   UNL     1      -1.262  -4.858  -1.144  0.00  0.00    -0.273 OA
ATOM     10  H   UNL     1      -3.278  -8.342   1.811  0.00  0.00    +0.183 HD
ENDROOT
BRANCH   4  11
ATOM     11  C   UNL     1      -2.649 -10.299   0.003  0.00  0.00    -0.023 A 
ATOM     12  C   UNL     1      -4.012 -10.153  -0.171  0.00  0.00    +0.006 A 
ATOM     13  C   UNL     1      -4.787 -11.247  -0.508  0.00  0.00    +0.000 A 
ATOM     14  C   UNL     1      -4.199 -12.488  -0.670  0.00  0.00    +0.000 A 
ATOM     15  C   UNL     1      -2.835 -12.633  -0.497  0.00  0.00    +0.000 A 
ATOM     16  C   UNL     1      -2.059 -11.538  -0.165  0.00  0.00    +0.006 A 
ENDBRANCH   4  11
BRANCH   2  17
ATOM     17  C   UNL     1       0.899  -8.611  -1.247  0.00  0.00    -0.023 A 
ATOM     18  C   UNL     1       1.681  -7.672  -0.600  0.00  0.00    +0.006 A 
ATOM     19  C   UNL     1       2.899  -8.039  -0.058  0.00  0.00    +0.004 A 
ATOM     20  C   UNL     1       3.338  -9.345  -0.163  0.00  0.00    +0.045 A 
ATOM     21  C   UNL     1       2.555 -10.288  -0.811  0.00  0.00    +0.117 A 
ATOM     22  C   UNL     1       1.331  -9.919  -1.349  0.00  0.00    +0.051 A 
BRANCH  21  23
ATOM     23  O   UNL     1       2.985 -11.573  -0.916  0.00  0.00    -0.507 OA
ATOM     24  H   UNL     1       2.711 -12.140  -0.182  0.00  0.00    +0.292 HD
ENDBRANCH  21  23
ENDBRANCH   2  17
BRANCH   1  25
ATOM     25  C   UNL     1       0.029  -6.182  -3.454  0.00  0.00    +0.113 C 
BRANCH  25  26
ATOM     26  C   UNL     1       1.516  -5.844  -3.341  0.00  0.00    +0.052 C 
BRANCH  26  33
ATOM     27  C   UNL     1       1.995  -1.516  -4.804  0.00  0.00    +0.121 A 
ATOM     28  C   UNL     1       2.489  -1.395  -6.114  0.00  0.00    +0.047 A 
ATOM     29  C   UNL     1       2.797  -2.466  -6.877  0.00  0.00    +0.029 A 
ATOM     30  C   UNL     1       2.617  -3.819  -6.339  0.00  0.00    +0.043 A 
ATOM     31  N   UNL     1       2.833  -5.003  -6.856  0.00  0.00    -0.380 N 
ATOM     32  C   UNL     1       2.474  -6.019  -5.861  0.00  0.00    +0.144 C 
ATOM     33  C   UNL     1       1.999  -5.259  -4.643  0.00  0.00    -0.040 C 
ATOM     34  C   UNL     1       2.096  -3.947  -4.959  0.00  0.00    +0.002 A 
ATOM     35  C   UNL     1       1.798  -2.720  -4.214  0.00  0.00    +0.055 A 
ATOM     36  H   UNL     1       3.173  -5.178  -7.747  0.00  0.00    +0.160 HD
BRANCH  27  38
ATOM     37  C   UNL     1       1.932   0.860  -4.764  0.00  0.00    +0.277 C 
ATOM     38  O   UNL     1       1.709  -0.387  -4.103  0.00  0.00    -0.495 OA
ENDBRANCH  27  38
ENDBRANCH  26  33
ENDBRANCH  25  26
ENDBRANCH   1  25
TORSDOF 7
