REMARK  Name = ZINC27529107
REMARK  10 active torsions:
REMARK  status: ('A' for Active; 'I' for Inactive)
REMARK    1  A    between atoms: C_3  and  N_25
REMARK    2  A    between atoms: C_6  and  C_7
REMARK    3  A    between atoms: C_7  and  C_8
REMARK    4  A    between atoms: C_8  and  N_9
REMARK    5  A    between atoms: N_12  and  C_15
REMARK    6  A    between atoms: C_15  and  C_16
REMARK    7  A    between atoms: N_25  and  C_26
REMARK    8  A    between atoms: C_26  and  C_27
REMARK    9  A    between atoms: C_27  and  O_28
REMARK   10  A    between atoms: O_28  and  C_29
REMARK                            x       y       z     vdW  Elec       q    Type
REMARK                         _______ _______ _______ _____ _____    ______ ____
ROOT
ATOM      1  C   UNL     1       9.365  -4.444  -3.939  0.00  0.00    +0.005 A 
ATOM      2  C   UNL     1      10.257  -4.831  -4.920  0.00  0.00    +0.023 A 
ATOM      3  C   UNL     1      11.334  -5.645  -4.596  0.00  0.00    +0.027 A 
ATOM      4  C   UNL     1      11.514  -6.063  -3.283  0.00  0.00    +0.023 A 
ATOM      5  C   UNL     1      10.622  -5.668  -2.306  0.00  0.00    +0.005 A 
ATOM      6  C   UNL     1       9.550  -4.857  -2.633  0.00  0.00    -0.049 A 
ENDROOT
BRANCH   3   7
ATOM      7  N   UNL     1      12.235  -6.042  -5.587  0.00  0.00    -0.341 N 
ATOM      8  H   UNL     1      13.088  -6.687  -5.328  0.00  0.00    +0.146 HD
BRANCH   7   9
ATOM      9  C   UNL     1      12.044  -5.601  -6.970  0.00  0.00    +0.142 C 
BRANCH   9  10
ATOM     10  C   UNL     1      13.160  -6.172  -7.847  0.00  0.00    +0.247 C 
BRANCH  10  11
ATOM     11  O   UNL     1      13.053  -7.596  -7.886  0.00  0.00    -0.489 OA
BRANCH  11  12
ATOM     12  C   UNL     1      13.976  -8.264  -8.628  0.00  0.00    +0.139 A 
ATOM     13  C   UNL     1      14.964  -7.563  -9.303  0.00  0.00    +0.048 A 
ATOM     14  C   UNL     1      15.902  -8.243 -10.056  0.00  0.00    +0.023 A 
ATOM     15  C   UNL     1      15.856  -9.624 -10.137  0.00  0.00    +0.043 A 
ATOM     16  C   UNL     1      14.871 -10.326  -9.465  0.00  0.00    +0.043 A 
ATOM     17  C   UNL     1      13.935  -9.649  -8.706  0.00  0.00    +0.084 A 
ATOM     18 CL   UNL     1      12.704 -10.531  -7.856  0.00  0.00    -0.080 Cl
ATOM     19 CL   UNL     1      17.035 -10.476 -11.084  0.00  0.00    -0.083 Cl
ENDBRANCH  11  12
ENDBRANCH  10  11
ENDBRANCH   9  10
ENDBRANCH   7   9
ENDBRANCH   3   7
BRANCH   6  20
ATOM     20  C   UNL     1       8.579  -4.428  -1.564  0.00  0.00    +0.016 C 
BRANCH  20  21
ATOM     21  C   UNL     1       9.054  -3.114  -0.940  0.00  0.00    -0.074 C 
BRANCH  21  22
ATOM     22  N   UNL     1       8.107  -2.696   0.102  0.00  0.00    +0.382 N 
ATOM     23  C   UNL     1       8.396  -1.330   0.559  0.00  0.00    -0.063 C 
ATOM     24  C   UNL     1       7.441  -0.962   1.696  0.00  0.00    +0.066 C 
ATOM     25  N   UNL     1       6.054  -1.074   1.223  0.00  0.00    -0.302 NA
ATOM     26  C   UNL     1       5.765  -2.440   0.767  0.00  0.00    +0.066 C 
ATOM     27  C   UNL     1       6.720  -2.808  -0.371  0.00  0.00    -0.063 C 
ATOM     28  H   UNL     1       8.229  -3.374   0.960  0.00  0.00    -0.082 HD
BRANCH  25  29
ATOM     29  C   UNL     1       5.107  -0.655   2.265  0.00  0.00    +0.119 C 
BRANCH  29  30
ATOM     30  C   UNL     1       3.725  -0.548   1.674  0.00  0.00    -0.030 A 
ATOM     31  C   UNL     1       2.885  -1.646   1.677  0.00  0.00    +0.009 A 
ATOM     32  C   UNL     1       1.617  -1.553   1.135  0.00  0.00    +0.050 A 
ATOM     33  C   UNL     1       1.183  -0.356   0.589  0.00  0.00    +0.166 A 
ATOM     34  C   UNL     1       2.028   0.751   0.586  0.00  0.00    +0.167 A 
ATOM     35  C   UNL     1       3.298   0.650   1.131  0.00  0.00    +0.054 A 
ATOM     36  O   UNL     1       1.376   1.797  -0.001  0.00  0.00    -0.453 OA
ATOM     37  C   UNL     1      -0.018   1.436   0.010  0.00  0.00    +0.466 C 
ATOM     38  O   UNL     1       0.002  -0.004   0.002  0.00  0.00    -0.453 OA
ENDBRANCH  29  30
ENDBRANCH  25  29
ENDBRANCH  21  22
ENDBRANCH  20  21
ENDBRANCH   6  20
TORSDOF 10
