REMARK  Name = ZINC33916875
REMARK  9 active torsions:
REMARK  status: ('A' for Active; 'I' for Inactive)
REMARK    1  A    between atoms: C_1  and  C_2
REMARK    2  A    between atoms: C_13  and  C_15
REMARK    3  A    between atoms: C_15  and  C_17
REMARK    4  A    between atoms: C_17  and  C_18
REMARK    5  A    between atoms: C_25  and  O_26
REMARK    6  A    between atoms: O_26  and  C_27
REMARK    7  A    between atoms: N_33  and  C_34
REMARK    8  A    between atoms: C_38  and  C_45
REMARK    9  A    between atoms: C_41  and  O_44
REMARK                            x       y       z     vdW  Elec       q    Type
REMARK                         _______ _______ _______ _____ _____    ______ ____
ROOT
ATOM      1  C   UNL     1       0.275   1.472  -0.002  0.00  0.00    +0.012 C 
ATOM      2  C   UNL     1       0.143  -0.049  -0.023  0.00  0.00    -0.019 C 
ATOM      3  C   UNL     1      -1.292  -0.489   0.089  0.00  0.00    +0.008 C 
ATOM      4  C   UNL     1      -1.786  -0.446   1.538  0.00  0.00    +0.005 C 
ATOM      5  C   UNL     1      -0.815   0.230   2.487  0.00  0.00    +0.003 C 
ATOM      6  C   UNL     1       0.573  -0.416   2.449  0.00  0.00    +0.000 C 
ATOM      7  C   UNL     1       0.996  -0.748   1.054  0.00  0.00    -0.001 C 
ATOM      8  C   UNL     1       2.421  -0.363   0.631  0.00  0.00    +0.005 C 
ATOM      9  C   UNL     1       2.365  -0.468  -0.919  0.00  0.00    +0.012 C 
ATOM     10  C   UNL     1       0.865  -0.540  -1.299  0.00  0.00    +0.061 C 
ATOM     11  C   UNL     1       1.536   0.539   3.163  0.00  0.00    +0.031 C 
ATOM     12  C   UNL     1       1.025   0.725   4.568  0.00  0.00    -0.027 C 
ATOM     13  C   UNL     1      -0.221   0.573   4.897  0.00  0.00    -0.065 C 
ATOM     14  C   UNL     1      -1.321   0.220   3.928  0.00  0.00    -0.008 C 
ATOM     15  C   UNL     1      -1.911  -1.127   4.328  0.00  0.00    +0.014 C 
ATOM     16  C   UNL     1      -1.391  -1.548   5.700  0.00  0.00    +0.032 C 
ATOM     17  C   UNL     1      -1.517  -0.434   6.733  0.00  0.00    +0.119 C 
ATOM     18  C   UNL     1      -0.633   0.759   6.347  0.00  0.00    +0.062 C 
ATOM     19  C   UNL     1      -2.417   1.286   4.033  0.00  0.00    +0.016 C 
ENDROOT
BRANCH  10  20
ATOM     20  C   UNL     1       0.563   0.384  -2.445  0.00  0.00    +0.136 C 
ATOM     21  O   UNL     1       1.318   1.290  -2.706  0.00  0.00    -0.297 OA
BRANCH  20  22
ATOM     22  C   UNL     1      -0.682   0.181  -3.269  0.00  0.00    +0.064 C 
BRANCH  22  23
ATOM     23  C   UNL     1      -0.678   1.155  -4.450  0.00  0.00    -0.027 C 
ATOM     24  C   UNL     1       0.604   0.991  -5.223  0.00  0.00    -0.012 A 
ATOM     25  C   UNL     1       1.297   2.077  -5.716  0.00  0.00    -0.040 A 
ATOM     26  C   UNL     1       2.472   1.886  -6.427  0.00  0.00    +0.053 A 
ATOM     27  C   UNL     1       2.960   0.609  -6.647  0.00  0.00    +0.170 A 
ATOM     28  C   UNL     1       2.266  -0.489  -6.150  0.00  0.00    +0.208 A 
ATOM     29  C   UNL     1       1.089  -0.294  -5.439  0.00  0.00    +0.167 A 
ATOM     30  O   UNL     1       2.942  -1.626  -6.493  0.00  0.00    -0.449 OA
ATOM     31  C   UNL     1       3.835  -1.235  -7.553  0.00  0.00    +0.467 C 
ATOM     32  O   UNL     1       4.071   0.163  -7.302  0.00  0.00    -0.452 OA
ATOM     33  C   UNL     1       0.808   3.486  -5.498  0.00  0.00    +0.017 C 
ATOM     34  C   UNL     1      -0.660   3.463  -5.069  0.00  0.00    -0.074 C 
ATOM     35  N   UNL     1      -0.805   2.525  -3.946  0.00  0.00    +0.383 N 
ATOM     36  C   UNL     1      -2.125   2.701  -3.326  0.00  0.00    -0.095 C 
ATOM     37  H   UNL     1      -0.083   2.702  -3.263  0.00  0.00    -0.081 HD
BRANCH  29  38
ATOM     38  O   UNL     1       0.408  -1.366  -4.952  0.00  0.00    -0.491 OA
ATOM     39  C   UNL     1      -0.583  -1.946  -5.802  0.00  0.00    +0.277 C 
ENDBRANCH  29  38
ENDBRANCH  22  23
ENDBRANCH  20  22
ENDBRANCH  10  20
BRANCH  17  40
ATOM     40  O   UNL     1      -2.878  -0.018   6.840  0.00  0.00    -0.391 OA
ATOM     41  H   UNL     1      -3.024   0.690   7.483  0.00  0.00    +0.210 HD
ENDBRANCH  17  40
TORSDOF 5
