REMARK  Name = ZINC21036112
REMARK  6 active torsions:
REMARK  status: ('A' for Active; 'I' for Inactive)
REMARK    1  A    between atoms: C_2  and  N_9
REMARK    2  A    between atoms: C_10  and  C_12
REMARK    3  A    between atoms: C_12  and  S_13
REMARK    4  A    between atoms: S_13  and  C_14
REMARK    5  A    between atoms: N_18  and  N_19
REMARK    6  A    between atoms: N_20  and  N_21
REMARK                            x       y       z     vdW  Elec       q    Type
REMARK                         _______ _______ _______ _____ _____    ______ ____
ROOT
ATOM      1  S   UNL     1      -2.669   0.735  -0.387  0.00  0.00    -0.075 S 
ENDROOT
BRANCH   1   2
ATOM      2  C   UNL     1      -4.129   1.720  -0.344  0.00  0.00    +0.210 A 
ATOM      3  N   UNL     1      -4.178   3.018  -0.166  0.00  0.00    -0.119 NA
ATOM      4  N   UNL     1      -5.522   3.409  -0.201  0.00  0.00    -0.110 NA
ATOM      5  C   UNL     1      -6.251   2.337  -0.392  0.00  0.00    +0.248 A 
ATOM      6  N   UNL     1      -5.410   1.265  -0.485  0.00  0.00    -0.211 N 
ATOM      7  N   UNL     1      -7.637   2.297  -0.483  0.00  0.00    -0.251 N 
ATOM      8  H   UNL     1      -8.150   1.338  -0.645  0.00  0.00    +0.169 HD
BRANCH   6   9
ATOM      9  N   UNL     1      -5.783  -0.034  -0.684  0.00  0.00    -0.294 N 
ATOM     10  H   UNL     1      -6.848  -0.291  -0.785  0.00  0.00    +0.163 HD
ATOM     11  H   UNL     1      -5.019  -0.823  -0.744  0.00  0.00    +0.163 HD
ENDBRANCH   6   9
BRANCH   7  12
ATOM     12  N   UNL     1      -8.362   3.450  -0.371  0.00  0.00    -0.254 NA
ATOM     13  H   UNL     1      -9.433   3.220  -0.469  0.00  0.00    +0.140 HD
ATOM     14  H   UNL     1      -8.173   3.908   0.611  0.00  0.00    +0.140 HD
ENDBRANCH   7  12
ENDBRANCH   1   2
BRANCH   1  15
ATOM     15  C   UNL     1      -1.326   1.929  -0.142  0.00  0.00    +0.173 C 
BRANCH  15  17
ATOM     16  N   UNL     1       1.143   1.898   0.001  0.00  0.00    -0.285 N 
ATOM     17  C   UNL     1      -0.003   1.208  -0.158  0.00  0.00    +0.227 C 
ATOM     18  O   UNL     1       0.031   0.006  -0.318  0.00  0.00    -0.275 OA
ATOM     19  H   UNL     1       1.120   2.997   0.060  0.00  0.00    +0.155 HD
BRANCH  16  21
ATOM     20  C   UNL     1       3.520   1.795  -0.417  0.00  0.00    +0.043 A 
ATOM     21  C   UNL     1       2.363   1.219   0.092  0.00  0.00    +0.036 A 
ATOM     22  C   UNL     1       2.420  -0.030   0.696  0.00  0.00    +0.043 A 
ATOM     23  C   UNL     1       3.626  -0.702   0.779  0.00  0.00    +0.044 A 
ATOM     24  C   UNL     1       4.777  -0.126   0.271  0.00  0.00    +0.040 A 
ATOM     25  C   UNL     1       4.724   1.121  -0.326  0.00  0.00    +0.044 A 
ATOM     26 CL   UNL     1       6.170   1.841  -0.963  0.00  0.00    -0.083 Cl
ATOM     27 CL   UNL     1       3.697  -2.266   1.529  0.00  0.00    -0.083 Cl
ENDBRANCH  16  21
ENDBRANCH  15  17
ENDBRANCH   1  15
TORSDOF 6
