REMARK  Name = ZINC35426978
REMARK  5 active torsions:
REMARK  status: ('A' for Active; 'I' for Inactive)
REMARK    1  A    between atoms: C_1  and  N_2
REMARK    2  A    between atoms: C_16  and  C_29
REMARK    3  A    between atoms: N_22  and  C_23
REMARK    4  A    between atoms: C_32  and  O_35
REMARK    5  A    between atoms: O_35  and  C_36
REMARK                            x       y       z     vdW  Elec       q    Type
REMARK                         _______ _______ _______ _____ _____    ______ ____
ROOT
ATOM      1  C   UNL     1      -0.202   1.627   0.525  0.00  0.00    -0.096 C 
ATOM      2  N   UNL     1      -0.151   0.162   0.431  0.00  0.00    +0.381 N 
ATOM      3  C   UNL     1      -1.518  -0.374   0.392  0.00  0.00    -0.074 C 
ATOM      4  C   UNL     1      -1.499  -1.849  -0.022  0.00  0.00    +0.018 C 
ATOM      5  C   UNL     1      -0.528  -2.583   0.899  0.00  0.00    -0.034 A 
ATOM      6  C   UNL     1      -0.521  -3.983   1.046  0.00  0.00    +0.004 A 
ATOM      7  C   UNL     1       0.391  -4.501   1.914  0.00  0.00    +0.090 A 
ATOM      8  S   UNL     1       1.272  -3.097   2.525  0.00  0.00    -0.077 S 
ATOM      9  C   UNL     1       0.380  -1.865   1.614  0.00  0.00    -0.021 A 
ATOM     10  C   UNL     1       0.557  -0.382   1.605  0.00  0.00    -0.036 C 
ATOM     11  N   UNL     1       0.509  -5.855   2.202  0.00  0.00    -0.312 N 
ATOM     12  C   UNL     1       1.592  -6.660   2.293  0.00  0.00    +0.092 A 
ATOM     13  C   UNL     1       1.159  -7.920   2.530  0.00  0.00    +0.020 A 
ATOM     14  C   UNL     1      -0.250  -7.878   2.606  0.00  0.00    +0.025 A 
ATOM     15  C   UNL     1      -0.624  -6.602   2.426  0.00  0.00    +0.049 A 
ATOM     16  C   UNL     1      -1.993  -5.994   2.487  0.00  0.00    +0.155 C 
ATOM     17  N   UNL     1      -2.455  -5.541   1.153  0.00  0.00    -0.268 N 
ATOM     18  C   UNL     1      -1.452  -4.900   0.285  0.00  0.00    +0.148 C 
ATOM     19  C   UNL     1      -3.732  -5.709   0.753  0.00  0.00    +0.308 C 
ATOM     20  O   UNL     1      -4.535  -6.242   1.494  0.00  0.00    -0.252 OA
ATOM     21  N   UNL     1      -4.117  -5.285  -0.467  0.00  0.00    -0.269 N 
ATOM     22  H   UNL     1      -3.460  -4.932  -1.087  0.00  0.00    +0.156 HD
ATOM     23  H   UNL     1       0.339  -0.104  -0.410  0.00  0.00    -0.082 HD
ENDROOT
BRANCH  21  24
ATOM     24  C   UNL     1      -5.464  -5.354  -0.838  0.00  0.00    +0.035 A 
ATOM     25  C   UNL     1      -5.810  -5.636  -2.153  0.00  0.00    +0.023 A 
ATOM     26  C   UNL     1      -7.141  -5.704  -2.516  0.00  0.00    +0.002 A 
ATOM     27  C   UNL     1      -8.128  -5.491  -1.572  0.00  0.00    +0.000 A 
ATOM     28  C   UNL     1      -7.787  -5.209  -0.262  0.00  0.00    +0.002 A 
ATOM     29  C   UNL     1      -6.459  -5.145   0.109  0.00  0.00    +0.023 A 
ENDBRANCH  21  24
BRANCH  16  30
ATOM     30  C   UNL     1      -1.964  -4.812   3.422  0.00  0.00    -0.021 A 
ATOM     31  C   UNL     1      -2.822  -3.748   3.216  0.00  0.00    +0.009 A 
ATOM     32  C   UNL     1      -2.797  -2.663   4.071  0.00  0.00    +0.046 A 
ATOM     33  C   UNL     1      -1.911  -2.643   5.138  0.00  0.00    +0.120 A 
ATOM     34  C   UNL     1      -1.052  -3.713   5.343  0.00  0.00    +0.046 A 
ATOM     35  C   UNL     1      -1.084  -4.797   4.488  0.00  0.00    +0.009 A 
BRANCH  33  36
ATOM     36  O   UNL     1      -1.884  -1.577   5.980  0.00  0.00    -0.495 OA
ATOM     37  C   UNL     1      -0.946  -1.625   7.057  0.00  0.00    +0.277 C 
ENDBRANCH  33  36
ENDBRANCH  16  30
TORSDOF 3
