REMARK  Name = ZINC55028388
REMARK  9 active torsions:
REMARK  status: ('A' for Active; 'I' for Inactive)
REMARK    1  A    between atoms: C_1  and  C_2
REMARK    2  A    between atoms: C_2  and  C_3
REMARK    3  A    between atoms: C_3  and  C_4
REMARK    4  A    between atoms: C_3  and  C_5
REMARK    5  A    between atoms: C_3  and  N_6
REMARK    6  A    between atoms: C_7  and  C_9
REMARK    7  A    between atoms: C_9  and  N_10
REMARK    8  A    between atoms: C_13  and  N_16
REMARK    9  A    between atoms: N_19  and  C_20
REMARK                            x       y       z     vdW  Elec       q    Type
REMARK                         _______ _______ _______ _____ _____    ______ ____
ROOT
ATOM      1  N   UNL     1       2.029  -4.603  -3.502  0.00  0.00    +0.385 N 
ATOM      2  C   UNL     1       3.436  -4.188  -3.457  0.00  0.00    -0.076 C 
ATOM      3  C   UNL     1       4.138  -4.608  -4.750  0.00  0.00    +0.004 C 
ATOM      4  C   UNL     1       4.058  -6.131  -4.896  0.00  0.00    +0.071 C 
ATOM      5  C   UNL     1       2.588  -6.560  -4.867  0.00  0.00    +0.004 C 
ATOM      6  C   UNL     1       1.944  -6.067  -3.569  0.00  0.00    -0.076 C 
ATOM      7  H   UNL     1       1.588  -4.204  -4.317  0.00  0.00    -0.081 HD
ENDROOT
BRANCH   4   8
ATOM      8  N   UNL     1       4.660  -6.533  -6.170  0.00  0.00    -0.297 N 
ATOM      9  C   UNL     1       5.163  -7.775  -6.314  0.00  0.00    +0.300 C 
ATOM     10  O   UNL     1       5.116  -8.562  -5.388  0.00  0.00    -0.253 OA
ATOM     11  N   UNL     1       5.717  -8.145  -7.486  0.00  0.00    -0.297 N 
ATOM     12  H   UNL     1       4.697  -5.906  -6.908  0.00  0.00    +0.151 HD
ATOM     13  H   UNL     1       5.755  -7.518  -8.225  0.00  0.00    +0.151 HD
BRANCH  11  14
ATOM     14  C   UNL     1       6.264  -9.495  -7.643  0.00  0.00    +0.074 C 
ATOM     15  C   UNL     1       7.702  -9.528  -7.121  0.00  0.00    +0.022 C 
ATOM     16  C   UNL     1       8.272 -10.938  -7.285  0.00  0.00    +0.002 C 
ATOM     17  C   UNL     1       8.259 -11.324  -8.765  0.00  0.00    +0.000 C 
ATOM     18  C   UNL     1       6.821 -11.292  -9.288  0.00  0.00    +0.002 C 
ATOM     19  C   UNL     1       6.250  -9.882  -9.124  0.00  0.00    +0.022 C 
ENDBRANCH  11  14
ENDBRANCH   4   8
BRANCH   1  20
ATOM     20  C   UNL     1       1.341  -4.130  -2.293  0.00  0.00    +0.019 C 
BRANCH  20  22
ATOM     21  N   UNL     1       0.738  -1.962  -1.265  0.00  0.00    -0.312 N 
ATOM     22  C   UNL     1       1.321  -2.623  -2.285  0.00  0.00    +0.197 C 
ATOM     23  O   UNL     1       1.829  -2.004  -3.196  0.00  0.00    -0.278 OA
ATOM     24  H   UNL     1       0.332  -2.457  -0.536  0.00  0.00    +0.149 HD
BRANCH  21  25
ATOM     25  C   UNL     1       0.718  -0.497  -1.257  0.00  0.00    +0.029 C 
ATOM     26  C   UNL     1      -0.022   0.009  -2.496  0.00  0.00    +0.031 C 
ATOM     27  C   UNL     1       2.154   0.032  -1.268  0.00  0.00    +0.031 C 
BRANCH  25  29
ATOM     28  C   UNL     1      -0.019   1.526   0.010  0.00  0.00    +0.006 C 
ATOM     29  C   UNL     1       0.002  -0.004   0.002  0.00  0.00    +0.022 C 
ENDBRANCH  25  29
ENDBRANCH  21  25
ENDBRANCH  20  22
ENDBRANCH   1  20
TORSDOF 6
