REMARK  Name = ZINC14888526
REMARK  9 active torsions:
REMARK  status: ('A' for Active; 'I' for Inactive)
REMARK    1  A    between atoms: C_1  and  C_2
REMARK    2  A    between atoms: C_2  and  O_3
REMARK    3  A    between atoms: O_3  and  C_4
REMARK    4  A    between atoms: C_9  and  N_74
REMARK    5  A    between atoms: C_18  and  C_29
REMARK    6  A    between atoms: C_20  and  O_21
REMARK    7  A    between atoms: O_21  and  C_22
REMARK    8  A    between atoms: C_22  and  C_23
REMARK    9  A    between atoms: C_34  and  C_35
REMARK                            x       y       z     vdW  Elec       q    Type
REMARK                         _______ _______ _______ _____ _____    ______ ____
ROOT
ATOM      1  C   UNL     1       1.928   5.934   1.245  0.00  0.00    -0.036 C 
ATOM      2  C   UNL     1       2.595   4.575   1.242  0.00  0.00    +0.211 C 
ATOM      3  O   UNL     1       2.319   3.878   0.021  0.00  0.00    -0.490 OA
ATOM      4  C   UNL     1       1.152   3.177  -0.000  0.00  0.00    +0.163 A 
ATOM      5  C   UNL     1      -0.056   3.846   0.002  0.00  0.00    -0.018 A 
ATOM      6  C   UNL     1      -1.245   3.151   0.022  0.00  0.00    +0.014 A 
ATOM      7  C   UNL     1      -1.229   1.756   0.017  0.00  0.00    -0.014 A 
ATOM      8  C   UNL     1      -0.013   1.076   0.008  0.00  0.00    +0.058 A 
ATOM      9  C   UNL     1       1.177   1.784   0.000  0.00  0.00    +0.163 A 
ATOM     10  C   UNL     1      -0.063   5.363  -0.035  0.00  0.00    -0.039 C 
ATOM     11  N   UNL     1       0.452   5.851   1.266  0.00  0.00    +0.387 N 
ATOM     12  H   UNL     1       0.169   5.192   2.001  0.00  0.00    -0.081 HD
ENDROOT
BRANCH  11  18
ATOM     13  C   UNL     1       0.581  11.087   2.604  0.00  0.00    +0.403 C 
ATOM     14  O   UNL     1       0.824  11.352   3.765  0.00  0.00    -0.226 OA
ATOM     15  N   UNL     1       0.013   9.906   2.287  0.00  0.00    -0.268 N 
ATOM     16  C   UNL     1      -0.318   8.930   3.334  0.00  0.00    +0.109 C 
ATOM     17  C   UNL     1       0.324   7.586   2.975  0.00  0.00    +0.004 C 
ATOM     18  C   UNL     1      -0.117   7.174   1.569  0.00  0.00    -0.065 C 
ATOM     19  C   UNL     1       0.356   8.220   0.557  0.00  0.00    +0.004 C 
ATOM     20  C   UNL     1      -0.286   9.571   0.888  0.00  0.00    +0.109 C 
BRANCH  13  21
ATOM     21  O   UNL     1       0.879  11.972   1.635  0.00  0.00    -0.451 OA
BRANCH  21  23
ATOM     22  C   UNL     1       1.754  14.094   0.820  0.00  0.00    +0.048 C 
ATOM     23  C   UNL     1       1.489  13.223   2.050  0.00  0.00    +0.230 C 
ENDBRANCH  21  23
ENDBRANCH  13  21
ENDBRANCH  11  18
BRANCH   7  24
ATOM     24  C   UNL     1      -2.504   0.998   0.029  0.00  0.00    -0.015 A 
ATOM     25  C   UNL     1      -3.494   1.307   0.960  0.00  0.00    +0.009 A 
ATOM     26  C   UNL     1      -4.678   0.598   0.966  0.00  0.00    +0.001 A 
ATOM     27  C   UNL     1      -4.884  -0.417   0.050  0.00  0.00    +0.000 A 
ATOM     28  C   UNL     1      -3.905  -0.729  -0.877  0.00  0.00    +0.004 A 
ATOM     29  C   UNL     1      -2.719  -0.023  -0.895  0.00  0.00    -0.043 A 
ATOM     30  C   UNL     1      -1.657  -0.359  -1.910  0.00  0.00    +0.044 C 
ENDBRANCH   7  24
BRANCH   9  31
ATOM     31  O   UNL     1       2.365   1.122  -0.007  0.00  0.00    -0.488 OA
BRANCH  31  32
ATOM     32  C   UNL     1       2.312  -0.306  -0.006  0.00  0.00    +0.235 C 
BRANCH  32  33
ATOM     33  C   UNL     1       3.734  -0.870  -0.015  0.00  0.00    +0.054 C 
ATOM     34  C   UNL     1       3.704  -2.417  -0.046  0.00  0.00    +0.037 C 
ATOM     35  C   UNL     1       4.850  -2.783   0.932  0.00  0.00    +0.160 C 
ATOM     36  O   UNL     1       4.749  -1.776   1.961  0.00  0.00    -0.379 OA
ATOM     37  C   UNL     1       4.456  -0.532   1.304  0.00  0.00    +0.166 C 
ENDBRANCH  32  33
ENDBRANCH  31  32
ENDBRANCH   9  31
TORSDOF 7
