REMARK  Name = ZINC39981147
REMARK  3 active torsions:
REMARK  status: ('A' for Active; 'I' for Inactive)
REMARK    1  A    between atoms: C_14  and  S_16
REMARK    2  A    between atoms: S_16  and  C_17
REMARK    3  A    between atoms: C_17  and  C_18
REMARK                            x       y       z     vdW  Elec       q    Type
REMARK                         _______ _______ _______ _____ _____    ______ ____
ROOT
ATOM      1  C   UNL     1      -0.017   1.399   0.010  0.00  0.00    +0.017 A 
ATOM      2  C   UNL     1       1.123   2.126   0.003  0.00  0.00    +0.027 A 
ATOM      3  C   UNL     1       2.417   1.432  -0.013  0.00  0.00    +0.046 A 
ATOM      4  N   UNL     1       3.648   1.881  -0.055  0.00  0.00    -0.358 N 
ATOM      5  C   UNL     1       4.562   0.758   0.074  0.00  0.00    +0.252 C 
ATOM      6  C   UNL     1       3.707  -0.489  -0.065  0.00  0.00    +0.117 C 
ATOM      7  C   UNL     1       2.403  -0.053  -0.033  0.00  0.00    +0.026 A 
ATOM      8  C   UNL     1       1.155  -0.714  -0.019  0.00  0.00    +0.027 A 
ATOM      9  C   UNL     1       0.002  -0.004   0.002  0.00  0.00    +0.019 A 
ATOM     10 BR   UNL     1      -1.642  -0.938   0.021  0.00  0.00    -0.050 Br
ATOM     11  N   UNL     1       4.244  -1.685  -0.312  0.00  0.00    -0.147 NA
ATOM     12  N   UNL     1       5.380  -1.668  -0.941  0.00  0.00    -0.122 NA
ATOM     13  C   UNL     1       5.946  -0.516  -1.376  0.00  0.00    +0.208 C 
ATOM     14  N   UNL     1       5.587   0.678  -0.965  0.00  0.00    -0.227 NA
ATOM     15  H   UNL     1       3.907   2.811  -0.155  0.00  0.00    +0.162 HD
ENDROOT
BRANCH  13  16
ATOM     16  S   UNL     1       7.245  -0.627  -2.562  0.00  0.00    -0.075 S 
BRANCH  16  17
ATOM     17  C   UNL     1       7.709   1.100  -2.867  0.00  0.00    +0.172 C 
BRANCH  17  18
ATOM     18  C   UNL     1       8.826   1.149  -3.877  0.00  0.00    +0.221 C 
ATOM     19  O   UNL     1       9.266   0.120  -4.345  0.00  0.00    -0.275 OA
ATOM     20  N   UNL     1       9.337   2.336  -4.260  0.00  0.00    -0.329 N 
ATOM     21  H   UNL     1       8.985   3.159  -3.886  0.00  0.00    +0.145 HD
ATOM     22  H   UNL     1      10.056   2.367  -4.910  0.00  0.00    +0.145 HD
ENDBRANCH  17  18
ENDBRANCH  16  17
ENDBRANCH  13  16
TORSDOF 3
