REMARK  Name = ZINC63383549
REMARK  12 active torsions:
REMARK  status: ('A' for Active; 'I' for Inactive)
REMARK    1  A    between atoms: C_1  and  C_2
REMARK    2  A    between atoms: C_2  and  C_3
REMARK    3  A    between atoms: C_2  and  C_4
REMARK    4  A    between atoms: C_4  and  C_5
REMARK    5  A    between atoms: C_5  and  C_7
REMARK    6  A    between atoms: C_5  and  N_15
REMARK    7  A    between atoms: N_9  and  C_10
REMARK    8  A    between atoms: C_10  and  C_11
REMARK    9  A    between atoms: C_11  and  C_12
REMARK   10  A    between atoms: C_12  and  O_13
REMARK   11  A    between atoms: O_13  and  C_14
REMARK   12  A    between atoms: C_16  and  C_18
REMARK                            x       y       z     vdW  Elec       q    Type
REMARK                         _______ _______ _______ _____ _____    ______ ____
ROOT
ATOM      1  C   UNL     1       1.011  -2.904  -2.959  0.00  0.00    +0.167 C 
ATOM      2  C   UNL     1       0.453  -1.952  -4.035  0.00  0.00    +0.065 C 
ATOM      3  C   UNL     1       0.677  -2.616  -5.372  0.00  0.00    -0.034 C 
ATOM      4  C   UNL     1       1.269  -2.168  -6.474  0.00  0.00    -0.001 A 
ATOM      5  C   UNL     1       1.822  -0.848  -6.819  0.00  0.00    +0.010 A 
ATOM      6  C   UNL     1       2.383  -0.738  -8.052  0.00  0.00    +0.001 A 
ATOM      7  C   UNL     1       2.448  -1.795  -8.965  0.00  0.00    +0.002 A 
ATOM      8  C   UNL     1       1.957  -3.039  -8.735  0.00  0.00    +0.026 A 
ATOM      9  C   UNL     1       1.335  -3.276  -7.474  0.00  0.00    +0.043 A 
ATOM     10  N   UNL     1       0.768  -4.347  -7.003  0.00  0.00    -0.375 N 
ATOM     11  C   UNL     1       0.229  -4.041  -5.677  0.00  0.00    +0.131 C 
ATOM     12  C   UNL     1       0.848  -4.933  -4.596  0.00  0.00    +0.134 C 
ATOM     13  N   UNL     1       0.603  -4.275  -3.293  0.00  0.00    -0.276 N 
ATOM     14  C   UNL     1      -0.055  -5.133  -2.493  0.00  0.00    +0.248 C 
ATOM     15  O   UNL     1      -0.331  -4.926  -1.328  0.00  0.00    -0.270 OA
ATOM     16  C   UNL     1      -0.389  -6.353  -3.230  0.00  0.00    +0.042 A 
ATOM     17  C   UNL     1       0.166  -6.261  -4.545  0.00  0.00    -0.013 A 
ATOM     18  C   UNL     1       0.029  -7.259  -5.484  0.00  0.00    +0.006 A 
ATOM     19  C   UNL     1      -0.678  -8.395  -5.101  0.00  0.00    +0.000 A 
ATOM     20  C   UNL     1      -1.219  -8.523  -3.837  0.00  0.00    +0.001 A 
ATOM     21  C   UNL     1      -1.103  -7.489  -2.838  0.00  0.00    +0.013 A 
ATOM     22  H   UNL     1       0.713  -5.204  -7.455  0.00  0.00    +0.160 HD
ENDROOT
BRANCH   1  24
ATOM     23  N   UNL     1      -0.857  -2.686  -1.351  0.00  0.00    -0.302 N 
ATOM     24  C   UNL     1       0.456  -2.525  -1.610  0.00  0.00    +0.235 C 
ATOM     25  O   UNL     1       1.191  -2.074  -0.757  0.00  0.00    -0.274 OA
ATOM     26  H   UNL     1      -1.445  -3.047  -2.034  0.00  0.00    +0.150 HD
BRANCH  23  27
ATOM     27  C   UNL     1      -1.396  -2.318  -0.040  0.00  0.00    +0.159 C 
BRANCH  27  28
ATOM     28  C   UNL     1      -2.648  -3.113   0.230  0.00  0.00    +0.233 C 
ATOM     29  O   UNL     1      -3.050  -3.909  -0.592  0.00  0.00    -0.274 OA
ATOM     30  N   UNL     1      -3.320  -2.939   1.385  0.00  0.00    -0.314 N 
ATOM     31  H   UNL     1      -2.999  -2.302   2.042  0.00  0.00    +0.149 HD
BRANCH  30  32
ATOM     32  C   UNL     1      -4.537  -3.712   1.647  0.00  0.00    +0.106 C 
BRANCH  32  33
ATOM     33  C   UNL     1      -5.100  -3.326   3.017  0.00  0.00    +0.047 C 
BRANCH  33  34
ATOM     34  C   UNL     1      -6.371  -4.133   3.291  0.00  0.00    +0.161 C 
BRANCH  34  35
ATOM     35  O   UNL     1      -6.896  -3.774   4.570  0.00  0.00    -0.383 OA
ATOM     36  C   UNL     1      -8.091  -4.474   4.926  0.00  0.00    +0.193 C 
ENDBRANCH  34  35
ENDBRANCH  33  34
ENDBRANCH  32  33
ENDBRANCH  30  32
ENDBRANCH  27  28
BRANCH  27  37
ATOM     37  C   UNL     1      -1.728  -0.824  -0.026  0.00  0.00    +0.034 C 
BRANCH  37  39
ATOM     38  C   UNL     1      -0.780   1.473  -0.288  0.00  0.00    +0.007 C 
ATOM     39  C   UNL     1      -0.438  -0.014  -0.176  0.00  0.00    -0.015 C 
ATOM     40  C   UNL     1       0.452  -0.242   1.047  0.00  0.00    +0.007 C 
ENDBRANCH  37  39
ENDBRANCH  27  37
ENDBRANCH  23  27
ENDBRANCH   1  24
TORSDOF 9
