REMARK  Name = ZINC37511237
REMARK  11 active torsions:
REMARK  status: ('A' for Active; 'I' for Inactive)
REMARK    1  A    between atoms: C_1  and  C_2
REMARK    2  A    between atoms: C_5  and  O_8
REMARK    3  A    between atoms: O_8  and  C_9
REMARK    4  A    between atoms: C_9  and  C_10
REMARK    5  A    between atoms: C_10  and  C_12
REMARK    6  A    between atoms: N_18  and  C_23
REMARK    7  A    between atoms: C_23  and  C_24
REMARK    8  A    between atoms: C_27  and  C_29
REMARK    9  A    between atoms: N_31  and  C_32
REMARK   10  A    between atoms: C_32  and  C_34
REMARK   11  A    between atoms: C_32  and  C_35
REMARK                            x       y       z     vdW  Elec       q    Type
REMARK                         _______ _______ _______ _____ _____    ______ ____
ROOT
ATOM      1  C   UNL     1       0.107  -7.178   2.203  0.00  0.00    +0.023 A 
ATOM      2  C   UNL     1       0.101  -6.652   3.501  0.00  0.00    +0.015 A 
ATOM      3  C   UNL     1       0.118  -7.497   4.588  0.00  0.00    +0.048 A 
ATOM      4  C   UNL     1       0.140  -8.872   4.402  0.00  0.00    +0.143 A 
ATOM      5  C   UNL     1       0.146  -9.405   3.109  0.00  0.00    +0.079 A 
ATOM      6  C   UNL     1       0.124  -8.566   2.014  0.00  0.00    +0.038 A 
ATOM      7  N   UNL     1       0.169 -10.797   2.943  0.00  0.00    -0.258 N 
ATOM      8  C   UNL     1      -0.133 -11.587   3.996  0.00  0.00    +0.258 C 
ATOM      9  O   UNL     1      -0.090 -12.794   3.885  0.00  0.00    -0.271 OA
ATOM     10  C   UNL     1      -0.521 -10.962   5.312  0.00  0.00    +0.325 C 
ATOM     11  O   UNL     1       0.155  -9.712   5.468  0.00  0.00    -0.481 OA
ENDROOT
BRANCH   1  12
ATOM     12  C   UNL     1       0.090  -6.277   1.043  0.00  0.00    +0.200 C 
ATOM     13  O   UNL     1       0.090  -6.735  -0.080  0.00  0.00    -0.288 OA
BRANCH  12  14
ATOM     14  C   UNL     1       0.072  -4.785   1.249  0.00  0.00    +0.308 C 
BRANCH  14  15
ATOM     15  O   UNL     1       0.057  -4.129  -0.021  0.00  0.00    -0.484 OA
BRANCH  15  20
ATOM     16  C   UNL     1      -0.018   1.503   0.010  0.00  0.00    +0.044 C 
ATOM     17  C   UNL     1       0.002  -0.004   0.002  0.00  0.00    -0.050 A 
ATOM     18  C   UNL     1       0.006  -0.688  -1.200  0.00  0.00    +0.007 A 
ATOM     19  C   UNL     1       0.024  -2.069  -1.210  0.00  0.00    +0.046 A 
ATOM     20  C   UNL     1       0.039  -2.770  -0.013  0.00  0.00    +0.121 A 
ATOM     21  C   UNL     1       0.036  -2.082   1.191  0.00  0.00    +0.046 A 
ATOM     22  C   UNL     1       0.023  -0.701   1.196  0.00  0.00    +0.007 A 
ENDBRANCH  15  20
ENDBRANCH  14  15
ENDBRANCH  12  14
ENDBRANCH   1  12
BRANCH   7  23
ATOM     23  C   UNL     1       0.514 -11.386   1.646  0.00  0.00    +0.188 C 
BRANCH  23  24
ATOM     24  C   UNL     1       2.002 -11.610   1.577  0.00  0.00    +0.124 A 
ATOM     25  C   UNL     1       2.648 -12.735   1.957  0.00  0.00    +0.047 A 
ATOM     26  C   UNL     1       4.016 -12.524   1.725  0.00  0.00    +0.055 A 
ATOM     27  C   UNL     1       4.138 -11.266   1.209  0.00  0.00    +0.190 A 
ATOM     28  O   UNL     1       2.903 -10.729   1.122  0.00  0.00    -0.453 OA
BRANCH  27  29
ATOM     29  C   UNL     1       5.391 -10.614   0.814  0.00  0.00    +0.280 C 
ATOM     30  O   UNL     1       6.448 -11.204   0.937  0.00  0.00    -0.267 OA
ATOM     31  N   UNL     1       5.371  -9.362   0.316  0.00  0.00    -0.302 N 
ATOM     32  H   UNL     1       4.528  -8.892   0.218  0.00  0.00    +0.150 HD
BRANCH  31  33
ATOM     33  C   UNL     1       6.623  -8.711  -0.078  0.00  0.00    +0.100 C 
ATOM     34  C   UNL     1       7.264  -8.056   1.146  0.00  0.00    +0.033 C 
BRANCH  33  35
ATOM     35  C   UNL     1       6.335  -7.659  -1.118  0.00  0.00    -0.027 A 
ATOM     36  C   UNL     1       5.217  -6.855  -0.998  0.00  0.00    +0.005 A 
ATOM     37  C   UNL     1       4.954  -5.890  -1.952  0.00  0.00    +0.000 A 
ATOM     38  C   UNL     1       5.809  -5.728  -3.026  0.00  0.00    +0.000 A 
ATOM     39  C   UNL     1       6.928  -6.530  -3.145  0.00  0.00    +0.000 A 
ATOM     40  C   UNL     1       7.194  -7.493  -2.189  0.00  0.00    +0.005 A 
ENDBRANCH  33  35
ENDBRANCH  31  33
ENDBRANCH  27  29
ENDBRANCH  23  24
ENDBRANCH   7  23
TORSDOF 9
