REMARK  Name = ZINC20137141
REMARK  3 active torsions:
REMARK  status: ('A' for Active; 'I' for Inactive)
REMARK    1  A    between atoms: C_3  and  C_12
REMARK    2  A    between atoms: N_20  and  C_22
REMARK    3  A    between atoms: C_22  and  C_23
REMARK                            x       y       z     vdW  Elec       q    Type
REMARK                         _______ _______ _______ _____ _____    ______ ____
ROOT
ATOM      1  C   UNL     1       3.655   2.177  -0.021  0.00  0.00    +0.074 A 
ATOM      2  C   UNL     1       4.573   2.200  -1.020  0.00  0.00    +0.015 A 
ATOM      3  C   UNL     1       5.623   3.044  -0.624  0.00  0.00    +0.069 A 
ATOM      4  N   UNL     1       5.355   3.512   0.558  0.00  0.00    -0.178 NA
ATOM      5  H   UNL     1       3.673   3.177   1.814  0.00  0.00    +0.189 HD
ATOM      6  N   UNL     1       4.118   2.992   0.972  0.00  0.00    -0.276 N 
ATOM      7  C   UNL     1       6.830   3.302  -1.496  0.00  0.00    +0.073 C 
ATOM      8  C   UNL     1       6.858   2.220  -2.585  0.00  0.00    +0.091 C 
ATOM      9  N   UNL     1       5.542   2.125  -3.229  0.00  0.00    -0.292 NA
ATOM     10  C   UNL     1       4.550   1.485  -2.348  0.00  0.00    +0.124 C 
ENDROOT
BRANCH   1  13
ATOM     11  C   UNL     1      -0.017   1.379   0.010  0.00  0.00    +0.004 A 
ATOM     12  C   UNL     1       1.165   2.092   0.002  0.00  0.00    +0.014 A 
ATOM     13  C   UNL     1       2.386   1.417  -0.013  0.00  0.00    +0.046 A 
ATOM     14  C   UNL     1       2.406   0.019  -0.021  0.00  0.00    +0.182 A 
ATOM     15  C   UNL     1       1.208  -0.688  -0.013  0.00  0.00    +0.173 A 
ATOM     16  C   UNL     1       0.002  -0.004   0.002  0.00  0.00    +0.050 A 
ATOM     17  O   UNL     1       1.490  -2.024  -0.023  0.00  0.00    -0.395 OA
ATOM     18  C   UNL     1       2.862  -2.124  -0.449  0.00  0.00    +0.589 C 
ATOM     19  O   UNL     1       3.439  -0.871  -0.036  0.00  0.00    -0.395 OA
ATOM     20  F   UNL     1       3.498  -3.193   0.190  0.00  0.00    -0.125 F 
ATOM     21  F   UNL     1       2.936  -2.265  -1.839  0.00  0.00    -0.125 F 
ENDBRANCH   1  13
BRANCH   9  22
ATOM     22  C   UNL     1       5.635   1.422  -4.515  0.00  0.00    +0.139 C 
BRANCH  22  23
ATOM     23  C   UNL     1       6.448   2.245  -5.481  0.00  0.00    +0.047 A 
ATOM     24  C   UNL     1       5.960   3.112  -6.388  0.00  0.00    +0.106 A 
ATOM     25  N   UNL     1       7.035   3.640  -7.050  0.00  0.00    -0.352 N 
ATOM     26  C   UNL     1       8.144   3.076  -6.524  0.00  0.00    +0.171 A 
ATOM     27  N   UNL     1       7.786   2.247  -5.583  0.00  0.00    -0.349 N 
ATOM     28  H   UNL     1       7.006   4.296  -7.764  0.00  0.00    +0.166 HD
ATOM     29  H   UNL     1       8.391   1.714  -5.043  0.00  0.00    +0.166 HD
ENDBRANCH  22  23
ENDBRANCH   9  22
TORSDOF 3
