REMARK  Name = ZINC54456932
REMARK  4 active torsions:
REMARK  status: ('A' for Active; 'I' for Inactive)
REMARK    1  A    between atoms: C_3  and  N_4
REMARK    2  A    between atoms: N_10  and  C_13
REMARK    3  A    between atoms: C_13  and  C_14
REMARK    4  A    between atoms: C_14  and  N_15
REMARK                            x       y       z     vdW  Elec       q    Type
REMARK                         _______ _______ _______ _____ _____    ______ ____
ROOT
ATOM      1  N   UNL     1      -1.001  -2.571  -0.013  0.00  0.00    -0.296 N 
ATOM      2  C   UNL     1      -0.877  -1.935  -1.196  0.00  0.00    +0.302 C 
ATOM      3  O   UNL     1      -0.525  -0.772  -1.226  0.00  0.00    -0.253 OA
ATOM      4  N   UNL     1      -1.143  -2.590  -2.343  0.00  0.00    -0.283 N 
ATOM      5  C   UNL     1      -0.904  -1.953  -3.648  0.00  0.00    +0.124 C 
ATOM      6  C   UNL     1      -0.069  -2.907  -4.509  0.00  0.00    +0.103 C 
ATOM      7  N   UNL     1      -0.732  -4.216  -4.569  0.00  0.00    -0.301 NA
ATOM      8  C   UNL     1      -0.814  -4.833  -3.238  0.00  0.00    +0.103 C 
ATOM      9  C   UNL     1      -1.674  -3.961  -2.325  0.00  0.00    +0.124 C 
ATOM     10  H   UNL     1      -1.352  -3.475   0.017  0.00  0.00    +0.151 HD
ENDROOT
BRANCH   1  13
ATOM     11  C   UNL     1      -0.207  -2.776   2.412  0.00  0.00    +0.024 C 
ATOM     12  C   UNL     1      -1.541  -2.027   2.430  0.00  0.00    +0.024 C 
ATOM     13  C   UNL     1      -0.606  -1.897   1.226  0.00  0.00    +0.075 C 
ENDBRANCH   1  13
BRANCH   7  14
ATOM     14  C   UNL     1      -0.056  -5.106  -5.522  0.00  0.00    +0.065 C 
BRANCH  14  15
ATOM     15  C   UNL     1      -0.908  -6.357  -5.744  0.00  0.00    -0.071 C 
BRANCH  15  16
ATOM     16  N   UNL     1      -0.231  -7.247  -6.697  0.00  0.00    +0.379 N 
ATOM     17  H   UNL     1      -0.104  -6.766  -7.575  0.00  0.00    -0.090 HD
ATOM     18  H   UNL     1       0.669  -7.514  -6.327  0.00  0.00    -0.090 HD
ATOM     19  H   UNL     1      -0.793  -8.072  -6.844  0.00  0.00    -0.090 HD
ENDBRANCH  15  16
ENDBRANCH  14  15
ENDBRANCH   7  14
TORSDOF 4
