REMARK  Name = ZINC39482834
REMARK  11 active torsions:
REMARK  status: ('A' for Active; 'I' for Inactive)
REMARK    1  A    between atoms: C_1  and  C_2
REMARK    2  A    between atoms: C_2  and  C_3
REMARK    3  A    between atoms: C_2  and  S_4
REMARK    4  A    between atoms: S_4  and  C_7
REMARK    5  A    between atoms: C_10  and  N_27
REMARK    6  A    between atoms: C_11  and  N_13
REMARK    7  A    between atoms: C_17  and  C_20
REMARK    8  A    between atoms: C_20  and  C_21
REMARK    9  A    between atoms: N_27  and  S_28
REMARK   10  A    between atoms: S_28  and  C_31
REMARK   11  A    between atoms: C_36  and  O_37
REMARK                            x       y       z     vdW  Elec       q    Type
REMARK                         _______ _______ _______ _____ _____    ______ ____
ROOT
ATOM      1  C   UNL     1      -0.296  -2.588   0.449  0.00  0.00    +0.090 A 
ATOM      2  C   UNL     1      -0.467  -3.256  -0.750  0.00  0.00    +0.029 A 
ATOM      3  C   UNL     1      -0.662  -4.625  -0.761  0.00  0.00    +0.028 A 
ATOM      4  C   UNL     1      -0.686  -5.331   0.432  0.00  0.00    +0.069 A 
ATOM      5  C   UNL     1      -0.513  -4.657   1.641  0.00  0.00    +0.054 A 
ATOM      6  C   UNL     1      -0.313  -3.285   1.642  0.00  0.00    +0.052 A 
ENDROOT
BRANCH   5   7
ATOM      7  N   UNL     1      -0.537  -5.364   2.849  0.00  0.00    -0.332 N 
ATOM      8  C   UNL     1       0.697  -5.919   3.426  0.00  0.00    +0.086 C 
ATOM      9  C   UNL     1       0.454  -7.393   3.768  0.00  0.00    -0.063 C 
ATOM     10  N   UNL     1      -0.724  -7.504   4.638  0.00  0.00    +0.383 N 
ATOM     11  C   UNL     1      -1.923  -7.064   3.914  0.00  0.00    -0.050 C 
ATOM     12  C   UNL     1      -1.797  -5.569   3.581  0.00  0.00    +0.089 C 
ATOM     13  H   UNL     1      -0.840  -8.464   4.925  0.00  0.00    -0.085 HD
ATOM     14  H   UNL     1      -0.594  -6.925   5.454  0.00  0.00    -0.085 HD
BRANCH  11  15
ATOM     15  C   UNL     1      -3.158  -7.287   4.789  0.00  0.00    +0.021 C 
BRANCH  15  16
ATOM     16  C   UNL     1      -3.351  -8.764   5.018  0.00  0.00    -0.049 A 
ATOM     17  C   UNL     1      -4.118  -9.506   4.139  0.00  0.00    +0.003 A 
ATOM     18  C   UNL     1      -4.294 -10.861   4.349  0.00  0.00    +0.000 A 
ATOM     19  C   UNL     1      -3.703 -11.474   5.438  0.00  0.00    +0.000 A 
ATOM     20  C   UNL     1      -2.936 -10.733   6.316  0.00  0.00    +0.000 A 
ATOM     21  C   UNL     1      -2.756  -9.379   6.104  0.00  0.00    +0.003 A 
ENDBRANCH  15  16
ENDBRANCH  11  15
ENDBRANCH   5   7
BRANCH   1  22
ATOM     22  S   UNL     1      -0.047  -0.843   0.454  0.00  0.00    -0.001 S 
ATOM     23  O   UNL     1      -0.510  -0.415   1.727  0.00  0.00    -0.169 OA
ATOM     24  O   UNL     1      -0.674  -0.385  -0.737  0.00  0.00    -0.169 OA
BRANCH  22  26
ATOM     25  C   UNL     1       2.095   0.858   0.458  0.00  0.00    +0.032 C 
ATOM     26  C   UNL     1       1.750  -0.628   0.337  0.00  0.00    +0.130 C 
ATOM     27  C   UNL     1       2.431  -1.404   1.466  0.00  0.00    +0.032 C 
ENDBRANCH  22  26
ENDBRANCH   1  22
BRANCH   4  28
ATOM     28  N   UNL     1      -0.884  -6.717   0.423  0.00  0.00    -0.214 N 
ATOM     29  H   UNL     1      -1.390  -7.140   1.136  0.00  0.00    +0.174 HD
BRANCH  28  30
ATOM     30  S   UNL     1      -0.256  -7.636  -0.803  0.00  0.00    +0.076 S 
ATOM     31  O   UNL     1       1.087  -7.207  -0.985  0.00  0.00    -0.150 OA
ATOM     32  O   UNL     1      -0.592  -8.986  -0.512  0.00  0.00    -0.150 OA
BRANCH  30  33
ATOM     33  C   UNL     1      -1.125  -7.206  -2.274  0.00  0.00    +0.150 A 
ATOM     34  C   UNL     1      -0.452  -6.625  -3.331  0.00  0.00    +0.032 A 
ATOM     35  C   UNL     1      -1.133  -6.287  -4.485  0.00  0.00    +0.002 A 
ATOM     36  C   UNL     1      -2.491  -6.530  -4.585  0.00  0.00    +0.004 A 
ATOM     37  C   UNL     1      -3.169  -7.112  -3.532  0.00  0.00    +0.047 A 
ATOM     38  C   UNL     1      -2.486  -7.457  -2.374  0.00  0.00    +0.143 A 
BRANCH  38  39
ATOM     39  O   UNL     1      -3.150  -8.034  -1.338  0.00  0.00    -0.505 OA
ATOM     40  H   UNL     1      -3.530  -7.401  -0.713  0.00  0.00    +0.292 HD
ENDBRANCH  38  39
ENDBRANCH  30  33
ENDBRANCH  28  30
ENDBRANCH   4  28
TORSDOF 9
