REMARK  Name = ZINC40824776
REMARK  7 active torsions:
REMARK  status: ('A' for Active; 'I' for Inactive)
REMARK    1  A    between atoms: C_1  and  C_2
REMARK    2  A    between atoms: C_5  and  O_26
REMARK    3  A    between atoms: C_6  and  N_8
REMARK    4  A    between atoms: C_9  and  C_11
REMARK    5  A    between atoms: C_12  and  C_25
REMARK    6  A    between atoms: N_20  and  N_21
REMARK    7  A    between atoms: O_26  and  C_27
REMARK                            x       y       z     vdW  Elec       q    Type
REMARK                         _______ _______ _______ _____ _____    ______ ____
ROOT
ATOM      1  C   UNL     1       0.278  -2.873   4.825  0.00  0.00    +0.193 A 
ATOM      2  C   UNL     1       0.379  -2.321   6.072  0.00  0.00    +0.009 A 
ATOM      3  C   UNL     1       0.480  -3.393   6.967  0.00  0.00    +0.042 A 
ATOM      4  C   UNL     1       0.437  -4.553   6.230  0.00  0.00    +0.115 A 
ATOM      5  O   UNL     1       0.308  -4.220   4.947  0.00  0.00    -0.454 OA
ATOM      6  C   UNL     1       0.524  -5.924   6.851  0.00  0.00    +0.075 C 
ATOM      7  C   UNL     1       1.161  -5.814   8.239  0.00  0.00    +0.014 C 
ATOM      8  C   UNL     1       0.425  -4.774   9.091  0.00  0.00    +0.058 C 
ATOM      9  C   UNL     1       0.609  -3.410   8.442  0.00  0.00    +0.072 C 
ATOM     10  N   UNL     1       0.861  -2.340   9.130  0.00  0.00    -0.175 NA
ATOM     11  C   UNL     1       0.383  -0.854   6.414  0.00  0.00    +0.048 C 
ENDROOT
BRANCH  10  12
ATOM     12  N   UNL     1       0.973  -2.415  10.525  0.00  0.00    -0.248 N 
ATOM     13  C   UNL     1       1.238  -1.286  11.252  0.00  0.00    +0.187 C 
ATOM     14  N   UNL     1       1.344  -1.357  12.579  0.00  0.00    -0.370 N 
ATOM     15  N   UNL     1       1.390  -0.115  10.633  0.00  0.00    -0.370 N 
ATOM     16  H   UNL     1       0.862  -3.267  10.975  0.00  0.00    +0.192 HD
ATOM     17  H   UNL     1       1.234  -2.209  13.029  0.00  0.00    +0.159 HD
ATOM     18  H   UNL     1       1.312  -0.064   9.668  0.00  0.00    +0.159 HD
ATOM     19  H   UNL     1       1.578   0.685  11.148  0.00  0.00    +0.159 HD
ATOM     20  H   UNL     1       1.532  -0.557  13.094  0.00  0.00    +0.159 HD
ENDBRANCH  10  12
BRANCH   1  22
ATOM     21  N   UNL     1       0.052  -2.794   2.398  0.00  0.00    -0.276 N 
ATOM     22  C   UNL     1       0.151  -2.130   3.567  0.00  0.00    +0.284 C 
ATOM     23  O   UNL     1       0.134  -0.913   3.578  0.00  0.00    -0.266 OA
ATOM     24  H   UNL     1       0.001  -3.763   2.394  0.00  0.00    +0.155 HD
BRANCH  21  30
ATOM     25  C   UNL     1      -1.307   1.189  -0.143  0.00  0.00    +0.044 C 
ATOM     26  C   UNL     1      -0.626  -0.154  -0.071  0.00  0.00    -0.048 A 
ATOM     27  C   UNL     1      -0.028  -0.685  -1.199  0.00  0.00    +0.007 A 
ATOM     28  C   UNL     1       0.598  -1.916  -1.139  0.00  0.00    +0.048 A 
ATOM     29  C   UNL     1       0.628  -2.621   0.054  0.00  0.00    +0.141 A 
ATOM     30  C   UNL     1       0.025  -2.086   1.190  0.00  0.00    +0.076 A 
ATOM     31  C   UNL     1      -0.597  -0.848   1.124  0.00  0.00    +0.030 A 
BRANCH  29  32
ATOM     32  O   UNL     1       1.243  -3.832   0.114  0.00  0.00    -0.493 OA
ATOM     33  C   UNL     1       1.839  -4.318  -1.090  0.00  0.00    +0.277 C 
ENDBRANCH  29  32
ENDBRANCH  21  30
ENDBRANCH   1  22
TORSDOF 4
