REMARK  Name = ZINC36786486
REMARK  11 active torsions:
REMARK  status: ('A' for Active; 'I' for Inactive)
REMARK    1  A    between atoms: C_1  and  C_2
REMARK    2  A    between atoms: C_2  and  C_4
REMARK    3  A    between atoms: C_2  and  N_7
REMARK    4  A    between atoms: C_4  and  C_5
REMARK    5  A    between atoms: C_4  and  C_6
REMARK    6  A    between atoms: N_7  and  C_8
REMARK    7  A    between atoms: N_7  and  C_9
REMARK    8  A    between atoms: C_9  and  C_11
REMARK    9  A    between atoms: C_9  and  C_12
REMARK   10  A    between atoms: N_14  and  C_15
REMARK   11  A    between atoms: C_16  and  N_23
REMARK                            x       y       z     vdW  Elec       q    Type
REMARK                         _______ _______ _______ _____ _____    ______ ____
ROOT
ATOM      1  C   UNL     1       1.872   1.714  -1.497  0.00  0.00    +0.203 C 
ATOM      2  O   UNL     1       0.862   2.320  -1.788  0.00  0.00    -0.277 OA
ATOM      3  N   UNL     1       2.924   2.370  -0.969  0.00  0.00    -0.284 N 
ATOM      4  H   UNL     1       3.749   1.894  -0.784  0.00  0.00    +0.155 HD
ENDROOT
BRANCH   3   5
ATOM      5  C   UNL     1       2.826   3.741  -0.688  0.00  0.00    +0.073 A 
ATOM      6  C   UNL     1       3.873   4.599  -1.022  0.00  0.00    +0.049 A 
ATOM      7  C   UNL     1       3.771   5.954  -0.742  0.00  0.00    +0.044 A 
ATOM      8  C   UNL     1       2.632   6.450  -0.133  0.00  0.00    +0.044 A 
ATOM      9  C   UNL     1       1.593   5.599   0.198  0.00  0.00    +0.042 A 
ATOM     10  C   UNL     1       1.685   4.247  -0.083  0.00  0.00    +0.065 A 
ATOM     11 CL   UNL     1       0.376   3.184   0.328  0.00  0.00    -0.082 Cl
ATOM     12 CL   UNL     1       2.506   8.146   0.216  0.00  0.00    -0.083 Cl
BRANCH   6  13
ATOM     13  N   UNL     1       5.024   4.095  -1.637  0.00  0.00    -0.356 N 
ATOM     14  H   UNL     1       5.095   3.148  -1.832  0.00  0.00    +0.142 HD
ATOM     15  H   UNL     1       5.752   4.693  -1.868  0.00  0.00    +0.142 HD
ENDBRANCH   6  13
ENDBRANCH   3   5
BRANCH   1  16
ATOM     16  C   UNL     1       1.950   0.226  -1.727  0.00  0.00    +0.016 C 
ATOM     17  C   UNL     1       3.010  -0.071  -2.789  0.00  0.00    -0.004 C 
BRANCH  16  18
ATOM     18  N   UNL     1       0.644  -0.267  -2.186  0.00  0.00    +0.387 N 
ATOM     19  C   UNL     1       0.355   0.280  -3.518  0.00  0.00    -0.095 C 
ATOM     20  H   UNL     1      -0.072   0.025  -1.539  0.00  0.00    -0.081 HD
BRANCH  18  22
ATOM     21  C   UNL     1       0.857  -2.308  -0.849  0.00  0.00    -0.013 C 
ATOM     22  C   UNL     1       0.672  -1.734  -2.255  0.00  0.00    -0.068 C 
BRANCH  22  23
ATOM     23  C   UNL     1      -0.645  -2.242  -2.844  0.00  0.00    -0.031 C 
ATOM     24  C   UNL     1      -0.616  -3.770  -2.916  0.00  0.00    +0.005 C 
ATOM     25  C   UNL     1      -1.807  -1.796  -1.955  0.00  0.00    +0.005 C 
ENDBRANCH  22  23
ENDBRANCH  18  22
ENDBRANCH  16  18
ENDBRANCH   1  16
TORSDOF 6
