REMARK  Name = ZINC03226759
REMARK  7 active torsions:
REMARK  status: ('A' for Active; 'I' for Inactive)
REMARK    1  A    between atoms: C_1  and  C_2
REMARK    2  A    between atoms: C_9  and  C_11
REMARK    3  A    between atoms: C_14  and  N_17
REMARK    4  A    between atoms: C_18  and  C_20
REMARK    5  A    between atoms: C_20  and  O_21
REMARK    6  A    between atoms: O_21  and  C_22
REMARK    7  A    between atoms: C_22  and  C_24
REMARK                            x       y       z     vdW  Elec       q    Type
REMARK                         _______ _______ _______ _____ _____    ______ ____
ROOT
ATOM      1  N   UNL     1      -0.862   3.256   1.472  0.00  0.00    -0.283 N 
ATOM      2  C   UNL     1      -0.581   1.944   1.343  0.00  0.00    +0.255 C 
ATOM      3  O   UNL     1      -0.889   1.168   2.222  0.00  0.00    -0.272 OA
ATOM      4  H   UNL     1      -0.548   3.887   0.805  0.00  0.00    +0.155 HD
ENDROOT
BRANCH   1   8
ATOM      5  C   UNL     1      -3.081   4.600   4.733  0.00  0.00    +0.007 A 
ATOM      6  C   UNL     1      -2.081   5.407   4.187  0.00  0.00    +0.012 A 
ATOM      7  C   UNL     1      -1.349   4.960   3.109  0.00  0.00    +0.024 A 
ATOM      8  C   UNL     1      -1.605   3.706   2.565  0.00  0.00    +0.034 A 
ATOM      9  C   UNL     1      -2.604   2.903   3.103  0.00  0.00    +0.024 A 
ATOM     10  C   UNL     1      -3.336   3.342   4.185  0.00  0.00    +0.012 A 
BRANCH   5  19
ATOM     11  C   UNL     1      -7.306   7.070  10.881  0.00  0.00    +0.044 C 
ATOM     12  C   UNL     1      -6.356   6.870   9.728  0.00  0.00    -0.049 A 
ATOM     13  C   UNL     1      -5.442   7.859   9.393  0.00  0.00    +0.005 A 
ATOM     14  C   UNL     1      -4.571   7.708   8.360  0.00  0.00    +0.029 A 
ATOM     15  C   UNL     1      -4.567   6.525   7.583  0.00  0.00    +0.079 A 
ATOM     16  C   UNL     1      -5.510   5.535   7.949  0.00  0.00    +0.040 A 
ATOM     17  C   UNL     1      -6.386   5.699   8.994  0.00  0.00    +0.020 A 
ATOM     18  S   UNL     1      -5.189   4.250   6.765  0.00  0.00    -0.067 S 
ATOM     19  C   UNL     1      -3.869   5.077   5.889  0.00  0.00    +0.109 A 
ATOM     20  N   UNL     1      -3.772   6.217   6.539  0.00  0.00    -0.239 NA
ENDBRANCH   5  19
ENDBRANCH   1   8
BRANCH   2  21
ATOM     21  C   UNL     1       0.118   1.442   0.105  0.00  0.00    +0.328 C 
BRANCH  21  22
ATOM     22  O   UNL     1       0.306   0.005   0.205  0.00  0.00    -0.455 OA
BRANCH  22  23
ATOM     23  C   UNL     1       0.918  -0.602  -0.824  0.00  0.00    +0.320 C 
ATOM     24  O   UNL     1       1.284   0.045  -1.776  0.00  0.00    -0.250 OA
BRANCH  23  25
ATOM     25  C   UNL     1       1.148  -2.091  -0.790  0.00  0.00    +0.165 C 
ATOM     26  C   UNL     1       1.992  -2.436   0.406  0.00  0.00    +0.013 A 
ATOM     27  C   UNL     1       1.406  -2.484   1.659  0.00  0.00    +0.008 A 
ATOM     28  C   UNL     1       2.164  -2.800   2.770  0.00  0.00    +0.001 A 
ATOM     29  C   UNL     1       3.513  -3.071   2.634  0.00  0.00    +0.004 A 
ATOM     30  C   UNL     1       4.103  -3.026   1.386  0.00  0.00    +0.046 A 
ATOM     31  C   UNL     1       3.343  -2.708   0.266  0.00  0.00    +0.133 A 
ATOM     32  O   UNL     1       3.940  -2.668  -0.949  0.00  0.00    -0.455 OA
ATOM     33  C   UNL     1       3.195  -2.782  -2.075  0.00  0.00    +0.133 A 
ATOM     34  C   UNL     1       1.835  -2.516  -2.060  0.00  0.00    +0.013 A 
ATOM     35  C   UNL     1       1.096  -2.639  -3.223  0.00  0.00    +0.008 A 
ATOM     36  C   UNL     1       1.709  -3.028  -4.399  0.00  0.00    +0.001 A 
ATOM     37  C   UNL     1       3.066  -3.295  -4.417  0.00  0.00    +0.004 A 
ATOM     38  C   UNL     1       3.808  -3.172  -3.260  0.00  0.00    +0.046 A 
ENDBRANCH  23  25
ENDBRANCH  22  23
ENDBRANCH  21  22
ENDBRANCH   2  21
TORSDOF 6
