REMARK  Name = ZINC43515872
REMARK  6 active torsions:
REMARK  status: ('A' for Active; 'I' for Inactive)
REMARK    1  A    between atoms: C_1  and  C_2
REMARK    2  A    between atoms: C_5  and  C_17
REMARK    3  A    between atoms: N_8  and  C_10
REMARK    4  A    between atoms: C_10  and  C_12
REMARK    5  A    between atoms: C_10  and  C_13
REMARK    6  A    between atoms: N_14  and  O_15
REMARK                            x       y       z     vdW  Elec       q    Type
REMARK                         _______ _______ _______ _____ _____    ______ ____
ROOT
ATOM      1  C   UNL     1      -0.019   1.526   0.010  0.00  0.00    +0.005 C 
ATOM      2  C   UNL     1       0.002  -0.004   0.002  0.00  0.00    -0.031 C 
ATOM      3  C   UNL     1      -1.434  -0.535   0.015  0.00  0.00    +0.003 C 
ATOM      4  C   UNL     1      -1.402  -2.064   0.086  0.00  0.00    -0.031 C 
ATOM      5  C   UNL     1      -0.613  -2.496   1.324  0.00  0.00    -0.075 C 
ATOM      6  N   UNL     1       0.758  -1.980   1.239  0.00  0.00    +0.386 N 
ATOM      7  C   UNL     1       0.740  -0.512   1.242  0.00  0.00    -0.075 C 
ATOM      8  C   UNL     1      -2.832  -2.602   0.177  0.00  0.00    +0.005 C 
ATOM      9  H   UNL     1       1.188  -2.307   0.386  0.00  0.00    -0.081 HD
ENDROOT
BRANCH   6  10
ATOM     10  C   UNL     1       1.534  -2.461   2.390  0.00  0.00    -0.004 C 
ATOM     11  C   UNL     1       1.562  -3.991   2.382  0.00  0.00    -0.005 C 
BRANCH  10  12
ATOM     12  C   UNL     1       2.942  -1.932   2.304  0.00  0.00    +0.118 C 
ATOM     13  N   UNL     1       3.649  -1.801   3.377  0.00  0.00    -0.079 NA
ATOM     14  N   UNL     1       3.475  -1.587   1.082  0.00  0.00    -0.345 N 
ATOM     15  H   UNL     1       2.944  -1.686   0.276  0.00  0.00    +0.143 HD
ATOM     16  H   UNL     1       4.381  -1.247   1.027  0.00  0.00    +0.143 HD
BRANCH  13  17
ATOM     17  O   UNL     1       4.973  -1.303   3.297  0.00  0.00    -0.408 OA
ATOM     18  H   UNL     1       5.422  -1.241   4.151  0.00  0.00    +0.328 HD
ENDBRANCH  13  17
ENDBRANCH  10  12
ENDBRANCH   6  10
TORSDOF 3
