REMARK  Name = ZINC47872196
REMARK  12 active torsions:
REMARK  status: ('A' for Active; 'I' for Inactive)
REMARK    1  A    between atoms: C_1  and  C_2
REMARK    2  A    between atoms: C_7  and  N_12
REMARK    3  A    between atoms: C_9  and  C_11
REMARK    4  A    between atoms: N_12  and  C_13
REMARK    5  A    between atoms: C_13  and  N_15
REMARK    6  A    between atoms: N_15  and  N_16
REMARK    7  A    between atoms: C_17  and  C_19
REMARK    8  A    between atoms: C_19  and  C_21
REMARK    9  A    between atoms: C_19  and  N_25
REMARK   10  A    between atoms: C_21  and  C_22
REMARK   11  A    between atoms: C_22  and  S_23
REMARK   12  A    between atoms: S_23  and  C_24
REMARK                            x       y       z     vdW  Elec       q    Type
REMARK                         _______ _______ _______ _____ _____    ______ ____
ROOT
ATOM      1  N   UNL     1      -3.180  -3.451   1.244  0.00  0.00    -0.234 N 
ATOM      2  C   UNL     1      -4.444  -3.917   1.253  0.00  0.00    +0.249 C 
ATOM      3  O   UNL     1      -4.680  -5.023   1.694  0.00  0.00    -0.272 OA
ATOM      4  H   UNL     1      -2.992  -2.567   0.892  0.00  0.00    +0.173 HD
ENDROOT
BRANCH   1   5
ATOM      5  N   UNL     1      -2.137  -4.243   1.742  0.00  0.00    -0.246 N 
ATOM      6  H   UNL     1      -2.325  -5.127   2.094  0.00  0.00    +0.172 HD
BRANCH   5   7
ATOM      7  C   UNL     1      -0.873  -3.776   1.733  0.00  0.00    +0.147 C 
ATOM      8  S   UNL     1       0.401  -4.744   2.342  0.00  0.00    -0.017 S 
BRANCH   7   9
ATOM      9  N   UNL     1      -0.612  -2.548   1.244  0.00  0.00    -0.322 N 
ATOM     10  H   UNL     1      -1.333  -2.000   0.898  0.00  0.00    +0.148 HD
BRANCH   9  16
ATOM     11  C   UNL     1      -0.019   1.526   0.010  0.00  0.00    +0.008 C 
ATOM     12  C   UNL     1       0.002  -0.004   0.002  0.00  0.00    -0.009 C 
ATOM     13  C   UNL     1       0.718  -0.497  -1.257  0.00  0.00    +0.003 C 
ATOM     14  C   UNL     1       0.739  -2.027  -1.265  0.00  0.00    +0.002 C 
ATOM     15  C   UNL     1       1.479  -2.534  -0.026  0.00  0.00    +0.022 C 
ATOM     16  C   UNL     1       0.763  -2.041   1.233  0.00  0.00    +0.075 C 
ATOM     17  C   UNL     1       0.742  -0.511   1.242  0.00  0.00    +0.009 C 
ATOM     18  C   UNL     1       0.026  -0.018   2.500  0.00  0.00    +0.009 C 
ENDBRANCH   9  16
ENDBRANCH   7   9
ENDBRANCH   5   7
ENDBRANCH   1   5
BRANCH   2  19
ATOM     19  C   UNL     1      -5.566  -3.065   0.717  0.00  0.00    +0.163 C 
BRANCH  19  20
ATOM     20  N   UNL     1      -6.843  -3.547   1.250  0.00  0.00    -0.288 N 
ATOM     21  C   UNL     1      -7.245  -4.809   1.001  0.00  0.00    +0.298 C 
ATOM     22  O   UNL     1      -6.547  -5.548   0.333  0.00  0.00    -0.253 OA
ATOM     23  N   UNL     1      -8.419  -5.252   1.491  0.00  0.00    -0.313 N 
ATOM     24  H   UNL     1      -7.399  -2.957   1.783  0.00  0.00    +0.151 HD
ATOM     25  H   UNL     1      -8.975  -4.662   2.024  0.00  0.00    +0.146 HD
ATOM     26  H   UNL     1      -8.708  -6.160   1.312  0.00  0.00    +0.146 HD
ENDBRANCH  19  20
BRANCH  19  27
ATOM     27  C   UNL     1      -5.586  -3.152  -0.810  0.00  0.00    +0.042 C 
BRANCH  27  28
ATOM     28  C   UNL     1      -6.643  -2.192  -1.361  0.00  0.00    +0.071 C 
BRANCH  28  29
ATOM     29  S   UNL     1      -6.667  -2.294  -3.172  0.00  0.00    -0.164 S 
ATOM     30  C   UNL     1      -7.953  -1.112  -3.662  0.00  0.00    +0.084 C 
ENDBRANCH  28  29
ENDBRANCH  27  28
ENDBRANCH  19  27
ENDBRANCH   2  19
TORSDOF 9
