REMARK  Name = ZINC39610967
REMARK  12 active torsions:
REMARK  status: ('A' for Active; 'I' for Inactive)
REMARK    1  A    between atoms: C_1  and  C_2
REMARK    2  A    between atoms: C_2  and  C_3
REMARK    3  A    between atoms: C_2  and  C_4
REMARK    4  A    between atoms: C_4  and  C_6
REMARK    5  A    between atoms: C_4  and  N_13
REMARK    6  A    between atoms: C_14  and  C_16
REMARK    7  A    between atoms: C_16  and  O_17
REMARK    8  A    between atoms: O_17  and  C_18
REMARK    9  A    between atoms: C_21  and  N_24
REMARK   10  A    between atoms: N_24  and  C_25
REMARK   11  A    between atoms: N_24  and  S_26
REMARK   12  A    between atoms: S_26  and  C_29
REMARK                            x       y       z     vdW  Elec       q    Type
REMARK                         _______ _______ _______ _____ _____    ______ ____
ROOT
ATOM      1  C   UNL     1       0.259  -5.853   2.411  0.00  0.00    +0.121 A 
ATOM      2  C   UNL     1       0.399  -6.601   1.251  0.00  0.00    +0.047 A 
ATOM      3  C   UNL     1       0.764  -7.931   1.326  0.00  0.00    +0.028 A 
ATOM      4  C   UNL     1       0.991  -8.519   2.563  0.00  0.00    +0.051 A 
ATOM      5  C   UNL     1       0.850  -7.769   3.724  0.00  0.00    +0.028 A 
ATOM      6  C   UNL     1       0.490  -6.438   3.647  0.00  0.00    +0.047 A 
ENDROOT
BRANCH   4   7
ATOM      7  N   UNL     1       1.361  -9.866   2.641  0.00  0.00    -0.206 N 
ATOM      8  C   UNL     1       2.593 -10.326   1.996  0.00  0.00    +0.157 C 
BRANCH   7   9
ATOM      9  S   UNL     1       0.405 -10.941   3.461  0.00  0.00    +0.074 S 
ATOM     10  O   UNL     1       1.269 -11.953   3.962  0.00  0.00    -0.150 OA
ATOM     11  O   UNL     1      -0.438 -10.172   4.307  0.00  0.00    -0.150 OA
BRANCH   9  12
ATOM     12  C   UNL     1      -0.643 -11.716   2.275  0.00  0.00    +0.109 A 
ATOM     13  C   UNL     1      -1.881 -11.148   1.978  0.00  0.00    +0.029 A 
ATOM     14  C   UNL     1      -2.714 -11.721   1.067  0.00  0.00    +0.010 A 
ATOM     15  C   UNL     1      -2.325 -12.904   0.416  0.00  0.00    -0.018 A 
ATOM     16  C   UNL     1      -3.158 -13.524  -0.530  0.00  0.00    +0.008 A 
ATOM     17  C   UNL     1      -2.748 -14.669  -1.142  0.00  0.00    +0.001 A 
ATOM     18  C   UNL     1      -1.510 -15.237  -0.844  0.00  0.00    +0.001 A 
ATOM     19  C   UNL     1      -0.677 -14.664   0.066  0.00  0.00    +0.008 A 
ATOM     20  C   UNL     1      -1.067 -13.482   0.718  0.00  0.00    -0.016 A 
ATOM     21  C   UNL     1      -0.231 -12.858   1.660  0.00  0.00    +0.037 A 
ENDBRANCH   9  12
ENDBRANCH   7   9
ENDBRANCH   4   7
BRANCH   1  22
ATOM     22  O   UNL     1      -0.101  -4.544   2.336  0.00  0.00    -0.483 OA
BRANCH  22  23
ATOM     23  C   UNL     1      -0.324  -4.006   1.031  0.00  0.00    +0.324 C 
BRANCH  23  25
ATOM     24  N   UNL     1      -0.972  -1.836   0.034  0.00  0.00    -0.301 N 
ATOM     25  C   UNL     1      -0.712  -2.554   1.145  0.00  0.00    +0.251 C 
ATOM     26  O   UNL     1      -0.789  -2.031   2.237  0.00  0.00    -0.272 OA
ATOM     27  H   UNL     1      -0.910  -2.254  -0.839  0.00  0.00    +0.150 HD
BRANCH  24  28
ATOM     28  C   UNL     1      -1.348  -0.425   0.145  0.00  0.00    +0.162 C 
BRANCH  28  29
ATOM     29  C   UNL     1      -2.152  -0.022  -1.064  0.00  0.00    +0.236 C 
ATOM     30  O   UNL     1      -1.875  -0.475  -2.155  0.00  0.00    -0.274 OA
ATOM     31  N   UNL     1      -3.179   0.841  -0.934  0.00  0.00    -0.300 N 
ATOM     32  C   UNL     1      -3.686   1.385   0.334  0.00  0.00    +0.108 C 
ATOM     33  C   UNL     1      -4.878   2.304  -0.006  0.00  0.00    +0.020 C 
ATOM     34  C   UNL     1      -5.333   1.784  -1.395  0.00  0.00    +0.020 C 
ATOM     35  C   UNL     1      -3.976   1.401  -2.041  0.00  0.00    +0.108 C 
ENDBRANCH  28  29
BRANCH  28  37
ATOM     36  C   UNL     1      -0.478   1.904   0.396  0.00  0.00    +0.009 C 
ATOM     37  C   UNL     1      -0.085   0.435   0.228  0.00  0.00    +0.012 C 
ATOM     38  C   UNL     1       0.756  -0.008   1.426  0.00  0.00    +0.009 C 
ENDBRANCH  28  37
ENDBRANCH  24  28
ENDBRANCH  23  25
ENDBRANCH  22  23
ENDBRANCH   1  22
TORSDOF 9
