REMARK  Name = ZINC64228316
REMARK  8 active torsions:
REMARK  status: ('A' for Active; 'I' for Inactive)
REMARK    1  A    between atoms: C_1  and  C_2
REMARK    2  A    between atoms: C_2  and  C_3
REMARK    3  A    between atoms: C_6  and  N_9
REMARK    4  A    between atoms: C_10  and  C_12
REMARK    5  A    between atoms: C_12  and  C_14
REMARK    6  A    between atoms: C_12  and  N_24
REMARK    7  A    between atoms: C_14  and  C_15
REMARK    8  A    between atoms: C_25  and  C_27
REMARK                            x       y       z     vdW  Elec       q    Type
REMARK                         _______ _______ _______ _____ _____    ______ ____
ROOT
ATOM      1  C   UNL     1       4.834  -2.372  -6.014  0.00  0.00    +0.163 C 
ENDROOT
BRANCH   1   3
ATOM      2  N   UNL     1       2.982  -1.982  -4.421  0.00  0.00    -0.284 N 
ATOM      3  C   UNL     1       4.311  -2.039  -4.640  0.00  0.00    +0.238 C 
ATOM      4  O   UNL     1       5.085  -1.824  -3.732  0.00  0.00    -0.273 OA
ATOM      5  H   UNL     1       2.363  -2.223  -5.128  0.00  0.00    +0.155 HD
BRANCH   2   9
ATOM      6  C   UNL     1       1.535  -0.766  -0.708  0.00  0.00    -0.048 A 
ATOM      7  C   UNL     1       2.699  -1.508  -0.786  0.00  0.00    +0.005 A 
ATOM      8  C   UNL     1       3.182  -1.913  -2.015  0.00  0.00    +0.023 A 
ATOM      9  C   UNL     1       2.496  -1.574  -3.174  0.00  0.00    +0.033 A 
ATOM     10  C   UNL     1       1.326  -0.829  -3.093  0.00  0.00    +0.023 A 
ATOM     11  C   UNL     1       0.847  -0.432  -1.860  0.00  0.00    +0.005 A 
BRANCH   6  13
ATOM     12  C   UNL     1       0.071  -1.398   1.191  0.00  0.00    +0.009 C 
ATOM     13  C   UNL     1       1.011  -0.327   0.635  0.00  0.00    +0.032 C 
ENDBRANCH   6  13
ENDBRANCH   2   9
ENDBRANCH   1   3
BRANCH   1  14
ATOM     14  N   UNL     1       6.299  -2.372  -5.992  0.00  0.00    -0.302 N 
ATOM     15  C   UNL     1       6.985  -3.168  -6.835  0.00  0.00    +0.231 C 
ATOM     16  O   UNL     1       6.391  -3.884  -7.612  0.00  0.00    -0.274 OA
ATOM     17  H   UNL     1       6.774  -1.800  -5.370  0.00  0.00    +0.150 HD
BRANCH  15  18
ATOM     18  C   UNL     1       8.492  -3.168  -6.812  0.00  0.00    +0.145 C 
ATOM     19  C   UNL     1       8.988  -4.043  -5.660  0.00  0.00    +0.063 C 
ATOM     20  C   UNL     1      10.477  -4.246  -5.773  0.00  0.00    -0.041 A 
ATOM     21  C   UNL     1      11.169  -4.697  -4.659  0.00  0.00    +0.004 A 
ATOM     22  C   UNL     1      12.533  -4.899  -4.720  0.00  0.00    +0.000 A 
ATOM     23  C   UNL     1      13.213  -4.652  -5.899  0.00  0.00    +0.000 A 
ATOM     24  C   UNL     1      12.525  -4.203  -7.007  0.00  0.00    +0.005 A 
ATOM     25  C   UNL     1      11.155  -3.996  -6.947  0.00  0.00    -0.030 A 
ATOM     26  C   UNL     1      10.450  -3.494  -8.180  0.00  0.00    +0.117 C 
ATOM     27  N   UNL     1       9.006  -3.719  -8.076  0.00  0.00    -0.301 NA
ATOM     28  H   UNL     1       8.789  -4.701  -8.158  0.00  0.00    +0.123 HD
ENDBRANCH  15  18
ENDBRANCH   1  14
BRANCH   1  29
ATOM     29  C   UNL     1       4.339  -1.326  -7.015  0.00  0.00    +0.065 C 
BRANCH  29  30
ATOM     30  C   UNL     1       4.903   0.023  -6.652  0.00  0.00    -0.039 C 
ATOM     31  C   UNL     1       6.024   0.597  -7.147  0.00  0.00    -0.001 A 
ATOM     32  C   UNL     1       7.015   0.152  -8.134  0.00  0.00    +0.010 A 
ATOM     33  C   UNL     1       8.055   0.965  -8.431  0.00  0.00    +0.001 A 
ATOM     34  C   UNL     1       8.209   2.217  -7.821  0.00  0.00    +0.002 A 
ATOM     35  C   UNL     1       7.340   2.694  -6.905  0.00  0.00    +0.026 A 
ATOM     36  C   UNL     1       6.209   1.924  -6.518  0.00  0.00    +0.043 A 
ATOM     37  N   UNL     1       5.241   2.162  -5.666  0.00  0.00    -0.380 N 
ATOM     38  C   UNL     1       4.328   1.013  -5.664  0.00  0.00    +0.144 C 
ATOM     39  H   UNL     1       5.143   2.964  -5.130  0.00  0.00    +0.160 HD
ENDBRANCH  29  30
ENDBRANCH   1  29
TORSDOF 7
