REMARK  Name = ZINC04974279
REMARK  9 active torsions:
REMARK  status: ('A' for Active; 'I' for Inactive)
REMARK    1  A    between atoms: C_1  and  C_2
REMARK    2  A    between atoms: C_4  and  O_37
REMARK    3  A    between atoms: C_10  and  O_21
REMARK    4  A    between atoms: C_13  and  C_15
REMARK    5  A    between atoms: C_24  and  O_36
REMARK    6  A    between atoms: C_25  and  C_34
REMARK    7  A    between atoms: C_26  and  O_33
REMARK    8  A    between atoms: C_29  and  O_32
REMARK    9  A    between atoms: C_34  and  O_35
REMARK                            x       y       z     vdW  Elec       q    Type
REMARK                         _______ _______ _______ _____ _____    ______ ____
ROOT
ATOM      1  C   UNL     1      -2.435   0.652   4.902  0.00  0.00    +0.015 C 
ATOM      2  C   UNL     1      -3.373   1.817   4.579  0.00  0.00    +0.006 C 
ATOM      3  C   UNL     1      -4.440   1.402   3.601  0.00  0.00    +0.041 C 
ATOM      4  C   UNL     1      -3.986   1.618   2.148  0.00  0.00    +0.119 C 
ATOM      5  C   UNL     1      -2.474   1.644   2.024  0.00  0.00    +0.037 C 
ATOM      6  C   UNL     1      -1.884   2.824   2.793  0.00  0.00    +0.028 C 
ATOM      7  C   UNL     1      -2.623   3.068   4.079  0.00  0.00    +0.075 C 
ATOM      8  C   UNL     1      -1.769   3.427   5.307  0.00  0.00    +0.036 C 
ATOM      9  C   UNL     1      -2.757   3.203   6.486  0.00  0.00    +0.011 C 
ATOM     10  C   UNL     1      -3.914   2.336   5.930  0.00  0.00    +0.027 C 
ATOM     11  C   UNL     1      -0.382   2.669   2.977  0.00  0.00    +0.009 C 
ATOM     12  C   UNL     1       0.247   2.038   1.727  0.00  0.00    +0.036 C 
ATOM     13  C   UNL     1      -0.614   2.360   0.517  0.00  0.00    +0.079 C 
ATOM     14  C   UNL     1      -1.948   1.614   0.597  0.00  0.00    +0.054 C 
ATOM     15  C   UNL     1      -2.866   2.166  -0.481  0.00  0.00    +0.128 C 
ATOM     16  C   UNL     1      -2.227   1.920  -1.859  0.00  0.00    +0.063 C 
ATOM     17  C   UNL     1      -0.827   2.511  -1.950  0.00  0.00    +0.120 C 
ATOM     18  C   UNL     1       0.075   2.036  -0.806  0.00  0.00    +0.066 C 
ENDROOT
BRANCH  10  19
ATOM     19  C   UNL     1      -4.189   1.173   6.848  0.00  0.00    -0.022 C 
ATOM     20  C   UNL     1      -3.513   0.856   7.949  0.00  0.00    +0.094 C 
ATOM     21  C   UNL     1      -4.098  -0.344   8.554  0.00  0.00    +0.332 C 
ATOM     22  O   UNL     1      -3.699  -0.878   9.570  0.00  0.00    -0.246 OA
ATOM     23  O   UNL     1      -5.142  -0.767   7.818  0.00  0.00    -0.457 OA
ATOM     24  C   UNL     1      -5.288   0.148   6.696  0.00  0.00    +0.264 C 
ENDBRANCH  10  19
BRANCH   7  25
ATOM     25  O   UNL     1      -3.570   4.141   3.876  0.00  0.00    -0.388 OA
ATOM     26  H   UNL     1      -3.171   4.963   3.560  0.00  0.00    +0.210 HD
ENDBRANCH   7  25
BRANCH  17  27
ATOM     27  O   UNL     1      -0.236   2.129  -3.197  0.00  0.00    -0.392 OA
ATOM     28  H   UNL     1      -0.748   2.395  -3.972  0.00  0.00    +0.210 HD
ENDBRANCH  17  27
BRANCH  15  29
ATOM     29  O   UNL     1      -4.126   1.479  -0.473  0.00  0.00    -0.391 OA
ATOM     30  H   UNL     1      -4.742   1.780  -1.155  0.00  0.00    +0.210 HD
ENDBRANCH  15  29
BRANCH  13  31
ATOM     31  O   UNL     1      -0.863   3.775   0.501  0.00  0.00    -0.388 OA
ATOM     32  H   UNL     1      -0.064   4.314   0.421  0.00  0.00    +0.210 HD
ENDBRANCH  13  31
BRANCH   4  33
ATOM     33  O   UNL     1      -4.542   2.851   1.676  0.00  0.00    -0.391 OA
ATOM     34  H   UNL     1      -5.507   2.894   1.730  0.00  0.00    +0.210 HD
ENDBRANCH   4  33
BRANCH  14  35
ATOM     35  C   UNL     1      -1.702   0.122   0.289  0.00  0.00    +0.168 C 
BRANCH  35  36
ATOM     36  O   UNL     1      -2.930  -0.598   0.407  0.00  0.00    -0.394 OA
ATOM     37  H   UNL     1      -2.850  -1.544   0.226  0.00  0.00    +0.209 HD
ENDBRANCH  35  36
ENDBRANCH  14  35
TORSDOF 8
