REMARK  Name = ZINC64479954
REMARK  5 active torsions:
REMARK  status: ('A' for Active; 'I' for Inactive)
REMARK    1  A    between atoms: C_1  and  C_2
REMARK    2  A    between atoms: C_2  and  C_3
REMARK    3  A    between atoms: C_3  and  C_4
REMARK    4  A    between atoms: C_4  and  N_5
REMARK    5  A    between atoms: C_8  and  C_14
REMARK                            x       y       z     vdW  Elec       q    Type
REMARK                         _______ _______ _______ _____ _____    ______ ____
ROOT
ATOM      1  C   UNL     1       0.615  -3.429  -6.024  0.00  0.00    -0.003 C 
ATOM      2  C   UNL     1      -0.374  -4.576  -5.808  0.00  0.00    +0.097 C 
ATOM      3  C   UNL     1      -1.206  -4.665  -7.083  0.00  0.00    -0.041 C 
ATOM      4  C   UNL     1      -1.122  -5.921  -7.499  0.00  0.00    -0.001 A 
ATOM      5  C   UNL     1      -1.772  -6.633  -8.610  0.00  0.00    +0.010 A 
ATOM      6  C   UNL     1      -1.439  -7.942  -8.760  0.00  0.00    +0.001 A 
ATOM      7  C   UNL     1      -0.535  -8.607  -7.926  0.00  0.00    +0.002 A 
ATOM      8  C   UNL     1       0.104  -8.032  -6.876  0.00  0.00    +0.026 A 
ATOM      9  C   UNL     1      -0.168  -6.658  -6.614  0.00  0.00    +0.043 A 
ATOM     10  N   UNL     1       0.285  -5.872  -5.657  0.00  0.00    -0.379 N 
ATOM     11  C   UNL     1      -1.852  -3.443  -7.689  0.00  0.00    +0.014 C 
ATOM     12  C   UNL     1      -0.765  -2.353  -7.714  0.00  0.00    -0.077 C 
ATOM     13  N   UNL     1      -0.144  -2.224  -6.394  0.00  0.00    +0.386 N 
ATOM     14  H   UNL     1      -0.865  -2.067  -5.706  0.00  0.00    -0.085 HD
ATOM     15  H   UNL     1       0.939  -6.100  -4.978  0.00  0.00    +0.160 HD
ATOM     16  H   UNL     1       0.481  -1.432  -6.401  0.00  0.00    -0.085 HD
ENDROOT
BRANCH   1  20
ATOM     17  N   UNL     1       1.425  -2.500  -2.470  0.00  0.00    -0.288 N 
ATOM     18  C   UNL     1       0.720  -2.721  -3.598  0.00  0.00    +0.260 A 
ATOM     19  O   UNL     1      -0.484  -2.529  -3.617  0.00  0.00    -0.267 OA
ATOM     20  C   UNL     1       1.383  -3.174  -4.752  0.00  0.00    +0.070 A 
ATOM     21  C   UNL     1       2.730  -3.381  -4.705  0.00  0.00    +0.257 A 
ATOM     22  N   UNL     1       3.408  -3.143  -3.537  0.00  0.00    -0.302 N 
ATOM     23  C   UNL     1       2.754  -2.704  -2.446  0.00  0.00    +0.163 A 
ATOM     24  S   UNL     1       3.626  -2.409  -1.002  0.00  0.00    -0.013 S 
ATOM     25  O   UNL     1       3.390  -3.817  -5.798  0.00  0.00    -0.267 OA
ATOM     26  H   UNL     1       4.366  -3.289  -3.498  0.00  0.00    +0.171 HD
BRANCH  17  27
ATOM     27  C   UNL     1       0.739  -2.027  -1.265  0.00  0.00    +0.127 C 
BRANCH  27  28
ATOM     28  C   UNL     1       0.718  -0.497  -1.257  0.00  0.00    +0.021 C 
BRANCH  28  30
ATOM     29  C   UNL     1      -0.019   1.526   0.010  0.00  0.00    +0.004 C 
ATOM     30  C   UNL     1       0.002  -0.004   0.002  0.00  0.00    -0.002 C 
ENDBRANCH  28  30
ENDBRANCH  27  28
ENDBRANCH  17  27
ENDBRANCH   1  20
TORSDOF 4
