REMARK  Name = ZINC49184972
REMARK  9 active torsions:
REMARK  status: ('A' for Active; 'I' for Inactive)
REMARK    1  A    between atoms: C_3  and  O_22
REMARK    2  A    between atoms: C_4  and  O_21
REMARK    3  A    between atoms: C_6  and  C_7
REMARK    4  A    between atoms: C_7  and  C_8
REMARK    5  A    between atoms: C_8  and  C_10
REMARK    6  A    between atoms: C_8  and  N_20
REMARK    7  A    between atoms: N_12  and  C_13
REMARK    8  A    between atoms: C_13  and  C_14
REMARK    9  A    between atoms: C_14  and  C_15
REMARK                            x       y       z     vdW  Elec       q    Type
REMARK                         _______ _______ _______ _____ _____    ______ ____
ROOT
ATOM      1  C   UNL     1      -1.746  -1.026  -1.429  0.00  0.00    +0.017 C 
ENDROOT
BRANCH   1   2
ATOM      2  C   UNL     1      -2.974  -1.900  -1.424  0.00  0.00    +0.199 C 
ATOM      3  O   UNL     1      -4.072  -1.403  -1.564  0.00  0.00    -0.278 OA
ATOM      4  N   UNL     1      -2.852  -3.232  -1.264  0.00  0.00    -0.316 N 
ATOM      5  H   UNL     1      -1.974  -3.629  -1.152  0.00  0.00    +0.149 HD
BRANCH   4   6
ATOM      6  C   UNL     1      -4.046  -4.081  -1.259  0.00  0.00    +0.109 C 
BRANCH   6   7
ATOM      7  C   UNL     1      -3.633  -5.541  -1.062  0.00  0.00    +0.054 C 
BRANCH   7   8
ATOM      8  C   UNL     1      -4.861  -6.415  -1.057  0.00  0.00    -0.039 A 
ATOM      9  C   UNL     1      -5.526  -6.684   0.125  0.00  0.00    +0.011 A 
ATOM     10  C   UNL     1      -6.627  -7.473   0.095  0.00  0.00    +0.045 A 
ATOM     11  S   UNL     1      -6.754  -7.864  -1.643  0.00  0.00    -0.105 S 
ATOM     12  C   UNL     1      -5.334  -6.944  -2.212  0.00  0.00    +0.048 A 
ENDBRANCH   7   8
ENDBRANCH   6   7
ENDBRANCH   4   6
ENDBRANCH   1   2
BRANCH   1  13
ATOM     13  N   UNL     1      -2.059   0.255  -2.076  0.00  0.00    +0.386 N 
ATOM     14  H   UNL     1      -1.237   0.840  -2.080  0.00  0.00    -0.089 HD
ATOM     15  H   UNL     1      -2.357   0.088  -3.026  0.00  0.00    -0.089 HD
ATOM     16  H   UNL     1      -2.798   0.717  -1.568  0.00  0.00    -0.089 HD
ENDBRANCH   1  13
BRANCH   1  17
ATOM     17  C   UNL     1      -1.294  -0.774   0.010  0.00  0.00    +0.028 C 
BRANCH  17  23
ATOM     18  C   UNL     1      -0.017   1.378   0.010  0.00  0.00    +0.007 A 
ATOM     19  C   UNL     1       1.170   2.089   0.002  0.00  0.00    +0.049 A 
ATOM     20  C   UNL     1       2.380   1.415  -0.013  0.00  0.00    +0.158 A 
ATOM     21  C   UNL     1       2.399   0.024  -0.021  0.00  0.00    +0.158 A 
ATOM     22  C   UNL     1       1.207  -0.682  -0.013  0.00  0.00    +0.052 A 
ATOM     23  C   UNL     1       0.002  -0.004   0.002  0.00  0.00    -0.045 A 
BRANCH  21  24
ATOM     24  O   UNL     1       3.585  -0.642  -0.036  0.00  0.00    -0.503 OA
ATOM     25  H   UNL     1       3.937  -0.839   0.843  0.00  0.00    +0.292 HD
ENDBRANCH  21  24
BRANCH  20  26
ATOM     26  O   UNL     1       3.548   2.113  -0.021  0.00  0.00    -0.503 OA
ATOM     27  H   UNL     1       3.894   2.310   0.860  0.00  0.00    +0.292 HD
ENDBRANCH  20  26
ENDBRANCH  17  23
ENDBRANCH   1  17
TORSDOF 9
