REMARK  Name = ZINC38850188
REMARK  12 active torsions:
REMARK  status: ('A' for Active; 'I' for Inactive)
REMARK    1  A    between atoms: C_1  and  N_2
REMARK    2  A    between atoms: N_2  and  C_3
REMARK    3  A    between atoms: N_2  and  C_4
REMARK    4  A    between atoms: C_4  and  C_5
REMARK    5  A    between atoms: C_5  and  N_6
REMARK    6  A    between atoms: C_10  and  O_17
REMARK    7  A    between atoms: O_17  and  C_18
REMARK    8  A    between atoms: C_19  and  C_21
REMARK    9  A    between atoms: C_24  and  S_27
REMARK   10  A    between atoms: S_27  and  N_30
REMARK   11  A    between atoms: N_30  and  C_31
REMARK   12  A    between atoms: N_30  and  C_32
REMARK                            x       y       z     vdW  Elec       q    Type
REMARK                         _______ _______ _______ _____ _____    ______ ____
ROOT
ATOM      1  N   UNL     1       0.418  -0.638   3.735  0.00  0.00    -0.248 N 
ATOM      2  C   UNL     1       1.304   0.125   4.478  0.00  0.00    +0.168 A 
ATOM      3  N   UNL     1       2.093  -0.249   5.457  0.00  0.00    -0.221 NA
ATOM      4  C   UNL     1       2.913   0.613   6.099  0.00  0.00    +0.123 A 
ATOM      5  C   UNL     1       3.808   0.340   7.165  0.00  0.00    +0.147 A 
ATOM      6  C   UNL     1       4.577   1.342   7.708  0.00  0.00    +0.049 A 
ATOM      7  C   UNL     1       4.506   2.645   7.237  0.00  0.00    +0.025 A 
ATOM      8  C   UNL     1       3.643   2.945   6.199  0.00  0.00    +0.057 A 
ATOM      9  C   UNL     1       2.869   1.950   5.648  0.00  0.00    +0.063 A 
ATOM     10  S   UNL     1       1.667   1.870   4.342  0.00  0.00    -0.050 S 
ATOM     11 CL   UNL     1       3.535   4.568   5.594  0.00  0.00    -0.082 Cl
ATOM     12  C   UNL     1       0.284  -1.954   3.992  0.00  0.00    +0.252 C 
ATOM     13  O   UNL     1       0.887  -2.457   4.920  0.00  0.00    -0.270 OA
ENDROOT
BRANCH  12  14
ATOM     14  C   UNL     1      -0.596  -2.786   3.145  0.00  0.00    +0.037 A 
ATOM     15  C   UNL     1      -0.708  -2.523   1.779  0.00  0.00    +0.015 A 
ATOM     16  C   UNL     1      -1.532  -3.303   0.994  0.00  0.00    +0.029 A 
ATOM     17  C   UNL     1      -2.247  -4.345   1.559  0.00  0.00    +0.106 A 
ATOM     18  C   UNL     1      -2.140  -4.612   2.912  0.00  0.00    +0.029 A 
ATOM     19  C   UNL     1      -1.315  -3.843   3.707  0.00  0.00    +0.015 A 
BRANCH  17  20
ATOM     20  S   UNL     1      -3.297  -5.336   0.549  0.00  0.00    +0.061 S 
ATOM     21  O   UNL     1      -4.274  -5.901   1.412  0.00  0.00    -0.153 OA
ATOM     22  O   UNL     1      -3.643  -4.543  -0.578  0.00  0.00    -0.153 OA
BRANCH  20  23
ATOM     23  N   UNL     1      -2.384  -6.594  -0.020  0.00  0.00    -0.177 NA
ATOM     24  C   UNL     1      -2.301  -7.843   0.742  0.00  0.00    +0.132 C 
BRANCH  23  25
ATOM     25  C   UNL     1      -1.659  -6.459  -1.286  0.00  0.00    +0.080 C 
ATOM     26  C   UNL     1      -1.000  -7.715  -1.860  0.00  0.00    +0.022 C 
ATOM     27  C   UNL     1      -0.136  -6.610  -1.247  0.00  0.00    +0.022 C 
ENDBRANCH  23  25
ENDBRANCH  20  23
ENDBRANCH  17  20
ENDBRANCH  12  14
BRANCH   5  28
ATOM     28  O   UNL     1       3.907  -0.925   7.654  0.00  0.00    -0.493 OA
ATOM     29  C   UNL     1       4.827  -1.135   8.728  0.00  0.00    +0.277 C 
ENDBRANCH   5  28
BRANCH   1  30
ATOM     30  C   UNL     1      -0.371  -0.015   2.670  0.00  0.00    +0.097 C 
BRANCH  30  31
ATOM     31  C   UNL     1       0.529   0.268   1.466  0.00  0.00    -0.060 C 
BRANCH  31  33
ATOM     32  C   UNL     1      -0.882   2.051   0.702  0.00  0.00    -0.097 C 
ATOM     33  N   UNL     1      -0.288   0.754   0.347  0.00  0.00    +0.377 N 
ATOM     34  C   UNL     1       0.556   0.912  -0.844  0.00  0.00    -0.097 C 
ATOM     35  H   UNL     1      -1.023   0.090   0.153  0.00  0.00    -0.083 HD
ENDBRANCH  31  33
ENDBRANCH  30  31
ENDBRANCH   1  30
TORSDOF 8
