REMARK  Name = ZINC34898308
REMARK  17 active torsions:
REMARK  status: ('A' for Active; 'I' for Inactive)
REMARK    1  A    between atoms: C_1  and  C_2
REMARK    2  A    between atoms: C_2  and  C_4
REMARK    3  A    between atoms: C_2  and  O_37
REMARK    4  A    between atoms: C_4  and  C_6
REMARK    5  A    between atoms: C_4  and  O_36
REMARK    6  A    between atoms: C_6  and  C_8
REMARK    7  A    between atoms: C_6  and  O_35
REMARK    8  A    between atoms: C_8  and  O_10
REMARK    9  A    between atoms: C_8  and  O_14
REMARK   10  A    between atoms: O_10  and  C_11
REMARK   11  A    between atoms: C_11  and  C_12
REMARK   12  A    between atoms: C_12  and  O_13
REMARK   13  A    between atoms: O_14  and  C_15
REMARK   14  A    between atoms: C_18  and  C_21
REMARK   15  A    between atoms: C_26  and  O_33
REMARK   16  A    between atoms: C_28  and  O_32
REMARK   17  A    between atoms: O_33  and  C_34
REMARK                            x       y       z     vdW  Elec       q    Type
REMARK                         _______ _______ _______ _____ _____    ______ ____
ROOT
ATOM      1  C   UNL     1       2.368  -4.521   3.212  0.00  0.00    +0.124 A 
ATOM      2  C   UNL     1       2.760  -3.900   4.389  0.00  0.00    +0.046 A 
ATOM      3  C   UNL     1       3.371  -4.633   5.386  0.00  0.00    +0.012 A 
ATOM      4  C   UNL     1       3.594  -5.997   5.210  0.00  0.00    -0.011 A 
ATOM      5  C   UNL     1       3.198  -6.618   4.026  0.00  0.00    +0.012 A 
ATOM      6  C   UNL     1       2.583  -5.881   3.035  0.00  0.00    +0.046 A 
ENDROOT
BRANCH   4   7
ATOM      7  C   UNL     1       4.251  -6.787   6.279  0.00  0.00    +0.064 A 
ATOM      8  C   UNL     1       3.649  -6.968   7.484  0.00  0.00    +0.208 A 
ATOM      9  O   UNL     1       4.200  -7.684   8.466  0.00  0.00    -0.462 OA
ATOM     10  C   UNL     1       5.506  -8.017   8.454  0.00  0.00    +0.145 A 
ATOM     11  C   UNL     1       6.129  -8.472   9.608  0.00  0.00    +0.092 A 
ATOM     12  C   UNL     1       7.470  -8.820   9.582  0.00  0.00    +0.127 A 
ATOM     13  C   UNL     1       8.208  -8.723   8.408  0.00  0.00    +0.092 A 
ATOM     14  C   UNL     1       7.608  -8.269   7.248  0.00  0.00    +0.135 A 
ATOM     15  C   UNL     1       6.255  -7.908   7.269  0.00  0.00    +0.106 A 
ATOM     16  C   UNL     1       5.574  -7.405   6.063  0.00  0.00    +0.204 A 
ATOM     17  O   UNL     1       6.074  -7.489   4.954  0.00  0.00    -0.286 OA
BRANCH  14  18
ATOM     18  O   UNL     1       8.323  -8.175   6.099  0.00  0.00    -0.506 OA
ATOM     19  H   UNL     1       8.307  -8.976   5.558  0.00  0.00    +0.292 HD
ENDBRANCH  14  18
BRANCH  12  20
ATOM     20  O   UNL     1       8.070  -9.261  10.717  0.00  0.00    -0.495 OA
ATOM     21  C   UNL     1       9.454  -9.605  10.628  0.00  0.00    +0.277 C 
ENDBRANCH  12  20
ENDBRANCH   4   7
BRANCH   1  22
ATOM     22  O   UNL     1       1.766  -3.797   2.231  0.00  0.00    -0.461 OA
BRANCH  22  23
ATOM     23  C   UNL     1       1.446  -2.438   2.533  0.00  0.00    +0.339 C 
BRANCH  23  24
ATOM     24  C   UNL     1       1.342  -1.638   1.232  0.00  0.00    +0.214 C 
BRANCH  24  25
ATOM     25  O   UNL     1       0.241  -2.123   0.461  0.00  0.00    -0.383 OA
ATOM     26  H   UNL     1      -0.614  -2.053   0.908  0.00  0.00    +0.210 HD
ENDBRANCH  24  25
BRANCH  24  27
ATOM     27  C   UNL     1       1.123  -0.159   1.559  0.00  0.00    +0.177 C 
BRANCH  27  29
ATOM     28  C   UNL     1       0.553   2.075   0.596  0.00  0.00    +0.040 C 
ATOM     29  C   UNL     1       0.895   0.621   0.263  0.00  0.00    +0.143 C 
BRANCH  29  30
ATOM     30  O   UNL     1      -0.185   0.032  -0.464  0.00  0.00    -0.389 OA
ATOM     31  H   UNL     1      -1.025   0.025   0.017  0.00  0.00    +0.210 HD
ENDBRANCH  29  30
ENDBRANCH  27  29
BRANCH  27  32
ATOM     32  O   UNL     1      -0.020  -0.022   2.405  0.00  0.00    -0.386 OA
ATOM     33  H   UNL     1      -0.841  -0.353   2.014  0.00  0.00    +0.210 HD
ENDBRANCH  27  32
ENDBRANCH  24  27
ENDBRANCH  23  24
BRANCH  23  34
ATOM     34  O   UNL     1       0.198  -2.384   3.226  0.00  0.00    -0.337 OA
BRANCH  34  35
ATOM     35  C   UNL     1       0.248  -2.904   4.556  0.00  0.00    +0.192 C 
BRANCH  35  36
ATOM     36  C   UNL     1      -1.093  -2.659   5.251  0.00  0.00    +0.184 C 
BRANCH  36  37
ATOM     37  O   UNL     1      -2.115  -3.408   4.591  0.00  0.00    -0.393 OA
ATOM     38  H   UNL     1      -2.994  -3.301   4.979  0.00  0.00    +0.209 HD
ENDBRANCH  36  37
ENDBRANCH  35  36
ENDBRANCH  34  35
ENDBRANCH  23  34
ENDBRANCH  22  23
ENDBRANCH   1  22
TORSDOF 15
