REMARK  Name = ZINC02725178
REMARK  7 active torsions:
REMARK  status: ('A' for Active; 'I' for Inactive)
REMARK    1  A    between atoms: C_1  and  N_2
REMARK    2  A    between atoms: C_3  and  C_5
REMARK    3  A    between atoms: C_9  and  N_10
REMARK    4  A    between atoms: C_11  and  C_13
REMARK    5  A    between atoms: C_16  and  S_19
REMARK    6  A    between atoms: S_19  and  N_22
REMARK    7  A    between atoms: N_33  and  C_36
REMARK                            x       y       z     vdW  Elec       q    Type
REMARK                         _______ _______ _______ _____ _____    ______ ____
ROOT
ATOM      1  N   UNL     1       2.768  -2.339   0.191  0.00  0.00    -0.275 N 
ATOM      2  C   UNL     1       3.686  -3.185   0.698  0.00  0.00    +0.249 C 
ATOM      3  O   UNL     1       3.529  -4.386   0.594  0.00  0.00    -0.270 OA
ATOM      4  H   UNL     1       2.893  -1.381   0.274  0.00  0.00    +0.156 HD
ENDROOT
BRANCH   1   9
ATOM      5  C   UNL     1       0.605  -2.124  -1.027  0.00  0.00    +0.068 A 
ATOM      6  C   UNL     1      -0.460  -2.891  -1.644  0.00  0.00    -0.027 A 
ATOM      7  C   UNL     1      -0.296  -4.231  -1.567  0.00  0.00    -0.021 A 
ATOM      8  S   UNL     1       1.229  -4.446  -0.701  0.00  0.00    -0.079 S 
ATOM      9  C   UNL     1       1.645  -2.838  -0.449  0.00  0.00    +0.085 A 
ATOM     10  C   UNL     1      -1.231  -5.267  -2.107  0.00  0.00    -0.036 C 
ATOM     11  N   UNL     1      -2.525  -4.620  -2.393  0.00  0.00    +0.381 N 
ATOM     12  C   UNL     1      -2.305  -3.412  -3.200  0.00  0.00    -0.074 C 
ATOM     13  C   UNL     1      -1.682  -2.308  -2.339  0.00  0.00    +0.018 C 
ATOM     14  C   UNL     1      -3.385  -5.552  -3.133  0.00  0.00    -0.096 C 
ATOM     15  H   UNL     1      -2.973  -4.367  -1.525  0.00  0.00    -0.082 HD
BRANCH   5  18
ATOM     16  C   UNL     1      -0.016   1.467   0.010  0.00  0.00    +0.128 C 
ATOM     17  N   UNL     1       0.003   0.002   0.002  0.00  0.00    -0.314 N 
ATOM     18  C   UNL     1       0.586  -0.658  -1.018  0.00  0.00    +0.246 C 
ATOM     19  O   UNL     1       1.096  -0.038  -1.933  0.00  0.00    -0.270 OA
ATOM     20  H   UNL     1      -0.404  -0.492   0.730  0.00  0.00    +0.149 HD
ENDBRANCH   5  18
ENDBRANCH   1   9
BRANCH   2  21
ATOM     21  C   UNL     1       4.884  -2.653   1.381  0.00  0.00    +0.037 A 
ATOM     22  C   UNL     1       5.064  -1.274   1.507  0.00  0.00    +0.015 A 
ATOM     23  C   UNL     1       6.184  -0.784   2.146  0.00  0.00    +0.029 A 
ATOM     24  C   UNL     1       7.128  -1.656   2.660  0.00  0.00    +0.109 A 
ATOM     25  C   UNL     1       6.955  -3.023   2.538  0.00  0.00    +0.029 A 
ATOM     26  C   UNL     1       5.837  -3.527   1.907  0.00  0.00    +0.015 A 
BRANCH  24  27
ATOM     27  S   UNL     1       8.556  -1.021   3.474  0.00  0.00    +0.075 S 
ATOM     28  O   UNL     1       9.555  -2.028   3.385  0.00  0.00    -0.150 OA
ATOM     29  O   UNL     1       8.755   0.295   2.977  0.00  0.00    -0.150 OA
BRANCH  27  30
ATOM     30  N   UNL     1       8.179  -0.869   5.079  0.00  0.00    -0.203 N 
ATOM     31  C   UNL     1       7.698   0.411   5.615  0.00  0.00    +0.132 C 
ATOM     32  C   UNL     1       8.438   0.675   6.934  0.00  0.00    +0.025 C 
ATOM     33  C   UNL     1       8.069  -0.421   7.934  0.00  0.00    +0.038 C 
ATOM     34  C   UNL     1       8.267  -1.782   7.322  0.00  0.00    -0.025 A 
ATOM     35  C   UNL     1       8.306  -1.960   5.946  0.00  0.00    +0.054 A 
ATOM     36  C   UNL     1       8.480  -3.232   5.412  0.00  0.00    +0.025 A 
ATOM     37  C   UNL     1       8.612  -4.322   6.250  0.00  0.00    +0.002 A 
ATOM     38  C   UNL     1       8.570  -4.145   7.621  0.00  0.00    +0.000 A 
ATOM     39  C   UNL     1       8.406  -2.878   8.156  0.00  0.00    +0.005 A 
ENDBRANCH  27  30
ENDBRANCH  24  27
ENDBRANCH   2  21
TORSDOF 5
