REMARK  Name = ZINC38717472
REMARK  8 active torsions:
REMARK  status: ('A' for Active; 'I' for Inactive)
REMARK    1  A    between atoms: C_1  and  C_2
REMARK    2  A    between atoms: C_2  and  C_3
REMARK    3  A    between atoms: C_8  and  N_9
REMARK    4  A    between atoms: C_10  and  C_12
REMARK    5  A    between atoms: N_14  and  C_15
REMARK    6  A    between atoms: C_15  and  C_16
REMARK    7  A    between atoms: C_19  and  S_22
REMARK    8  A    between atoms: S_22  and  N_25
REMARK                            x       y       z     vdW  Elec       q    Type
REMARK                         _______ _______ _______ _____ _____    ______ ____
ROOT
ATOM      1  C   UNL     1      -1.459  -0.275  -4.851  0.00  0.00    +0.300 C 
ATOM      2  O   UNL     1      -0.320   0.145  -4.858  0.00  0.00    -0.265 OA
ATOM      3  N   UNL     1      -2.101  -0.502  -6.014  0.00  0.00    -0.303 N 
ATOM      4  H   UNL     1      -3.011  -0.838  -6.009  0.00  0.00    +0.149 HD
ENDROOT
BRANCH   1   6
ATOM      5  N   UNL     1      -1.507  -0.315  -2.390  0.00  0.00    -0.278 N 
ATOM      6  C   UNL     1      -2.149  -0.541  -3.553  0.00  0.00    +0.303 C 
ATOM      7  O   UNL     1      -3.287  -0.962  -3.546  0.00  0.00    -0.265 OA
ATOM      8  H   UNL     1      -0.622   0.082  -2.394  0.00  0.00    +0.155 HD
BRANCH   5  14
ATOM      9  C   UNL     1      -1.349  -1.121  -0.120  0.00  0.00    -0.026 A 
ATOM     10  C   UNL     1      -1.954  -1.448   1.078  0.00  0.00    +0.005 A 
ATOM     11  C   UNL     1      -3.322  -1.314   1.222  0.00  0.00    +0.000 A 
ATOM     12  C   UNL     1      -4.090  -0.853   0.168  0.00  0.00    +0.002 A 
ATOM     13  C   UNL     1      -3.492  -0.525  -1.032  0.00  0.00    +0.023 A 
ATOM     14  C   UNL     1      -2.116  -0.652  -1.179  0.00  0.00    +0.037 A 
BRANCH   9  16
ATOM     15  C   UNL     1       0.821   0.072   0.018  0.00  0.00    +0.009 C 
ATOM     16  C   UNL     1       0.143  -1.267  -0.277  0.00  0.00    +0.033 C 
ENDBRANCH   9  16
ENDBRANCH   5  14
ENDBRANCH   1   6
BRANCH   3  17
ATOM     17  C   UNL     1      -1.424  -0.241  -7.287  0.00  0.00    +0.140 C 
BRANCH  17  18
ATOM     18  C   UNL     1      -2.353  -0.573  -8.427  0.00  0.00    -0.030 A 
ATOM     19  C   UNL     1      -2.368  -1.850  -8.956  0.00  0.00    +0.007 A 
ATOM     20  C   UNL     1      -3.220  -2.155 -10.001  0.00  0.00    +0.029 A 
ATOM     21  C   UNL     1      -4.056  -1.183 -10.518  0.00  0.00    +0.105 A 
ATOM     22  C   UNL     1      -4.041   0.094  -9.988  0.00  0.00    +0.029 A 
ATOM     23  C   UNL     1      -3.193   0.398  -8.940  0.00  0.00    +0.007 A 
BRANCH  21  24
ATOM     24  S   UNL     1      -5.140  -1.571 -11.851  0.00  0.00    +0.056 S 
ATOM     25  O   UNL     1      -5.427  -0.345 -12.511  0.00  0.00    -0.153 OA
ATOM     26  O   UNL     1      -4.572  -2.685 -12.525  0.00  0.00    -0.153 OA
BRANCH  24  27
ATOM     27  N   UNL     1      -6.564  -2.095 -11.187  0.00  0.00    -0.204 NA
ATOM     28  H   UNL     1      -6.663  -2.137 -10.223  0.00  0.00    +0.144 HD
ATOM     29  H   UNL     1      -7.299  -2.360 -11.762  0.00  0.00    +0.144 HD
ENDBRANCH  24  27
ENDBRANCH  21  24
ENDBRANCH  17  18
ENDBRANCH   3  17
TORSDOF 7
