REMARK  Name = ZINC37023372
REMARK  8 active torsions:
REMARK  status: ('A' for Active; 'I' for Inactive)
REMARK    1  A    between atoms: C_1  and  C_2
REMARK    2  A    between atoms: C_2  and  C_3
REMARK    3  A    between atoms: C_2  and  C_4
REMARK    4  A    between atoms: C_7  and  N_13
REMARK    5  A    between atoms: C_8  and  C_10
REMARK    6  A    between atoms: C_10  and  C_11
REMARK    7  A    between atoms: C_10  and  C_12
REMARK    8  A    between atoms: C_14  and  C_16
REMARK                            x       y       z     vdW  Elec       q    Type
REMARK                         _______ _______ _______ _____ _____    ______ ____
ROOT
ATOM      1  C   UNL     1      -1.405  -0.543   0.039  0.00  0.00    -0.044 A 
ATOM      2  C   UNL     1      -2.256  -0.221   1.081  0.00  0.00    +0.006 A 
ATOM      3  C   UNL     1      -3.554  -0.692   1.085  0.00  0.00    +0.024 A 
ATOM      4  C   UNL     1      -4.006  -1.489   0.041  0.00  0.00    +0.037 A 
ATOM      5  C   UNL     1      -3.149  -1.810  -1.004  0.00  0.00    -0.023 A 
ATOM      6  C   UNL     1      -1.853  -1.331  -1.005  0.00  0.00    +0.009 A 
ENDROOT
BRANCH   4   7
ATOM      7  N   UNL     1      -5.320  -1.968   0.042  0.00  0.00    -0.287 N 
ATOM      8  C   UNL     1      -6.278  -1.305   0.721  0.00  0.00    +0.204 C 
ATOM      9  O   UNL     1      -6.024  -0.242   1.246  0.00  0.00    -0.277 OA
ATOM     10  H   UNL     1      -5.542  -2.777  -0.445  0.00  0.00    +0.155 HD
BRANCH   8  11
ATOM     11  C   UNL     1      -7.665  -1.885   0.826  0.00  0.00    +0.027 C 
ATOM     12  C   UNL     1      -7.589  -3.270   1.533  0.00  0.00    +0.060 C 
ATOM     13  S   UNL     1      -9.347  -3.385   2.096  0.00  0.00    -0.181 S 
ATOM     14  C   UNL     1      -9.638  -1.579   2.322  0.00  0.00    -0.011 C 
ATOM     15  N   UNL     1      -8.517  -0.964   1.580  0.00  0.00    +0.393 N 
ATOM     16  H   UNL     1      -7.937  -0.468   2.240  0.00  0.00    -0.084 HD
ATOM     17  H   UNL     1      -8.901  -0.290   0.935  0.00  0.00    -0.084 HD
ENDBRANCH   8  11
ENDBRANCH   4   7
BRANCH   1  19
ATOM     18  C   UNL     1      -0.003   1.502   0.053  0.00  0.00    +0.012 C 
ATOM     19  C   UNL     1       0.011  -0.028   0.037  0.00  0.00    +0.013 C 
ATOM     20  C   UNL     1       0.742  -0.543   1.278  0.00  0.00    +0.012 C 
ENDBRANCH   1  19
BRANCH   5  21
ATOM     21  C   UNL     1      -3.635  -2.674  -2.139  0.00  0.00    +0.015 C 
ATOM     22  C   UNL     1      -3.408  -1.948  -3.467  0.00  0.00    +0.012 C 
ATOM     23  C   UNL     1      -2.862  -3.994  -2.141  0.00  0.00    +0.012 C 
ENDBRANCH   5  21
TORSDOF 4
