REMARK  Name = ZINC40777721
REMARK  5 active torsions:
REMARK  status: ('A' for Active; 'I' for Inactive)
REMARK    1  A    between atoms: C_4  and  N_7
REMARK    2  A    between atoms: N_7  and  C_8
REMARK    3  A    between atoms: N_7  and  N_14
REMARK    4  A    between atoms: C_16  and  N_29
REMARK    5  A    between atoms: C_17  and  N_21
REMARK                            x       y       z     vdW  Elec       q    Type
REMARK                         _______ _______ _______ _____ _____    ______ ____
ROOT
ATOM      1  N   UNL     1       4.591   0.412  -0.634  0.00  0.00    -0.242 N 
ATOM      2  C   UNL     1       5.304   1.306   0.155  0.00  0.00    +0.161 A 
ATOM      3  C   UNL     1       6.446   1.938  -0.343  0.00  0.00    +0.105 A 
ATOM      4  C   UNL     1       7.124   2.827   0.491  0.00  0.00    +0.127 A 
ATOM      5  N   UNL     1       6.661   3.038   1.722  0.00  0.00    -0.333 N 
ATOM      6  C   UNL     1       5.580   2.421   2.153  0.00  0.00    +0.200 A 
ATOM      7  N   UNL     1       4.907   1.578   1.395  0.00  0.00    -0.219 NA
ATOM      8  H   UNL     1       4.888   0.220  -1.538  0.00  0.00    +0.172 HD
ATOM      9  H   UNL     1       7.127   3.654   2.309  0.00  0.00    +0.168 HD
ENDROOT
BRANCH   4  10
ATOM     10  N   UNL     1       8.267   3.483   0.045  0.00  0.00    -0.284 N 
ATOM     11  C   UNL     1       9.059   4.191   0.944  0.00  0.00    +0.124 A 
ATOM     12  C   UNL     1      10.127   4.948   0.474  0.00  0.00    +0.045 A 
ATOM     13  C   UNL     1      10.907   5.646   1.378  0.00  0.00    +0.020 A 
ATOM     14  C   UNL     1      10.591   5.563   2.729  0.00  0.00    +0.036 A 
ATOM     15  C   UNL     1       9.516   4.792   3.125  0.00  0.00    +0.128 A 
ATOM     16  N   UNL     1       8.787   4.141   2.239  0.00  0.00    -0.239 NA
ATOM     17 BR   UNL     1      11.622   6.495   4.010  0.00  0.00    -0.049 Br
ATOM     18  H   UNL     1       8.511   3.448  -0.893  0.00  0.00    +0.155 HD
ENDBRANCH   4  10
BRANCH   3  19
ATOM     19  N   UNL     1       6.899   1.685  -1.648  0.00  0.00    -0.353 N 
ATOM     20  H   UNL     1       6.417   1.065  -2.217  0.00  0.00    +0.143 HD
ATOM     21  H   UNL     1       7.693   2.132  -1.981  0.00  0.00    +0.143 HD
ENDBRANCH   3  19
BRANCH   1  22
ATOM     22  N   UNL     1       3.445  -0.211  -0.126  0.00  0.00    -0.221 N 
BRANCH  22  26
ATOM     23  C   UNL     1      -0.104   1.937   0.240  0.00  0.00    +0.000 A 
ATOM     24  C   UNL     1       0.003   0.680   0.806  0.00  0.00    +0.002 A 
ATOM     25  C   UNL     1       1.178  -0.035   0.687  0.00  0.00    +0.025 A 
ATOM     26  C   UNL     1       2.254   0.509  -0.004  0.00  0.00    +0.053 A 
ATOM     27  C   UNL     1       2.143   1.772  -0.572  0.00  0.00    +0.025 A 
ATOM     28  C   UNL     1       0.965   2.482  -0.448  0.00  0.00    +0.002 A 
ENDBRANCH  22  26
BRANCH  22  29
ATOM     29  C   UNL     1       3.492  -1.553   0.260  0.00  0.00    +0.053 A 
ATOM     30  C   UNL     1       2.587  -2.463  -0.274  0.00  0.00    +0.025 A 
ATOM     31  C   UNL     1       2.636  -3.789   0.109  0.00  0.00    +0.002 A 
ATOM     32  C   UNL     1       3.585  -4.212   1.023  0.00  0.00    +0.000 A 
ATOM     33  C   UNL     1       4.487  -3.309   1.556  0.00  0.00    +0.002 A 
ATOM     34  C   UNL     1       4.447  -1.982   1.173  0.00  0.00    +0.025 A 
ENDBRANCH  22  29
ENDBRANCH   1  22
TORSDOF 5
