REMARK  Name = ZINC67505654
REMARK  8 active torsions:
REMARK  status: ('A' for Active; 'I' for Inactive)
REMARK    1  A    between atoms: C_3  and  O_24
REMARK    2  A    between atoms: C_6  and  C_7
REMARK    3  A    between atoms: C_7  and  N_8
REMARK    4  A    between atoms: N_8  and  C_9
REMARK    5  A    between atoms: C_9  and  C_11
REMARK    6  A    between atoms: C_9  and  C_18
REMARK    7  A    between atoms: O_24  and  C_25
REMARK    8  A    between atoms: C_25  and  C_26
REMARK                            x       y       z     vdW  Elec       q    Type
REMARK                         _______ _______ _______ _____ _____    ______ ____
ROOT
ATOM      1  N   UNL     1      -1.782  -0.936  -1.632  0.00  0.00    +0.388 N 
ATOM      2  H   UNL     1      -1.565  -0.475  -0.762  0.00  0.00    -0.084 HD
ATOM      3  H   UNL     1      -1.917  -0.245  -2.355  0.00  0.00    -0.084 HD
ENDROOT
BRANCH   1   4
ATOM      4  C   UNL     1      -0.672  -1.824  -2.005  0.00  0.00    -0.046 C 
BRANCH   4  10
ATOM      5  C   UNL     1       1.387  -0.923  -0.905  0.00  0.00    +0.005 A 
ATOM      6  C   UNL     1       2.564  -0.201  -0.937  0.00  0.00    +0.046 A 
ATOM      7  C   UNL     1       2.967   0.413  -2.114  0.00  0.00    +0.121 A 
ATOM      8  C   UNL     1       2.187   0.300  -3.255  0.00  0.00    +0.046 A 
ATOM      9  C   UNL     1       1.011  -0.423  -3.218  0.00  0.00    +0.005 A 
ATOM     10  C   UNL     1       0.611  -1.034  -2.043  0.00  0.00    -0.064 A 
BRANCH   7  11
ATOM     11  O   UNL     1       4.125   1.125  -2.149  0.00  0.00    -0.483 OA
BRANCH  11  12
ATOM     12  C   UNL     1       4.477   1.731  -3.394  0.00  0.00    +0.324 C 
BRANCH  12  13
ATOM     13  C   UNL     1       5.780   2.472  -3.241  0.00  0.00    +0.248 C 
ATOM     14  O   UNL     1       6.351   2.481  -2.171  0.00  0.00    -0.272 OA
ATOM     15  N   UNL     1       6.311   3.125  -4.294  0.00  0.00    -0.327 N 
ATOM     16  H   UNL     1       5.855   3.118  -5.150  0.00  0.00    +0.145 HD
ATOM     17  H   UNL     1       7.150   3.602  -4.196  0.00  0.00    +0.145 HD
ENDBRANCH  12  13
ENDBRANCH  11  12
ENDBRANCH   7  11
ENDBRANCH   4  10
ENDBRANCH   1   4
BRANCH   1  18
ATOM     18  C   UNL     1      -3.010  -1.727  -1.475  0.00  0.00    -0.011 C 
BRANCH  18  19
ATOM     19  C   UNL     1      -3.401  -2.317  -2.806  0.00  0.00    -0.059 A 
ATOM     20  C   UNL     1      -3.268  -1.566  -3.959  0.00  0.00    +0.005 A 
ATOM     21  C   UNL     1      -3.627  -2.106  -5.180  0.00  0.00    +0.038 A 
ATOM     22  C   UNL     1      -4.119  -3.398  -5.248  0.00  0.00    +0.123 A 
ATOM     23  C   UNL     1      -4.251  -4.149  -4.092  0.00  0.00    +0.038 A 
ATOM     24  C   UNL     1      -3.887  -3.609  -2.873  0.00  0.00    +0.005 A 
ATOM     25  F   UNL     1      -4.470  -3.927  -6.441  0.00  0.00    -0.205 F 
ENDBRANCH  18  19
BRANCH  18  26
ATOM     26  C   UNL     1      -4.136  -0.825  -0.966  0.00  0.00    +0.109 C 
ATOM     27  C   UNL     1      -3.726  -0.156   0.370  0.00  0.00    +0.032 C 
ATOM     28  C   UNL     1      -4.624   1.111   0.353  0.00  0.00    +0.030 C 
ATOM     29  C   UNL     1      -4.679   1.453  -1.151  0.00  0.00    +0.160 C 
ATOM     30  O   UNL     1      -4.356   0.261  -1.880  0.00  0.00    -0.378 OA
ENDBRANCH  18  26
ENDBRANCH   1  18
TORSDOF 8
