REMARK  Name = ZINC34748368
REMARK  8 active torsions:
REMARK  status: ('A' for Active; 'I' for Inactive)
REMARK    1  A    between atoms: C_1  and  C_2
REMARK    2  A    between atoms: C_3  and  C_36
REMARK    3  A    between atoms: N_9  and  C_22
REMARK    4  A    between atoms: N_15  and  C_18
REMARK    5  A    between atoms: C_18  and  C_19
REMARK    6  A    between atoms: C_19  and  C_21
REMARK    7  A    between atoms: C_22  and  C_23
REMARK    8  A    between atoms: N_25  and  C_26
REMARK                            x       y       z     vdW  Elec       q    Type
REMARK                         _______ _______ _______ _____ _____    ______ ____
ROOT
ATOM      1  C   UNL     1       0.991   1.791   0.902  0.00  0.00    +0.045 C 
ATOM      2  C   UNL     1       0.849   0.297   0.772  0.00  0.00    -0.026 A 
ATOM      3  C   UNL     1       0.878  -0.285  -0.436  0.00  0.00    -0.008 A 
ATOM      4  S   UNL     1       0.674  -2.017  -0.067  0.00  0.00    -0.073 S 
ATOM      5  C   UNL     1       0.555  -1.910   1.700  0.00  0.00    +0.117 A 
ATOM      6  C   UNL     1       0.683  -0.531   1.954  0.00  0.00    +0.075 A 
ATOM      7  C   UNL     1       0.628  -0.145   3.331  0.00  0.00    +0.264 A 
ATOM      8  O   UNL     1       0.725   1.029   3.647  0.00  0.00    -0.267 OA
ATOM      9  N   UNL     1       0.466  -1.093   4.271  0.00  0.00    -0.271 N 
ATOM     10  C   UNL     1       0.356  -2.410   3.937  0.00  0.00    +0.202 A 
ATOM     11  N   UNL     1       0.393  -2.794   2.678  0.00  0.00    -0.208 NA
ATOM     12  N   UNL     1       0.193  -3.349   4.926  0.00  0.00    -0.304 N 
ATOM     13  C   UNL     1      -1.148  -3.808   5.319  0.00  0.00    +0.089 C 
ATOM     14  C   UNL     1      -1.158  -5.340   5.312  0.00  0.00    -0.059 C 
ATOM     15  N   UNL     1      -0.072  -5.839   6.165  0.00  0.00    +0.384 N 
ATOM     16  C   UNL     1       1.226  -5.450   5.601  0.00  0.00    -0.059 C 
ATOM     17  C   UNL     1       1.355  -3.928   5.618  0.00  0.00    +0.089 C 
ATOM     18  C   UNL     1       1.043   0.370  -1.783  0.00  0.00    +0.052 C 
ATOM     19  H   UNL     1      -0.166  -5.448   7.090  0.00  0.00    -0.081 HD
ENDROOT
BRANCH  15  20
ATOM     20  C   UNL     1      -0.150  -7.304   6.247  0.00  0.00    -0.048 C 
BRANCH  20  21
ATOM     21  C   UNL     1      -1.409  -7.701   6.973  0.00  0.00    -0.096 C 
ATOM     22  C   UNL     1      -2.479  -8.035   6.296  0.00  0.00    +0.005 C 
ATOM     23  C   UNL     1      -1.437  -7.714   8.480  0.00  0.00    +0.036 C 
ENDBRANCH  20  21
ENDBRANCH  15  20
BRANCH   9  24
ATOM     24  C   UNL     1       0.409  -0.703   5.682  0.00  0.00    +0.224 C 
BRANCH  24  25
ATOM     25  C   UNL     1      -1.002  -0.311   6.038  0.00  0.00    +0.237 C 
ATOM     26  O   UNL     1      -1.874  -0.353   5.196  0.00  0.00    -0.274 OA
ATOM     27  N   UNL     1      -1.295   0.087   7.292  0.00  0.00    -0.283 N 
ATOM     28  H   UNL     1      -0.588   0.181   7.949  0.00  0.00    +0.155 HD
BRANCH  27  29
ATOM     29  C   UNL     1      -2.617   0.363   7.645  0.00  0.00    +0.041 A 
ATOM     30  C   UNL     1      -3.520   0.779   6.691  0.00  0.00    +0.024 A 
ATOM     31  C   UNL     1      -4.840   1.056   7.032  0.00  0.00    +0.002 A 
ATOM     32  C   UNL     1      -5.277   0.926   8.316  0.00  0.00    +0.008 A 
ATOM     33  C   UNL     1      -4.388   0.504   9.319  0.00  0.00    -0.016 A 
ATOM     34  C   UNL     1      -3.043   0.214   8.982  0.00  0.00    +0.003 A 
ATOM     35  C   UNL     1      -2.158  -0.211   9.985  0.00  0.00    +0.010 A 
ATOM     36  C   UNL     1      -2.603  -0.344  11.265  0.00  0.00    +0.001 A 
ATOM     37  C   UNL     1      -3.927  -0.064  11.597  0.00  0.00    +0.001 A 
ATOM     38  C   UNL     1      -4.810   0.361  10.652  0.00  0.00    +0.008 A 
ENDBRANCH  27  29
ENDBRANCH  24  25
ENDBRANCH   9  24
TORSDOF 5
