REMARK  Name = ZINC41026308
REMARK  8 active torsions:
REMARK  status: ('A' for Active; 'I' for Inactive)
REMARK    1  A    between atoms: C_1  and  N_2
REMARK    2  A    between atoms: N_2  and  C_3
REMARK    3  A    between atoms: N_2  and  C_4
REMARK    4  A    between atoms: C_4  and  C_5
REMARK    5  A    between atoms: C_5  and  N_6
REMARK    6  A    between atoms: N_13  and  C_16
REMARK    7  A    between atoms: N_22  and  C_23
REMARK    8  A    between atoms: C_24  and  C_31
REMARK                            x       y       z     vdW  Elec       q    Type
REMARK                         _______ _______ _______ _____ _____    ______ ____
ROOT
ATOM      1  N   UNL     1       0.637  -0.589   3.635  0.00  0.00    -0.315 N 
ATOM      2  C   UNL     1       0.116  -0.356   4.895  0.00  0.00    +0.219 A 
ATOM      3  N   UNL     1      -1.031   0.305   5.001  0.00  0.00    -0.199 NA
ATOM      4  C   UNL     1      -1.573   0.554   6.186  0.00  0.00    +0.139 A 
ATOM      5  C   UNL     1      -0.904   0.100   7.340  0.00  0.00    +0.079 A 
ATOM      6  C   UNL     1      -1.160   0.171   8.727  0.00  0.00    +0.148 A 
ATOM      7  N   UNL     1      -0.190  -0.429   9.358  0.00  0.00    -0.172 NA
ATOM      8  N   UNL     1       0.742  -0.919   8.435  0.00  0.00    -0.214 N 
ATOM      9  C   UNL     1       0.310  -0.597   7.180  0.00  0.00    +0.170 A 
ATOM     10  N   UNL     1       0.776  -0.805   5.950  0.00  0.00    -0.195 NA
ATOM     11  N   UNL     1      -2.767   1.244   6.287  0.00  0.00    -0.293 N 
ATOM     12  H   UNL     1       1.472  -1.073   3.537  0.00  0.00    +0.149 HD
ATOM     13  H   UNL     1      -3.154   1.419   7.159  0.00  0.00    +0.154 HD
ENDROOT
BRANCH  11  14
ATOM     14  C   UNL     1      -3.411   1.683   5.144  0.00  0.00    +0.083 A 
ATOM     15  C   UNL     1      -4.599   2.386   5.053  0.00  0.00    +0.068 A 
ATOM     16  C   UNL     1      -5.070   2.735   3.713  0.00  0.00    -0.023 A 
ATOM     17  C   UNL     1      -4.265   2.313   2.722  0.00  0.00    -0.004 A 
ATOM     18  S   UNL     1      -2.927   1.492   3.549  0.00  0.00    -0.077 S 
ATOM     19  C   UNL     1      -4.798   2.694   1.367  0.00  0.00    +0.043 C 
ATOM     20  C   UNL     1      -6.281   3.049   1.616  0.00  0.00    +0.010 C 
ATOM     21  C   UNL     1      -6.259   3.471   3.099  0.00  0.00    +0.037 C 
BRANCH  15  22
ATOM     22  C   UNL     1      -5.354   2.766   6.250  0.00  0.00    +0.244 C 
ATOM     23  O   UNL     1      -5.135   3.831   6.796  0.00  0.00    -0.270 OA
ATOM     24  N   UNL     1      -6.292   1.935   6.747  0.00  0.00    -0.325 N 
ATOM     25  H   UNL     1      -6.467   1.086   6.311  0.00  0.00    +0.145 HD
ATOM     26  H   UNL     1      -6.792   2.186   7.539  0.00  0.00    +0.145 HD
ENDBRANCH  15  22
ENDBRANCH  11  14
BRANCH   8  27
ATOM     27  C   UNL     1       1.915  -1.618   8.745  0.00  0.00    +0.068 A 
ATOM     28  C   UNL     1       2.368  -2.627   7.904  0.00  0.00    +0.028 A 
ATOM     29  C   UNL     1       3.525  -3.314   8.213  0.00  0.00    +0.002 A 
ATOM     30  C   UNL     1       4.233  -2.999   9.358  0.00  0.00    +0.000 A 
ATOM     31  C   UNL     1       3.785  -1.996  10.198  0.00  0.00    +0.002 A 
ATOM     32  C   UNL     1       2.632  -1.301   9.892  0.00  0.00    +0.028 A 
ENDBRANCH   8  27
BRANCH   1  33
ATOM     33  C   UNL     1      -0.071  -0.103   2.448  0.00  0.00    +0.086 C 
BRANCH  33  34
ATOM     34  C   UNL     1       0.713  -0.491   1.192  0.00  0.00    -0.061 C 
BRANCH  34  36
ATOM     35  C   UNL     1      -0.018   1.465   0.010  0.00  0.00    -0.097 C 
ATOM     36  N   UNL     1       0.002  -0.004   0.002  0.00  0.00    +0.377 N 
ATOM     37  C   UNL     1       0.690  -0.478  -1.207  0.00  0.00    -0.097 C 
ATOM     38  H   UNL     1      -0.945  -0.353   0.009  0.00  0.00    -0.083 HD
ENDBRANCH  34  36
ENDBRANCH  33  34
ENDBRANCH   1  33
TORSDOF 6
