REMARK  Name = ZINC01888955
REMARK  11 active torsions:
REMARK  status: ('A' for Active; 'I' for Inactive)
REMARK    1  A    between atoms: C_1  and  C_2
REMARK    2  A    between atoms: C_7  and  N_20
REMARK    3  A    between atoms: C_8  and  N_12
REMARK    4  A    between atoms: N_12  and  C_13
REMARK    5  A    between atoms: C_13  and  N_15
REMARK    6  A    between atoms: C_16  and  O_18
REMARK    7  A    between atoms: O_18  and  C_19
REMARK    8  A    between atoms: N_20  and  C_21
REMARK    9  A    between atoms: C_21  and  N_23
REMARK   10  A    between atoms: C_24  and  O_26
REMARK   11  A    between atoms: O_26  and  C_27
REMARK                            x       y       z     vdW  Elec       q    Type
REMARK                         _______ _______ _______ _____ _____    ______ ____
ROOT
ATOM      1  C   UNL     1       1.129  -7.577  -0.898  0.00  0.00    +0.086 C 
ATOM      2  C   UNL     1       0.371  -6.293  -0.679  0.00  0.00    +0.105 A 
ATOM      3  N   UNL     1      -0.972  -6.142  -0.841  0.00  0.00    -0.342 N 
ATOM      4  H   UNL     1      -1.618  -6.852  -1.120  0.00  0.00    +0.167 HD
ATOM      5  C   UNL     1      -1.276  -4.827  -0.546  0.00  0.00    +0.068 A 
ATOM      6  C   UNL     1      -2.453  -4.091  -0.532  0.00  0.00    +0.053 A 
ATOM      7  C   UNL     1      -2.425  -2.755  -0.176  0.00  0.00    +0.056 A 
ATOM      8  C   UNL     1      -1.214  -2.139   0.158  0.00  0.00    +0.056 A 
ATOM      9  C   UNL     1      -0.038  -2.861   0.146  0.00  0.00    +0.055 A 
ATOM     10  C   UNL     1      -0.058  -4.214  -0.207  0.00  0.00    +0.091 A 
ATOM     11  N   UNL     1       0.906  -5.166  -0.309  0.00  0.00    -0.233 NA
ENDROOT
BRANCH   8  12
ATOM     12  N   UNL     1      -1.195  -0.782   0.511  0.00  0.00    -0.295 N 
ATOM     13  H   UNL     1      -1.842  -0.437   1.147  0.00  0.00    +0.154 HD
BRANCH  12  14
ATOM     14  C   UNL     1      -0.278   0.043  -0.031  0.00  0.00    +0.143 C 
ATOM     15  S   UNL     1       0.931  -0.584  -1.068  0.00  0.00    -0.018 S 
BRANCH  14  16
ATOM     16  N   UNL     1      -0.313   1.362   0.242  0.00  0.00    -0.233 N 
ATOM     17  C   UNL     1       0.605   2.188  -0.300  0.00  0.00    +0.406 C 
ATOM     18  O   UNL     1       1.462   1.742  -1.036  0.00  0.00    -0.226 OA
ATOM     19  H   UNL     1      -1.000   1.719   0.827  0.00  0.00    +0.160 HD
BRANCH  17  20
ATOM     20  O   UNL     1       0.570   3.505  -0.027  0.00  0.00    -0.453 OA
ATOM     21  C   UNL     1       1.589   4.334  -0.646  0.00  0.00    +0.282 C 
ENDBRANCH  17  20
ENDBRANCH  14  16
ENDBRANCH  12  14
ENDBRANCH   8  12
BRANCH   7  22
ATOM     22  N   UNL     1      -3.614  -2.013  -0.155  0.00  0.00    -0.295 N 
ATOM     23  H   UNL     1      -3.647  -1.138  -0.572  0.00  0.00    +0.154 HD
BRANCH  22  24
ATOM     24  C   UNL     1      -4.712  -2.516   0.444  0.00  0.00    +0.143 C 
ATOM     25  S   UNL     1      -4.690  -4.108   1.073  0.00  0.00    -0.018 S 
BRANCH  24  26
ATOM     26  N   UNL     1      -5.827  -1.766   0.548  0.00  0.00    -0.233 N 
ATOM     27  C   UNL     1      -6.924  -2.269   1.147  0.00  0.00    +0.406 C 
ATOM     28  O   UNL     1      -6.909  -3.399   1.593  0.00  0.00    -0.226 OA
ATOM     29  H   UNL     1      -5.839  -0.864   0.191  0.00  0.00    +0.160 HD
BRANCH  27  30
ATOM     30  O   UNL     1      -8.037  -1.520   1.250  0.00  0.00    -0.453 OA
ATOM     31  C   UNL     1      -9.181  -2.126   1.907  0.00  0.00    +0.282 C 
ENDBRANCH  27  30
ENDBRANCH  24  26
ENDBRANCH  22  24
ENDBRANCH   7  22
TORSDOF 8
