REMARK  Name = ZINC03846585
REMARK  15 active torsions:
REMARK  status: ('A' for Active; 'I' for Inactive)
REMARK    1  A    between atoms: C_1  and  N_2
REMARK    2  A    between atoms: C_9  and  O_32
REMARK    3  A    between atoms: C_10  and  C_13
REMARK    4  A    between atoms: C_13  and  C_15
REMARK    5  A    between atoms: C_15  and  C_16
REMARK    6  A    between atoms: C_16  and  C_18
REMARK    7  A    between atoms: C_16  and  N_57
REMARK    8  A    between atoms: C_20  and  O_27
REMARK    9  A    between atoms: C_21  and  O_26
REMARK   10  A    between atoms: C_22  and  O_24
REMARK   11  A    between atoms: O_24  and  C_25
REMARK   12  A    between atoms: O_27  and  C_28
REMARK   13  A    between atoms: C_29  and  C_30
REMARK   14  A    between atoms: C_29  and  N_57
REMARK   15  A    between atoms: C_30  and  O_31
REMARK                            x       y       z     vdW  Elec       q    Type
REMARK                         _______ _______ _______ _____ _____    ______ ____
ROOT
ATOM      1  C   UNL     1       3.341  -2.796   0.495  0.00  0.00    -0.033 C 
ENDROOT
BRANCH   1   2
ATOM      2  C   UNL     1       4.694  -3.455   0.436  0.00  0.00    -0.054 A 
ATOM      3  C   UNL     1       5.509  -3.459   1.552  0.00  0.00    +0.051 A 
ATOM      4  C   UNL     1       6.753  -4.070   1.503  0.00  0.00    +0.165 A 
ATOM      5  C   UNL     1       7.185  -4.669   0.326  0.00  0.00    +0.201 A 
ATOM      6  C   UNL     1       6.365  -4.658  -0.796  0.00  0.00    +0.165 A 
ATOM      7  C   UNL     1       5.120  -4.050  -0.737  0.00  0.00    +0.051 A 
BRANCH   6   8
ATOM      8  O   UNL     1       6.783  -5.242  -1.951  0.00  0.00    -0.491 OA
ATOM      9  C   UNL     1       5.889  -5.192  -3.064  0.00  0.00    +0.277 C 
ENDBRANCH   6   8
BRANCH   5  10
ATOM     10  O   UNL     1       8.407  -5.265   0.272  0.00  0.00    -0.501 OA
ATOM     11  H   UNL     1       9.122  -4.672   0.000  0.00  0.00    +0.292 HD
ENDBRANCH   5  10
BRANCH   4  12
ATOM     12  O   UNL     1       7.551  -4.078   2.604  0.00  0.00    -0.491 OA
ATOM     13  C   UNL     1       7.043  -3.444   3.779  0.00  0.00    +0.277 C 
ENDBRANCH   4  12
ENDBRANCH   1   2
BRANCH   1  14
ATOM     14  N   UNL     1       2.644  -3.210   1.728  0.00  0.00    +0.385 N 
ATOM     15  H   UNL     1       1.915  -2.523   1.952  0.00  0.00    -0.085 HD
ATOM     16  H   UNL     1       3.320  -3.255   2.500  0.00  0.00    -0.085 HD
BRANCH  14  17
ATOM     17  C   UNL     1       2.025  -4.536   1.546  0.00  0.00    -0.054 C 
BRANCH  17  18
ATOM     18  C   UNL     1       1.206  -4.883   2.791  0.00  0.00    +0.137 C 
BRANCH  18  19
ATOM     19  O   UNL     1       0.116  -3.966   2.915  0.00  0.00    -0.397 OA
ATOM     20  H   UNL     1      -0.447  -4.127   3.684  0.00  0.00    +0.209 HD
ENDBRANCH  18  19
ENDBRANCH  17  18
ENDBRANCH  14  17
ENDBRANCH   1  14
BRANCH   1  21
ATOM     21  C   UNL     1       3.514  -1.276   0.503  0.00  0.00    +0.069 C 
BRANCH  21  22
ATOM     22  C   UNL     1       2.160  -0.616   0.439  0.00  0.00    +0.171 C 
ATOM     23  O   UNL     1       1.155  -1.295   0.392  0.00  0.00    -0.292 OA
BRANCH  22  33
ATOM     24  C   UNL     1       4.409   3.761   0.292  0.00  0.00    +0.152 C 
ATOM     25  N   UNL     1       3.180   2.968   0.361  0.00  0.00    -0.310 N 
ATOM     26  C   UNL     1       1.964   3.618   0.425  0.00  0.00    +0.055 A 
ATOM     27  C   UNL     1       1.914   5.010   0.424  0.00  0.00    +0.026 A 
ATOM     28  C   UNL     1       0.697   5.653   0.488  0.00  0.00    +0.002 A 
ATOM     29  C   UNL     1      -0.485   4.928   0.554  0.00  0.00    +0.001 A 
ATOM     30  C   UNL     1      -0.461   3.563   0.556  0.00  0.00    +0.013 A 
ATOM     31  C   UNL     1       0.764   2.888   0.492  0.00  0.00    +0.041 A 
ATOM     32  C   UNL     1       0.809   1.422   0.494  0.00  0.00    +0.142 A 
ATOM     33  C   UNL     1       2.061   0.797   0.434  0.00  0.00    +0.124 A 
ATOM     34  C   UNL     1       3.266   1.627   0.360  0.00  0.00    +0.266 A 
ATOM     35  O   UNL     1       4.360   1.095   0.302  0.00  0.00    -0.267 OA
BRANCH  32  36
ATOM     36  O   UNL     1      -0.326   0.696   0.557  0.00  0.00    -0.505 OA
ATOM     37  H   UNL     1      -0.609   0.400   1.433  0.00  0.00    +0.292 HD
ENDBRANCH  32  36
ENDBRANCH  22  33
ENDBRANCH  21  22
ENDBRANCH   1  21
TORSDOF 12
