REMARK  Name = ZINC22638938
REMARK  13 active torsions:
REMARK  status: ('A' for Active; 'I' for Inactive)
REMARK    1  A    between atoms: C_1  and  C_2
REMARK    2  A    between atoms: C_5  and  C_35
REMARK    3  A    between atoms: C_6  and  N_8
REMARK    4  A    between atoms: C_9  and  C_11
REMARK    5  A    between atoms: C_11  and  C_13
REMARK    6  A    between atoms: C_11  and  S_14
REMARK    7  A    between atoms: S_14  and  C_15
REMARK    8  A    between atoms: N_28  and  C_29
REMARK    9  A    between atoms: C_29  and  C_30
REMARK   10  A    between atoms: C_30  and  C_31
REMARK   11  A    between atoms: C_31  and  N_32
REMARK   12  A    between atoms: N_32  and  C_33
REMARK   13  A    between atoms: N_32  and  C_34
REMARK                            x       y       z     vdW  Elec       q    Type
REMARK                         _______ _______ _______ _____ _____    ______ ____
ROOT
ATOM      1  C   UNL     1       1.127   3.285   0.038  0.00  0.00    +0.173 A 
ATOM      2  N   UNL     1      -0.002   3.965   0.057  0.00  0.00    -0.216 NA
ATOM      3  C   UNL     1      -1.172   3.339   0.074  0.00  0.00    +0.117 A 
ATOM      4  C   UNL     1      -1.271   1.937   0.069  0.00  0.00    +0.076 A 
ATOM      5  C   UNL     1      -2.629   1.391   0.095  0.00  0.00    -0.023 A 
ATOM      6  C   UNL     1      -3.645   2.278   0.112  0.00  0.00    -0.004 A 
ATOM      7  S   UNL     1      -2.866   3.870   0.101  0.00  0.00    -0.073 S 
ATOM      8  C   UNL     1      -5.112   1.977   0.134  0.00  0.00    +0.043 C 
ATOM      9  C   UNL     1      -5.310   0.501  -0.237  0.00  0.00    +0.005 C 
ATOM     10  C   UNL     1      -4.335  -0.348   0.584  0.00  0.00    +0.005 C 
ATOM     11  C   UNL     1      -2.904  -0.110   0.099  0.00  0.00    +0.037 C 
ATOM     12  C   UNL     1      -0.029   1.225   0.053  0.00  0.00    +0.263 A 
ATOM     13  O   UNL     1      -0.016   0.006   0.051  0.00  0.00    -0.267 OA
ATOM     14  N   UNL     1       1.123   1.920   0.036  0.00  0.00    -0.287 N 
ENDROOT
BRANCH   1  15
ATOM     15  S   UNL     1       2.662   4.149   0.015  0.00  0.00    -0.075 S 
BRANCH  15  16
ATOM     16  C   UNL     1       2.062   5.857   0.028  0.00  0.00    +0.137 C 
ATOM     17  C   UNL     1       1.339   6.133   1.347  0.00  0.00    +0.029 C 
BRANCH  16  19
ATOM     18  N   UNL     1       3.024   8.066  -0.529  0.00  0.00    -0.284 N 
ATOM     19  C   UNL     1       3.228   6.801  -0.113  0.00  0.00    +0.230 C 
ATOM     20  O   UNL     1       4.350   6.421   0.147  0.00  0.00    -0.274 OA
ATOM     21  H   UNL     1       2.022   8.384  -0.852  0.00  0.00    +0.155 HD
BRANCH  18  27
ATOM     22  C   UNL     1       7.407   9.493   1.183  0.00  0.00    +0.044 C 
ATOM     23  C   UNL     1       6.224   9.691   0.270  0.00  0.00    -0.049 A 
ATOM     24  C   UNL     1       6.190  10.774  -0.591  0.00  0.00    +0.004 A 
ATOM     25  C   UNL     1       5.107  10.959  -1.430  0.00  0.00    +0.005 A 
ATOM     26  C   UNL     1       4.059  10.060  -1.417  0.00  0.00    -0.029 A 
ATOM     27  C   UNL     1       4.088   8.976  -0.550  0.00  0.00    +0.037 A 
ATOM     28  C   UNL     1       5.177   8.792   0.292  0.00  0.00    +0.027 A 
ATOM     29  C   UNL     1       2.882  10.259  -2.337  0.00  0.00    +0.045 C 
ENDBRANCH  18  27
ENDBRANCH  16  19
ENDBRANCH  15  16
ENDBRANCH   1  15
BRANCH  14  30
ATOM     30  C   UNL     1       2.397   1.198   0.014  0.00  0.00    +0.125 C 
BRANCH  30  31
ATOM     31  C   UNL     1       2.818   0.948  -1.435  0.00  0.00    +0.003 C 
BRANCH  31  32
ATOM     32  C   UNL     1       4.149   0.194  -1.458  0.00  0.00    -0.078 C 
BRANCH  32  33
ATOM     33  N   UNL     1       4.552  -0.046  -2.850  0.00  0.00    +0.376 N 
ATOM     34  C   UNL     1       5.929  -0.553  -2.919  0.00  0.00    -0.097 C 
ATOM     35  C   UNL     1       3.620  -0.963  -3.518  0.00  0.00    -0.097 C 
ATOM     36  H   UNL     1       4.520   0.916  -3.382  0.00  0.00    -0.083 HD
ENDBRANCH  32  33
ENDBRANCH  31  32
ENDBRANCH  30  31
ENDBRANCH  14  30
TORSDOF 8
