REMARK  Name = ZINC38337974
REMARK  17 active torsions:
REMARK  status: ('A' for Active; 'I' for Inactive)
REMARK    1  A    between atoms: C_1  and  C_2
REMARK    2  A    between atoms: C_4  and  C_35
REMARK    3  A    between atoms: C_4  and  O_36
REMARK    4  A    between atoms: C_5  and  C_33
REMARK    5  A    between atoms: C_5  and  O_34
REMARK    6  A    between atoms: C_6  and  C_31
REMARK    7  A    between atoms: C_9  and  O_10
REMARK    8  A    between atoms: C_9  and  O_18
REMARK    9  A    between atoms: O_10  and  C_11
REMARK   10  A    between atoms: C_14  and  O_17
REMARK   11  A    between atoms: O_18  and  C_19
REMARK   12  A    between atoms: C_19  and  C_21
REMARK   13  A    between atoms: C_23  and  O_30
REMARK   14  A    between atoms: C_24  and  O_28
REMARK   15  A    between atoms: C_25  and  O_27
REMARK   16  A    between atoms: O_28  and  C_29
REMARK   17  A    between atoms: C_31  and  O_32
REMARK                            x       y       z     vdW  Elec       q    Type
REMARK                         _______ _______ _______ _____ _____    ______ ____
ROOT
ATOM      1  C   UNL     1       0.112   1.693   0.254  0.00  0.00    +0.021 C 
ATOM      2  C   UNL     1       0.061   0.177   0.056  0.00  0.00    +0.137 C 
ATOM      3  C   UNL     1       0.799  -0.197  -1.233  0.00  0.00    +0.106 C 
ATOM      4  C   UNL     1       0.809  -1.721  -1.379  0.00  0.00    +0.120 C 
ATOM      5  C   UNL     1       1.457  -2.341  -0.138  0.00  0.00    +0.185 C 
ATOM      6  O   UNL     1       0.741  -1.929   1.028  0.00  0.00    -0.298 OA
ATOM      7  C   UNL     1       0.736  -0.516   1.242  0.00  0.00    +0.383 C 
ATOM      8  C   UNL     1       1.610  -2.111  -2.623  0.00  0.00    +0.047 C 
ATOM      9  C   UNL     1       0.083   0.428  -2.432  0.00  0.00    +0.045 C 
ENDROOT
BRANCH   4  10
ATOM     10  O   UNL     1      -0.533  -2.198  -1.506  0.00  0.00    -0.383 OA
ATOM     11  H   UNL     1      -0.602  -3.157  -1.602  0.00  0.00    +0.210 HD
ENDBRANCH   4  10
BRANCH   3  12
ATOM     12  O   UNL     1       2.143   0.286  -1.172  0.00  0.00    -0.385 OA
ATOM     13  H   UNL     1       2.212   1.246  -1.072  0.00  0.00    +0.210 HD
ENDBRANCH   3  12
BRANCH   7  14
ATOM     14  O   UNL     1       0.018  -0.217   2.441  0.00  0.00    -0.429 OA
BRANCH  14  15
ATOM     15  C   UNL     1      -1.256  -0.684   2.531  0.00  0.00    +0.128 A 
ATOM     16  C   UNL     1      -1.767  -1.499   1.532  0.00  0.00    +0.049 A 
ATOM     17  C   UNL     1      -3.061  -1.974   1.622  0.00  0.00    +0.049 A 
ATOM     18  C   UNL     1      -3.849  -1.636   2.713  0.00  0.00    +0.117 A 
ATOM     19  C   UNL     1      -3.337  -0.822   3.712  0.00  0.00    +0.049 A 
ATOM     20  C   UNL     1      -2.042  -0.351   3.624  0.00  0.00    +0.049 A 
BRANCH  18  21
ATOM     21  O   UNL     1      -5.123  -2.103   2.802  0.00  0.00    -0.507 OA
ATOM     22  H   UNL     1      -5.200  -2.952   3.259  0.00  0.00    +0.292 HD
ENDBRANCH  18  21
ENDBRANCH  14  15
ENDBRANCH   7  14
BRANCH   7  23
ATOM     23  O   UNL     1       2.082  -0.050   1.364  0.00  0.00    -0.394 OA
BRANCH  23  24
ATOM     24  C   UNL     1       2.817  -0.559   2.372  0.00  0.00    +0.344 C 
ATOM     25  O   UNL     1       2.308  -1.318   3.172  0.00  0.00    -0.245 OA
BRANCH  24  26
ATOM     26  C   UNL     1       4.240  -0.195   2.503  0.00  0.00    +0.066 A 
ATOM     27  C   UNL     1       4.826   0.682   1.587  0.00  0.00    +0.064 A 
ATOM     28  C   UNL     1       6.160   1.022   1.712  0.00  0.00    +0.163 A 
ATOM     29  C   UNL     1       6.920   0.490   2.751  0.00  0.00    +0.203 A 
ATOM     30  C   UNL     1       6.339  -0.385   3.665  0.00  0.00    +0.163 A 
ATOM     31  C   UNL     1       5.004  -0.722   3.548  0.00  0.00    +0.064 A 
BRANCH  30  32
ATOM     32  O   UNL     1       7.085  -0.903   4.678  0.00  0.00    -0.503 OA
ATOM     33  H   UNL     1       7.078  -0.369   5.484  0.00  0.00    +0.292 HD
ENDBRANCH  30  32
BRANCH  29  34
ATOM     34  O   UNL     1       8.231   0.825   2.872  0.00  0.00    -0.489 OA
ATOM     35  C   UNL     1       8.537   1.971   3.669  0.00  0.00    +0.277 C 
ENDBRANCH  29  34
BRANCH  28  36
ATOM     36  O   UNL     1       6.730   1.876   0.821  0.00  0.00    -0.503 OA
ATOM     37  H   UNL     1       6.673   2.807   1.076  0.00  0.00    +0.292 HD
ENDBRANCH  28  36
ENDBRANCH  24  26
ENDBRANCH  23  24
ENDBRANCH   7  23
BRANCH   5  38
ATOM     38  C   UNL     1       1.416  -3.866  -0.249  0.00  0.00    +0.190 C 
BRANCH  38  39
ATOM     39  O   UNL     1       2.123  -4.443   0.851  0.00  0.00    -0.392 OA
ATOM     40  H   UNL     1       2.139  -5.410   0.845  0.00  0.00    +0.210 HD
ENDBRANCH  38  39
ENDBRANCH   5  38
TORSDOF 13
