REMARK  Name = ZINC23300163
REMARK  10 active torsions:
REMARK  status: ('A' for Active; 'I' for Inactive)
REMARK    1  A    between atoms: C_1  and  C_2
REMARK    2  A    between atoms: C_9  and  N_15
REMARK    3  A    between atoms: C_10  and  C_11
REMARK    4  A    between atoms: C_11  and  O_13
REMARK    5  A    between atoms: O_13  and  C_14
REMARK    6  A    between atoms: C_16  and  C_18
REMARK    7  A    between atoms: C_18  and  N_19
REMARK    8  A    between atoms: N_22  and  C_25
REMARK    9  A    between atoms: C_25  and  C_26
REMARK   10  A    between atoms: N_28  and  C_29
REMARK                            x       y       z     vdW  Elec       q    Type
REMARK                         _______ _______ _______ _____ _____    ______ ____
ROOT
ATOM      1  N   UNL     1      -1.221  -2.349   2.488  0.00  0.00    -0.278 N 
ATOM      2  C   UNL     1      -1.240  -3.214   3.521  0.00  0.00    +0.232 C 
ATOM      3  O   UNL     1      -1.289  -4.407   3.312  0.00  0.00    -0.274 OA
ATOM      4  H   UNL     1      -1.176  -1.266   2.678  0.00  0.00    +0.155 HD
ENDROOT
BRANCH   1  12
ATOM      5  C   UNL     1      -1.520  -5.425  -4.698  0.00  0.00    +0.008 C 
ATOM      6  C   UNL     1      -1.755  -4.485  -3.514  0.00  0.00    -0.009 C 
ATOM      7  C   UNL     1      -0.871  -3.243  -3.657  0.00  0.00    +0.008 C 
ATOM      8  C   UNL     1      -1.276  -2.193  -2.622  0.00  0.00    +0.037 C 
ATOM      9  C   UNL     1      -1.289  -2.843  -1.244  0.00  0.00    -0.021 A 
ATOM     10  C   UNL     1      -1.340  -4.185  -1.108  0.00  0.00    -0.004 A 
ATOM     11  S   UNL     1      -1.334  -4.465   0.640  0.00  0.00    -0.077 S 
ATOM     12  C   UNL     1      -1.259  -2.822   1.186  0.00  0.00    +0.086 A 
ATOM     13  C   UNL     1      -1.248  -2.096   0.003  0.00  0.00    +0.091 A 
ATOM     14  C   UNL     1      -1.391  -5.203  -2.206  0.00  0.00    +0.046 C 
BRANCH  13  15
ATOM     15  C   UNL     1      -1.191  -0.633   0.010  0.00  0.00    +0.342 C 
ATOM     16  O   UNL     1      -2.220   0.016   0.023  0.00  0.00    -0.245 OA
BRANCH  15  17
ATOM     17  O   UNL     1       0.002  -0.004   0.002  0.00  0.00    -0.464 OA
ATOM     18  C   UNL     1      -0.018   1.448   0.010  0.00  0.00    +0.280 C 
ENDBRANCH  15  17
ENDBRANCH  13  15
ENDBRANCH   1  12
BRANCH   2  19
ATOM     19  C   UNL     1      -1.198  -2.699   4.937  0.00  0.00    +0.180 C 
BRANCH  19  20
ATOM     20  N   UNL     1      -1.229  -3.832   5.871  0.00  0.00    -0.298 NA
ATOM     21  C   UNL     1      -2.514  -4.541   5.798  0.00  0.00    +0.066 C 
ATOM     22  C   UNL     1      -2.476  -5.757   6.726  0.00  0.00    -0.063 C 
ATOM     23  N   UNL     1      -2.200  -5.314   8.099  0.00  0.00    +0.387 N 
ATOM     24  C   UNL     1      -0.915  -4.606   8.173  0.00  0.00    -0.063 C 
ATOM     25  C   UNL     1      -0.953  -3.389   7.245  0.00  0.00    +0.066 C 
ATOM     26  H   UNL     1      -2.993  -4.612   8.396  0.00  0.00    -0.081 HD
BRANCH  23  27
ATOM     27  C   UNL     1      -2.230  -6.447   9.034  0.00  0.00    +0.019 C 
BRANCH  27  28
ATOM     28  C   UNL     1      -3.631  -6.996   9.113  0.00  0.00    +0.197 C 
ATOM     29  O   UNL     1      -4.518  -6.493   8.455  0.00  0.00    -0.278 OA
ATOM     30  N   UNL     1      -3.900  -8.046   9.914  0.00  0.00    -0.314 N 
ATOM     31  H   UNL     1      -3.096  -8.502  10.510  0.00  0.00    +0.149 HD
BRANCH  30  32
ATOM     32  C   UNL     1      -5.262  -8.580   9.990  0.00  0.00    +0.073 C 
ATOM     33  C   UNL     1      -5.809  -8.925  11.377  0.00  0.00    +0.024 C 
ATOM     34  C   UNL     1      -5.425 -10.043  10.405  0.00  0.00    +0.024 C 
ENDBRANCH  30  32
ENDBRANCH  27  28
ENDBRANCH  23  27
ENDBRANCH  19  20
ENDBRANCH   2  19
TORSDOF 8
