REMARK  Name = ZINC47622639
REMARK  10 active torsions:
REMARK  status: ('A' for Active; 'I' for Inactive)
REMARK    1  A    between atoms: C_1  and  N_2
REMARK    2  A    between atoms: N_2  and  C_3
REMARK    3  A    between atoms: N_2  and  C_4
REMARK    4  A    between atoms: C_4  and  C_6
REMARK    5  A    between atoms: C_4  and  C_18
REMARK    6  A    between atoms: C_6  and  N_7
REMARK    7  A    between atoms: N_10  and  C_11
REMARK    8  A    between atoms: C_14  and  O_17
REMARK    9  A    between atoms: C_23  and  O_24
REMARK   10  A    between atoms: O_24  and  C_25
REMARK                            x       y       z     vdW  Elec       q    Type
REMARK                         _______ _______ _______ _____ _____    ______ ____
ROOT
ATOM      1  C   UNL     1      -1.983  -0.125  -1.224  0.00  0.00    +0.095 C 
ENDROOT
BRANCH   1   2
ATOM      2  N   UNL     1      -1.702   1.302  -1.405  0.00  0.00    -0.301 N 
ATOM      3  C   UNL     1      -2.076   1.923  -2.541  0.00  0.00    +0.300 C 
ATOM      4  O   UNL     1      -2.647   1.300  -3.415  0.00  0.00    -0.253 OA
ATOM      5  N   UNL     1      -1.817   3.235  -2.708  0.00  0.00    -0.297 N 
ATOM      6  H   UNL     1      -1.246   1.799  -0.708  0.00  0.00    +0.150 HD
ATOM      7  H   UNL     1      -1.362   3.732  -2.010  0.00  0.00    +0.151 HD
BRANCH   5   8
ATOM      8  C   UNL     1      -2.224   3.911  -3.942  0.00  0.00    +0.075 C 
ATOM      9  C   UNL     1      -3.680   4.364  -3.820  0.00  0.00    +0.025 C 
ATOM     10  C   UNL     1      -4.105   5.069  -5.110  0.00  0.00    +0.033 C 
ATOM     11  C   UNL     1      -3.210   6.288  -5.343  0.00  0.00    +0.115 C 
ATOM     12  C   UNL     1      -1.754   5.835  -5.465  0.00  0.00    +0.033 C 
ATOM     13  C   UNL     1      -1.329   5.130  -4.175  0.00  0.00    +0.025 C 
BRANCH  11  14
ATOM     14  O   UNL     1      -3.338   7.190  -4.242  0.00  0.00    -0.392 OA
ATOM     15  H   UNL     1      -2.797   7.988  -4.322  0.00  0.00    +0.210 HD
ENDBRANCH  11  14
ENDBRANCH   5   8
ENDBRANCH   1   2
BRANCH   1  16
ATOM     16  C   UNL     1      -1.353  -0.606   0.085  0.00  0.00    -0.017 C 
BRANCH  16  17
ATOM     17  C   UNL     1       0.147  -0.502  -0.012  0.00  0.00    -0.018 A 
ATOM     18  C   UNL     1       0.805   0.566   0.569  0.00  0.00    +0.005 A 
ATOM     19  C   UNL     1       2.181   0.662   0.481  0.00  0.00    +0.000 A 
ATOM     20  C   UNL     1       2.903  -0.308  -0.189  0.00  0.00    +0.004 A 
ATOM     21  C   UNL     1       2.251  -1.378  -0.771  0.00  0.00    +0.046 A 
ATOM     22  C   UNL     1       0.870  -1.480  -0.679  0.00  0.00    +0.122 A 
BRANCH  22  23
ATOM     23  O   UNL     1       0.226  -2.534  -1.246  0.00  0.00    -0.495 OA
ATOM     24  C   UNL     1       1.034  -3.503  -1.917  0.00  0.00    +0.277 C 
ENDBRANCH  22  23
ENDBRANCH  16  17
BRANCH  16  26
ATOM     25  C   UNL     1      -3.300   0.231   1.207  0.00  0.00    -0.096 C 
ATOM     26  N   UNL     1      -1.832   0.228   1.195  0.00  0.00    +0.382 N 
ATOM     27  C   UNL     1      -1.332  -0.314   2.465  0.00  0.00    -0.096 C 
ATOM     28  H   UNL     1      -1.494   1.172   1.076  0.00  0.00    -0.082 HD
ENDBRANCH  16  26
ENDBRANCH   1  16
TORSDOF 7
