REMARK  Name = ZINC16284642
REMARK  7 active torsions:
REMARK  status: ('A' for Active; 'I' for Inactive)
REMARK    1  A    between atoms: C_1  and  C_2
REMARK    2  A    between atoms: C_5  and  N_9
REMARK    3  A    between atoms: N_9  and  C_10
REMARK    4  A    between atoms: C_10  and  C_11
REMARK    5  A    between atoms: C_11  and  C_13
REMARK    6  A    between atoms: C_11  and  O_17
REMARK    7  A    between atoms: C_13  and  N_14
REMARK                            x       y       z     vdW  Elec       q    Type
REMARK                         _______ _______ _______ _____ _____    ______ ____
ROOT
ATOM      1  C   UNL     1       0.209  -0.890  -0.114  0.00  0.00    +0.150 C 
ENDROOT
BRANCH   1   2
ATOM      2  O   UNL     1       0.690  -0.249  -1.297  0.00  0.00    -0.388 OA
ATOM      3  H   UNL     1       0.394  -0.665  -2.118  0.00  0.00    +0.210 HD
ENDBRANCH   1   2
BRANCH   1   4
ATOM      4  C   UNL     1      -1.321  -0.865  -0.107  0.00  0.00    +0.134 C 
BRANCH   4   5
ATOM      5  N   UNL     1      -1.787   0.523  -0.134  0.00  0.00    -0.340 N 
ATOM      6  H   UNL     1      -1.145   1.250  -0.153  0.00  0.00    +0.146 HD
BRANCH   5  11
ATOM      7  C   UNL     1      -7.346   1.648  -0.153  0.00  0.00    +0.044 C 
ATOM      8  C   UNL     1      -5.869   1.350  -0.148  0.00  0.00    -0.049 A 
ATOM      9  C   UNL     1      -5.430   0.038  -0.123  0.00  0.00    +0.005 A 
ATOM     10  C   UNL     1      -4.077  -0.239  -0.118  0.00  0.00    +0.024 A 
ATOM     11  C   UNL     1      -3.157   0.801  -0.139  0.00  0.00    +0.041 A 
ATOM     12  C   UNL     1      -3.601   2.117  -0.159  0.00  0.00    +0.039 A 
ATOM     13  C   UNL     1      -4.956   2.388  -0.169  0.00  0.00    +0.020 A 
ATOM     14 BR   UNL     1      -2.352   3.537  -0.180  0.00  0.00    -0.048 Br
ENDBRANCH   5  11
ENDBRANCH   4   5
ENDBRANCH   1   4
BRANCH   1  15
ATOM     15  C   UNL     1       0.696  -2.340  -0.086  0.00  0.00    +0.148 C 
BRANCH  15  16
ATOM     16  N   UNL     1       2.156  -2.363   0.028  0.00  0.00    -0.355 N 
ATOM     17  C   UNL     1       2.824  -3.564   0.072  0.00  0.00    +0.166 C 
ATOM     18  N   UNL     1       4.194  -3.585   0.179  0.00  0.00    -0.372 N 
ATOM     19  H   UNL     1       2.652  -1.530   0.072  0.00  0.00    +0.162 HD
ATOM     20  H   UNL     1       2.538  -5.580   0.037  0.00  0.00    +0.159 HD
ATOM     21  H   UNL     1       4.690  -2.753   0.223  0.00  0.00    +0.159 HD
ATOM     22  H   UNL     1       4.665  -4.433   0.210  0.00  0.00    +0.159 HD
ATOM     23  N   UNL     1       2.089  -4.665   0.008  0.00  0.00    -0.372 N 
ATOM     24  H   UNL     1       1.067  -4.596  -0.071  0.00  0.00    +0.159 HD
ENDBRANCH  15  16
ENDBRANCH   1  15
TORSDOF 6
