REMARK  Name = ZINC15675327
REMARK  11 active torsions:
REMARK  status: ('A' for Active; 'I' for Inactive)
REMARK    1  A    between atoms: C_1  and  C_2
REMARK    2  A    between atoms: C_2  and  C_3
REMARK    3  A    between atoms: C_2  and  C_4
REMARK    4  A    between atoms: C_4  and  C_6
REMARK    5  A    between atoms: C_4  and  N_63
REMARK    6  A    between atoms: N_8  and  C_9
REMARK    7  A    between atoms: C_12  and  C_20
REMARK    8  A    between atoms: C_14  and  O_19
REMARK    9  A    between atoms: C_16  and  O_18
REMARK   10  A    between atoms: C_31  and  C_33
REMARK   11  A    between atoms: C_36  and  N_63
REMARK                            x       y       z     vdW  Elec       q    Type
REMARK                         _______ _______ _______ _____ _____    ______ ____
ROOT
ATOM      1  C   UNL     1       8.705   2.490   2.008  0.00  0.00    +0.127 C 
ATOM      2  C   UNL     1       8.350   1.702   0.781  0.00  0.00    +0.006 C 
ATOM      3  C   UNL     1       8.306   0.387   0.743  0.00  0.00    +0.015 C 
ATOM      4  C   UNL     1       8.616  -0.493   1.919  0.00  0.00    +0.074 C 
ATOM      5  C   UNL     1       8.561   0.320   3.214  0.00  0.00    +0.149 C 
ATOM      6  C   UNL     1       9.401   1.586   3.028  0.00  0.00    +0.167 C 
ENDROOT
BRANCH   3   7
ATOM      7  C   UNL     1       7.932  -0.257  -0.525  0.00  0.00    +0.243 C 
ATOM      8  O   UNL     1       6.948  -0.969  -0.578  0.00  0.00    -0.270 OA
ATOM      9  N   UNL     1       8.681  -0.059  -1.628  0.00  0.00    -0.282 N 
ATOM     10  C   UNL     1      10.056   0.444  -1.537  0.00  0.00    +0.144 C 
ATOM     11  C   UNL     1      10.949  -0.352  -2.455  0.00  0.00    -0.027 A 
ATOM     12  C   UNL     1      12.322  -0.188  -2.326  0.00  0.00    +0.005 A 
ATOM     13  C   UNL     1      13.190  -0.880  -3.144  0.00  0.00    +0.000 A 
ATOM     14  C   UNL     1      12.689  -1.744  -4.100  0.00  0.00    +0.000 A 
ATOM     15  C   UNL     1      11.326  -1.911  -4.227  0.00  0.00    +0.004 A 
ATOM     16  C   UNL     1      10.449  -1.220  -3.400  0.00  0.00    -0.040 A 
ATOM     17  C   UNL     1       8.975  -1.474  -3.577  0.00  0.00    +0.067 C 
ATOM     18  C   UNL     1       8.153  -0.344  -2.973  0.00  0.00    +0.167 C 
BRANCH  18  19
ATOM     19  C   UNL     1       6.709  -0.764  -2.876  0.00  0.00    +0.231 C 
ATOM     20  O   UNL     1       5.840  -0.064  -3.349  0.00  0.00    -0.274 OA
ATOM     21  N   UNL     1       6.384  -1.920  -2.262  0.00  0.00    -0.328 N 
ATOM     22  H   UNL     1       7.079  -2.480  -1.883  0.00  0.00    +0.145 HD
ATOM     23  H   UNL     1       5.455  -2.190  -2.199  0.00  0.00    +0.145 HD
ENDBRANCH  18  19
ENDBRANCH   3   7
BRANCH   1  26
ATOM     24  C   UNL     1       6.983   4.208   2.147  0.00  0.00    +0.200 C 
ATOM     25  O   UNL     1       7.585   4.841   1.306  0.00  0.00    -0.278 OA
ATOM     26  N   UNL     1       7.485   3.042   2.601  0.00  0.00    -0.308 N 
ATOM     27  H   UNL     1       7.038   2.569   3.321  0.00  0.00    +0.149 HD
BRANCH  24  28
ATOM     28  C   UNL     1       5.673   4.724   2.685  0.00  0.00    +0.018 C 
BRANCH  28  30
ATOM     29  C   UNL     1       6.713   6.437   4.043  0.00  0.00    -0.099 C 
ATOM     30  N   UNL     1       5.777   6.174   2.933  0.00  0.00    +0.385 N 
ATOM     31  H   UNL     1       4.850   6.543   3.177  0.00  0.00    -0.085 HD
ATOM     32  H   UNL     1       6.118   6.640   2.084  0.00  0.00    -0.085 HD
ENDBRANCH  28  30
BRANCH  28  34
ATOM     33  C   UNL     1       3.223   4.926   2.236  0.00  0.00    +0.006 C 
ATOM     34  C   UNL     1       4.565   4.469   1.660  0.00  0.00    -0.023 C 
ATOM     35  C   UNL     1       4.865   5.252   0.380  0.00  0.00    +0.006 C 
ENDBRANCH  28  34
ENDBRANCH  24  28
ENDBRANCH   1  26
BRANCH   6  36
ATOM     36  O   UNL     1       9.514   2.271   4.277  0.00  0.00    -0.387 OA
ATOM     37  H   UNL     1       9.947   1.754   4.971  0.00  0.00    +0.210 HD
ENDBRANCH   6  36
BRANCH   5  38
ATOM     38  O   UNL     1       9.087  -0.457   4.292  0.00  0.00    -0.389 OA
ATOM     39  H   UNL     1       8.607  -1.281   4.453  0.00  0.00    +0.210 HD
ENDBRANCH   5  38
TORSDOF 8
