REMARK  Name = ZINC24985623
REMARK  7 active torsions:
REMARK  status: ('A' for Active; 'I' for Inactive)
REMARK    1  A    between atoms: C_1  and  S_2
REMARK    2  A    between atoms: S_2  and  C_3
REMARK    3  A    between atoms: C_3  and  C_4
REMARK    4  A    between atoms: C_4  and  C_5
REMARK    5  A    between atoms: C_5  and  C_7
REMARK    6  A    between atoms: C_5  and  N_24
REMARK    7  A    between atoms: C_25  and  C_27
REMARK                            x       y       z     vdW  Elec       q    Type
REMARK                         _______ _______ _______ _____ _____    ______ ____
ROOT
ATOM      1  C   UNL     1       1.877  -3.823   3.058  0.00  0.00    +0.236 C 
ATOM      2  O   UNL     1       1.327  -4.388   3.979  0.00  0.00    -0.274 OA
ATOM      3  N   UNL     1       2.595  -4.533   2.165  0.00  0.00    -0.300 N 
ATOM      4  C   UNL     1       3.360  -3.855   1.109  0.00  0.00    +0.110 C 
ATOM      5  C   UNL     1       4.813  -4.336   1.167  0.00  0.00    +0.047 C 
ATOM      6  C   UNL     1       4.846  -5.862   1.087  0.00  0.00    +0.064 C 
ATOM      7  C   UNL     1       4.090  -6.459   2.275  0.00  0.00    +0.047 C 
ATOM      8  C   UNL     1       2.633  -6.001   2.232  0.00  0.00    +0.110 C 
ATOM      9  C   UNL     1       6.273  -6.341   1.101  0.00  0.00    +0.057 A 
ATOM     10  C   UNL     1       6.750  -7.301   0.275  0.00  0.00    +0.039 A 
ATOM     11  N   UNL     1       8.042  -7.477   0.550  0.00  0.00    -0.349 N 
ATOM     12  C   UNL     1       8.389  -6.666   1.516  0.00  0.00    +0.171 A 
ATOM     13  N   UNL     1       7.307  -5.941   1.886  0.00  0.00    -0.348 N 
ATOM     14  H   UNL     1       7.277  -5.263   2.580  0.00  0.00    +0.166 HD
ATOM     15  C   UNL     1       5.894  -8.003  -0.751  0.00  0.00    +0.070 C 
ATOM     16  C   UNL     1       4.424  -7.741  -0.397  0.00  0.00    +0.088 C 
ATOM     17  N   UNL     1       4.218  -6.303  -0.169  0.00  0.00    -0.305 NA
ATOM     18  H   UNL     1       3.236  -6.072  -0.182  0.00  0.00    +0.123 HD
ATOM     19  H   UNL     1       8.631  -8.107   0.105  0.00  0.00    +0.166 HD
ENDROOT
BRANCH   1  20
ATOM     20  C   UNL     1       1.759  -2.328   2.911  0.00  0.00    +0.160 C 
BRANCH  20  21
ATOM     21  N   UNL     1       1.432  -1.734   4.209  0.00  0.00    -0.297 N 
ATOM     22  C   UNL     1       1.758  -0.452   4.465  0.00  0.00    +0.280 C 
ATOM     23  O   UNL     1       2.323   0.213   3.617  0.00  0.00    -0.267 OA
ATOM     24  H   UNL     1       0.981  -2.264   4.885  0.00  0.00    +0.150 HD
BRANCH  22  25
ATOM     25  C   UNL     1       1.431   0.143   5.765  0.00  0.00    +0.189 A 
ATOM     26  C   UNL     1       1.697   1.425   6.151  0.00  0.00    +0.054 A 
ATOM     27  C   UNL     1       1.214   1.562   7.461  0.00  0.00    +0.042 A 
ATOM     28  C   UNL     1       0.680   0.371   7.814  0.00  0.00    +0.196 A 
ATOM     29  O   UNL     1       0.808  -0.479   6.787  0.00  0.00    -0.458 OA
ENDBRANCH  22  25
ENDBRANCH  20  21
BRANCH  20  30
ATOM     30  C   UNL     1       0.651  -2.001   1.907  0.00  0.00    +0.042 C 
BRANCH  30  31
ATOM     31  C   UNL     1       0.632  -0.494   1.643  0.00  0.00    +0.071 C 
BRANCH  31  33
ATOM     32  C   UNL     1      -0.572   1.694   0.251  0.00  0.00    +0.084 C 
ATOM     33  S   UNL     1      -0.681  -0.106   0.453  0.00  0.00    -0.164 S 
ENDBRANCH  31  33
ENDBRANCH  30  31
ENDBRANCH  20  30
ENDBRANCH   1  20
TORSDOF 6
