REMARK  Name = ZINC03311320
REMARK  13 active torsions:
REMARK  status: ('A' for Active; 'I' for Inactive)
REMARK    1  A    between atoms: C_1  and  C_2
REMARK    2  A    between atoms: C_2  and  N_3
REMARK    3  A    between atoms: N_3  and  C_4
REMARK    4  A    between atoms: N_3  and  C_32
REMARK    5  A    between atoms: C_7  and  N_10
REMARK    6  A    between atoms: C_11  and  C_13
REMARK    7  A    between atoms: C_13  and  S_14
REMARK    8  A    between atoms: S_14  and  C_15
REMARK    9  A    between atoms: C_18  and  C_21
REMARK   10  A    between atoms: N_19  and  N_20
REMARK   11  A    between atoms: C_21  and  C_22
REMARK   12  A    between atoms: C_32  and  C_33
REMARK   13  A    between atoms: C_32  and  C_34
REMARK                            x       y       z     vdW  Elec       q    Type
REMARK                         _______ _______ _______ _____ _____    ______ ____
ROOT
ATOM      1  C   UNL     1      -1.391   2.771  -2.920  0.00  0.00    +0.209 A 
ATOM      2  N   UNL     1      -2.086   1.659  -2.859  0.00  0.00    -0.121 NA
ATOM      3  N   UNL     1      -1.684   0.947  -1.868  0.00  0.00    -0.132 NA
ATOM      4  C   UNL     1      -0.724   1.560  -1.236  0.00  0.00    +0.155 A 
ATOM      5  N   UNL     1      -0.499   2.743  -1.886  0.00  0.00    -0.228 N 
ENDROOT
BRANCH   5   6
ATOM      6  N   UNL     1       0.424   3.697  -1.566  0.00  0.00    -0.295 N 
ATOM      7  H   UNL     1       1.300   3.525  -2.037  0.00  0.00    +0.163 HD
ATOM      8  H   UNL     1       0.077   4.621  -1.775  0.00  0.00    +0.163 HD
ENDBRANCH   5   6
BRANCH   1   9
ATOM      9  S   UNL     1      -1.573   4.058  -4.110  0.00  0.00    -0.075 S 
BRANCH   9  10
ATOM     10  C   UNL     1      -2.916   3.371  -5.111  0.00  0.00    +0.173 C 
BRANCH  10  12
ATOM     11  N   UNL     1      -4.228   4.026  -7.103  0.00  0.00    -0.285 N 
ATOM     12  C   UNL     1      -3.252   4.329  -6.225  0.00  0.00    +0.227 C 
ATOM     13  O   UNL     1      -2.643   5.373  -6.332  0.00  0.00    -0.275 OA
ATOM     14  H   UNL     1      -4.669   3.163  -7.059  0.00  0.00    +0.155 HD
BRANCH  11  18
ATOM     15  C   UNL     1      -5.355   6.797 -10.010  0.00  0.00    +0.030 A 
ATOM     16  C   UNL     1      -4.026   6.706  -9.615  0.00  0.00    +0.025 A 
ATOM     17  C   UNL     1      -3.654   5.788  -8.652  0.00  0.00    +0.025 A 
ATOM     18  C   UNL     1      -4.607   4.957  -8.080  0.00  0.00    +0.034 A 
ATOM     19  C   UNL     1      -5.934   5.044  -8.479  0.00  0.00    +0.025 A 
ATOM     20  C   UNL     1      -6.308   5.965  -9.437  0.00  0.00    +0.025 A 
BRANCH  15  21
ATOM     21  N   UNL     1      -5.732   7.726 -10.985  0.00  0.00    -0.328 N 
BRANCH  21  22
ATOM     22  C   UNL     1      -4.713   8.526 -11.668  0.00  0.00    +0.067 C 
ATOM     23  C   UNL     1      -4.686   8.157 -13.153  0.00  0.00    +0.027 C 
ATOM     24  C   UNL     1      -5.045  10.012 -11.518  0.00  0.00    +0.027 C 
ENDBRANCH  21  22
BRANCH  21  26
ATOM     25  C   UNL     1      -7.757   8.978 -10.423  0.00  0.00    +0.024 C 
ATOM     26  C   UNL     1      -7.147   7.900 -11.322  0.00  0.00    +0.102 C 
ENDBRANCH  21  26
ENDBRANCH  15  21
ENDBRANCH  11  18
ENDBRANCH  10  12
ENDBRANCH   9  10
ENDBRANCH   1   9
BRANCH   4  27
ATOM     27  C   UNL     1       0.008   1.057  -0.019  0.00  0.00    +0.113 C 
BRANCH  27  28
ATOM     28  C   UNL     1      -0.699   1.530   1.224  0.00  0.00    -0.032 A 
ATOM     29  C   UNL     1      -0.289   2.664   1.855  0.00  0.00    +0.004 A 
ATOM     30  C   UNL     1      -0.936   3.121   3.002  0.00  0.00    +0.001 A 
ATOM     31  C   UNL     1      -1.988   2.439   3.532  0.00  0.00    +0.008 A 
ATOM     32  C   UNL     1      -2.436   1.260   2.912  0.00  0.00    -0.018 A 
ATOM     33  C   UNL     1      -1.782   0.800   1.742  0.00  0.00    -0.014 A 
ATOM     34  C   UNL     1      -2.230  -0.380   1.122  0.00  0.00    +0.009 A 
ATOM     35  C   UNL     1      -3.282  -1.062   1.652  0.00  0.00    +0.001 A 
ATOM     36  C   UNL     1      -3.924  -0.609   2.804  0.00  0.00    +0.001 A 
ATOM     37  C   UNL     1      -3.518   0.529   3.431  0.00  0.00    +0.008 A 
ENDBRANCH  27  28
ENDBRANCH   4  27
TORSDOF 10
