REMARK  Name = ZINC37072852
REMARK  7 active torsions:
REMARK  status: ('A' for Active; 'I' for Inactive)
REMARK    1  A    between atoms: C_1  and  C_2
REMARK    2  A    between atoms: C_2  and  C_3
REMARK    3  A    between atoms: C_2  and  C_4
REMARK    4  A    between atoms: C_4  and  C_6
REMARK    5  A    between atoms: C_4  and  N_11
REMARK    6  A    between atoms: N_11  and  C_12
REMARK    7  A    between atoms: C_20  and  O_22
REMARK                            x       y       z     vdW  Elec       q    Type
REMARK                         _______ _______ _______ _____ _____    ______ ____
ROOT
ATOM      1  N   UNL     1      -0.508  -1.914  -0.568  0.00  0.00    +0.391 N 
ATOM      2  H   UNL     1      -1.321  -2.512  -0.585  0.00  0.00    -0.084 HD
ATOM      3  H   UNL     1      -0.057  -1.936  -1.470  0.00  0.00    -0.084 HD
ENDROOT
BRANCH   1   4
ATOM      4  C   UNL     1       0.428  -2.389   0.460  0.00  0.00    +0.002 C 
ATOM      5  C   UNL     1       1.809  -1.708   0.307  0.00  0.00    +0.218 C 
ATOM      6  O   UNL     1       2.530  -2.632  -0.524  0.00  0.00    -0.493 OA
ATOM      7  C   UNL     1       2.038  -3.887  -0.334  0.00  0.00    +0.126 A 
ATOM      8  C   UNL     1       0.774  -3.850   0.245  0.00  0.00    -0.016 A 
ATOM      9  C   UNL     1       0.085  -5.012   0.514  0.00  0.00    +0.009 A 
ATOM     10  C   UNL     1       0.651  -6.238   0.217  0.00  0.00    +0.046 A 
ATOM     11  C   UNL     1       1.915  -6.292  -0.354  0.00  0.00    +0.120 A 
ATOM     12  C   UNL     1       2.607  -5.122  -0.629  0.00  0.00    +0.091 A 
BRANCH  11  13
ATOM     13  O   UNL     1       2.476  -7.495  -0.644  0.00  0.00    -0.507 OA
ATOM     14  H   UNL     1       2.276  -7.817  -1.534  0.00  0.00    +0.292 HD
ENDBRANCH  11  13
ENDBRANCH   1   4
BRANCH   1  15
ATOM     15  C   UNL     1      -0.919  -0.538  -0.258  0.00  0.00    -0.030 C 
BRANCH  15  16
ATOM     16  C   UNL     1      -1.703  -0.526   1.028  0.00  0.00    -0.024 A 
ATOM     17  C   UNL     1      -1.669   0.376   2.040  0.00  0.00    +0.009 A 
ATOM     18  C   UNL     1      -2.488   0.183   3.137  0.00  0.00    +0.008 A 
ATOM     19  C   UNL     1      -3.300  -0.901   3.169  0.00  0.00    +0.045 A 
ATOM     20  S   UNL     1      -2.924  -1.690   1.612  0.00  0.00    -0.103 S 
ENDBRANCH  15  16
BRANCH  15  22
ATOM     21  C   UNL     1      -2.222   1.433  -1.069  0.00  0.00    +0.006 C 
ATOM     22  C   UNL     1      -1.791   0.001  -1.393  0.00  0.00    -0.027 C 
ATOM     23  C   UNL     1      -0.994  -0.008  -2.699  0.00  0.00    +0.006 C 
ENDBRANCH  15  22
ENDBRANCH   1  15
TORSDOF 5
