REMARK  Name = ZINC20684272
REMARK  11 active torsions:
REMARK  status: ('A' for Active; 'I' for Inactive)
REMARK    1  A    between atoms: C_1  and  C_2
REMARK    2  A    between atoms: C_2  and  N_3
REMARK    3  A    between atoms: N_3  and  C_4
REMARK    4  A    between atoms: N_3  and  C_18
REMARK    5  A    between atoms: C_4  and  C_5
REMARK    6  A    between atoms: N_7  and  C_8
REMARK    7  A    between atoms: C_11  and  N_14
REMARK    8  A    between atoms: C_15  and  C_17
REMARK    9  A    between atoms: C_18  and  C_20
REMARK   10  A    between atoms: C_18  and  C_21
REMARK   11  A    between atoms: N_26  and  C_27
REMARK                            x       y       z     vdW  Elec       q    Type
REMARK                         _______ _______ _______ _____ _____    ______ ____
ROOT
ATOM      1  N   UNL     1      -5.003   5.833   0.109  0.00  0.00    +0.393 N 
ATOM      2  H   UNL     1      -4.476   6.374   0.909  0.00  0.00    -0.080 HD
ENDROOT
BRANCH   1   4
ATOM      3  C   UNL     1      -6.013   4.506   1.903  0.00  0.00    -0.017 C 
ATOM      4  C   UNL     1      -5.250   4.463   0.577  0.00  0.00    -0.081 C 
ENDBRANCH   1   4
BRANCH   1   5
ATOM      5  C   UNL     1      -6.267   6.535  -0.154  0.00  0.00    +0.017 C 
ATOM      6  C   UNL     1      -6.877   6.015  -1.458  0.00  0.00    -0.004 C 
BRANCH   5   7
ATOM      7  C   UNL     1      -6.004   8.014  -0.277  0.00  0.00    +0.207 C 
ATOM      8  O   UNL     1      -4.869   8.434  -0.220  0.00  0.00    -0.277 OA
ATOM      9  N   UNL     1      -7.032   8.868  -0.449  0.00  0.00    -0.242 N 
ATOM     10  C   UNL     1      -6.797  10.191  -0.559  0.00  0.00    +0.306 C 
ATOM     11  O   UNL     1      -5.658  10.613  -0.502  0.00  0.00    -0.252 OA
ATOM     12  N   UNL     1      -7.824  11.046  -0.731  0.00  0.00    -0.294 N 
ATOM     13  H   UNL     1      -8.062   8.487  -0.501  0.00  0.00    +0.159 HD
ATOM     14  H   UNL     1      -8.855  10.664  -0.782  0.00  0.00    +0.151 HD
BRANCH  12  15
ATOM     15  C   UNL     1      -7.569  12.484  -0.850  0.00  0.00    +0.037 C 
ATOM     16  C   UNL     1      -6.880  12.986   0.420  0.00  0.00    +0.029 C 
ATOM     17  C   UNL     1      -6.613  14.487   0.296  0.00  0.00    -0.008 C 
ATOM     18  C   UNL     1      -7.939  15.227   0.109  0.00  0.00    +0.007 C 
ATOM     19  C   UNL     1      -8.629  14.725  -1.161  0.00  0.00    -0.008 C 
ATOM     20  C   UNL     1      -8.895  13.223  -1.037  0.00  0.00    +0.029 C 
ATOM     21  C   UNL     1      -7.725  14.984  -2.369  0.00  0.00    +0.007 C 
ATOM     22  C   UNL     1      -6.399  14.245  -2.182  0.00  0.00    -0.008 C 
ATOM     23  C   UNL     1      -5.710  14.747  -0.912  0.00  0.00    +0.007 C 
ATOM     24  C   UNL     1      -6.666  12.743  -2.058  0.00  0.00    +0.029 C 
ENDBRANCH  12  15
ENDBRANCH   5   7
ENDBRANCH   1   5
BRANCH   1  25
ATOM     25  C   UNL     1      -4.142   5.836  -1.081  0.00  0.00    +0.020 C 
BRANCH  25  26
ATOM     26  C   UNL     1      -2.771   5.332  -0.710  0.00  0.00    +0.201 C 
ATOM     27  O   UNL     1      -2.535   5.003   0.433  0.00  0.00    -0.278 OA
ATOM     28  N   UNL     1      -1.807   5.247  -1.649  0.00  0.00    -0.287 N 
ATOM     29  H   UNL     1      -2.043   5.468  -2.700  0.00  0.00    +0.155 HD
BRANCH  28  30
ATOM     30  C   UNL     1      -0.506   4.877  -1.285  0.00  0.00    +0.033 A 
ATOM     31  C   UNL     1       0.584   5.440  -1.937  0.00  0.00    +0.025 A 
ATOM     32  C   UNL     1       1.866   5.076  -1.577  0.00  0.00    +0.025 A 
ATOM     33  C   UNL     1       2.066   4.147  -0.565  0.00  0.00    +0.033 A 
ATOM     34  C   UNL     1       0.976   3.579   0.082  0.00  0.00    +0.025 A 
ATOM     35  C   UNL     1      -0.306   3.948  -0.272  0.00  0.00    +0.025 A 
BRANCH  33  36
ATOM     36  N   UNL     1       3.367   3.777  -0.201  0.00  0.00    -0.286 N 
ATOM     37  C   UNL     1       4.360   4.689  -0.231  0.00  0.00    +0.214 C 
ATOM     38  O   UNL     1       4.145   5.806  -0.653  0.00  0.00    -0.276 OA
ATOM     39  C   UNL     1       5.736   4.320   0.260  0.00  0.00    +0.109 C 
ATOM     40  H   UNL     1       3.579   2.744   0.110  0.00  0.00    +0.155 HD
ENDBRANCH  33  36
ENDBRANCH  28  30
ENDBRANCH  25  26
ENDBRANCH   1  25
TORSDOF 8
