REMARK  Name = ZINC44797480
REMARK  8 active torsions:
REMARK  status: ('A' for Active; 'I' for Inactive)
REMARK    1  A    between atoms: C_1  and  C_2
REMARK    2  A    between atoms: C_2  and  C_3
REMARK    3  A    between atoms: C_3  and  C_5
REMARK    4  A    between atoms: C_3  and  C_7
REMARK    5  A    between atoms: C_5  and  N_6
REMARK    6  A    between atoms: N_9  and  C_10
REMARK    7  A    between atoms: C_10  and  C_12
REMARK    8  A    between atoms: C_10  and  C_13
REMARK                            x       y       z     vdW  Elec       q    Type
REMARK                         _______ _______ _______ _____ _____    ______ ____
ROOT
ATOM      1  C   UNL     1       0.397  -1.972  -1.529  0.00  0.00    +0.215 C 
ATOM      2  O   UNL     1       1.352  -2.703  -1.686  0.00  0.00    -0.276 OA
ATOM      3  N   UNL     1      -0.851  -2.481  -1.547  0.00  0.00    -0.312 N 
ATOM      4  H   UNL     1      -1.615  -1.897  -1.422  0.00  0.00    +0.149 HD
ENDROOT
BRANCH   3   5
ATOM      5  C   UNL     1      -1.054  -3.917  -1.756  0.00  0.00    +0.076 C 
ATOM      6  C   UNL     1      -1.068  -4.217  -3.256  0.00  0.00    +0.028 C 
BRANCH   5   7
ATOM      7  C   UNL     1      -2.389  -4.338  -1.139  0.00  0.00    -0.010 C 
ATOM      8  C   UNL     1      -3.526  -3.561  -1.805  0.00  0.00    +0.012 C 
ATOM      9  C   UNL     1      -4.862  -3.982  -1.188  0.00  0.00    -0.010 C 
ATOM     10  C   UNL     1      -5.074  -5.481  -1.406  0.00  0.00    +0.007 C 
ATOM     11  C   UNL     1      -3.937  -6.259  -0.741  0.00  0.00    -0.010 C 
ATOM     12  C   UNL     1      -2.601  -5.838  -1.357  0.00  0.00    +0.012 C 
ATOM     13  C   UNL     1      -3.923  -5.959   0.759  0.00  0.00    +0.007 C 
ATOM     14  C   UNL     1      -3.711  -4.459   0.977  0.00  0.00    -0.010 C 
ATOM     15  C   UNL     1      -4.848  -3.681   0.312  0.00  0.00    +0.007 C 
ATOM     16  C   UNL     1      -2.376  -4.038   0.361  0.00  0.00    +0.012 C 
ENDBRANCH   5   7
ENDBRANCH   3   5
BRANCH   1  17
ATOM     17  C   UNL     1       0.605  -0.495  -1.315  0.00  0.00    +0.057 C 
BRANCH  17  19
ATOM     18  C   UNL     1       0.104   1.431   0.196  0.00  0.00    +0.004 C 
ATOM     19  C   UNL     1       0.021  -0.089   0.040  0.00  0.00    +0.007 C 
ENDBRANCH  17  19
BRANCH  17  20
ATOM     20  C   UNL     1       2.103  -0.183  -1.338  0.00  0.00    -0.074 C 
BRANCH  20  21
ATOM     21  N   UNL     1       2.635  -0.436  -2.684  0.00  0.00    +0.379 N 
ATOM     22  H   UNL     1       2.566  -1.421  -2.893  0.00  0.00    -0.090 HD
ATOM     23  H   UNL     1       2.102   0.089  -3.361  0.00  0.00    -0.090 HD
ATOM     24  H   UNL     1       3.602  -0.151  -2.723  0.00  0.00    -0.090 HD
ENDBRANCH  20  21
ENDBRANCH  17  20
ENDBRANCH   1  17
TORSDOF 6
