REMARK  Name = ZINC63373343
REMARK  10 active torsions:
REMARK  status: ('A' for Active; 'I' for Inactive)
REMARK    1  A    between atoms: C_1  and  C_2
REMARK    2  A    between atoms: C_2  and  C_3
REMARK    3  A    between atoms: C_3  and  O_4
REMARK    4  A    between atoms: O_4  and  C_5
REMARK    5  A    between atoms: C_8  and  C_14
REMARK    6  A    between atoms: C_10  and  O_11
REMARK    7  A    between atoms: O_11  and  C_12
REMARK    8  A    between atoms: C_12  and  C_13
REMARK    9  A    between atoms: N_20  and  C_35
REMARK   10  A    between atoms: C_23  and  C_34
REMARK                            x       y       z     vdW  Elec       q    Type
REMARK                         _______ _______ _______ _____ _____    ______ ____
ROOT
ATOM      1  C   UNL     1       3.243  -4.423  -5.653  0.00  0.00    +0.065 C 
ATOM      2  C   UNL     1       2.558  -3.989  -6.965  0.00  0.00    +0.123 C 
ATOM      3  N   UNL     1       3.466  -4.281  -8.077  0.00  0.00    -0.268 N 
ATOM      4  C   UNL     1       3.226  -5.012  -9.173  0.00  0.00    +0.317 C 
ATOM      5  O   UNL     1       2.134  -5.460  -9.462  0.00  0.00    -0.252 OA
ATOM      6  N   UNL     1       4.327  -5.194  -9.914  0.00  0.00    -0.189 N 
ATOM      7  C   UNL     1       5.388  -4.540  -9.398  0.00  0.00    +0.253 C 
ATOM      8  O   UNL     1       6.522  -4.533  -9.826  0.00  0.00    -0.272 OA
ATOM      9  C   UNL     1       4.869  -3.817  -8.174  0.00  0.00    +0.137 C 
ATOM     10  C   UNL     1       5.589  -4.323  -6.918  0.00  0.00    +0.139 C 
ATOM     11  C   UNL     1       4.685  -3.986  -5.737  0.00  0.00    -0.027 C 
ATOM     12  C   UNL     1       5.422  -3.266  -4.898  0.00  0.00    -0.000 A 
ATOM     13  C   UNL     1       5.131  -2.724  -3.561  0.00  0.00    +0.010 A 
ATOM     14  C   UNL     1       6.125  -2.002  -2.978  0.00  0.00    +0.001 A 
ATOM     15  C   UNL     1       7.362  -1.768  -3.585  0.00  0.00    +0.002 A 
ATOM     16  C   UNL     1       7.718  -2.234  -4.809  0.00  0.00    +0.026 A 
ATOM     17  C   UNL     1       6.758  -3.014  -5.517  0.00  0.00    +0.043 A 
ATOM     18  N   UNL     1       6.843  -3.601  -6.689  0.00  0.00    -0.375 N 
ATOM     19  C   UNL     1       4.963  -2.297  -8.324  0.00  0.00    +0.044 C 
ATOM     20  H   UNL     1       7.597  -3.567  -7.297  0.00  0.00    +0.160 HD
ENDROOT
BRANCH   6  21
ATOM     21  C   UNL     1       4.372  -5.968 -11.083  0.00  0.00    +0.081 A 
ATOM     22  C   UNL     1       4.120  -5.383 -12.316  0.00  0.00    +0.027 A 
ATOM     23  C   UNL     1       4.164  -6.147 -13.465  0.00  0.00    +0.002 A 
ATOM     24  C   UNL     1       4.459  -7.496 -13.389  0.00  0.00    +0.003 A 
ATOM     25  C   UNL     1       4.711  -8.085 -12.164  0.00  0.00    +0.040 A 
ATOM     26  C   UNL     1       4.673  -7.323 -11.010  0.00  0.00    +0.145 A 
ATOM     27  F   UNL     1       4.925  -7.897  -9.812  0.00  0.00    -0.204 F 
ENDBRANCH   6  21
BRANCH   1  31
ATOM     28  C   UNL     1       1.342  -2.530  -2.323  0.00  0.00    +0.162 A 
ATOM     29  C   UNL     1       1.908  -1.763  -3.329  0.00  0.00    +0.050 A 
ATOM     30  C   UNL     1       2.522  -2.378  -4.404  0.00  0.00    +0.008 A 
ATOM     31  C   UNL     1       2.573  -3.758  -4.479  0.00  0.00    -0.035 A 
ATOM     32  C   UNL     1       2.009  -4.529  -3.479  0.00  0.00    +0.053 A 
ATOM     33  C   UNL     1       1.397  -3.918  -2.396  0.00  0.00    +0.162 A 
BRANCH  28  34
ATOM     34  O   UNL     1       0.738  -1.926  -1.265  0.00  0.00    -0.488 OA
BRANCH  34  35
ATOM     35  C   UNL     1       0.718  -0.497  -1.257  0.00  0.00    +0.229 C 
BRANCH  35  37
ATOM     36  C   UNL     1      -0.019   1.526   0.010  0.00  0.00    +0.007 C 
ATOM     37  C   UNL     1       0.002  -0.004   0.002  0.00  0.00    +0.038 C 
ENDBRANCH  35  37
ENDBRANCH  34  35
ENDBRANCH  28  34
BRANCH  33  38
ATOM     38  O   UNL     1       0.847  -4.675  -1.408  0.00  0.00    -0.489 OA
BRANCH  38  39
ATOM     39  C   UNL     1       0.942  -6.094  -1.549  0.00  0.00    +0.226 C 
ATOM     40  C   UNL     1       0.273  -6.771  -0.352  0.00  0.00    +0.048 C 
ENDBRANCH  38  39
ENDBRANCH  33  38
ENDBRANCH   1  31
TORSDOF 7
