REMARK  Name = ZINC08859609
REMARK  11 active torsions:
REMARK  status: ('A' for Active; 'I' for Inactive)
REMARK    1  A    between atoms: C_1  and  N_52
REMARK    2  A    between atoms: C_2  and  N_52
REMARK    3  A    between atoms: C_3  and  C_4
REMARK    4  A    between atoms: C_3  and  N_52
REMARK    5  A    between atoms: C_4  and  N_5
REMARK    6  A    between atoms: C_6  and  C_24
REMARK    7  A    between atoms: C_8  and  C_13
REMARK    8  A    between atoms: C_9  and  O_12
REMARK    9  A    between atoms: C_13  and  C_15
REMARK   10  A    between atoms: C_18  and  O_22
REMARK   11  A    between atoms: O_22  and  C_23
REMARK                            x       y       z     vdW  Elec       q    Type
REMARK                         _______ _______ _______ _____ _____    ______ ____
ROOT
ATOM      1  N   UNL     1       4.892   4.566   0.040  0.00  0.00    -0.285 N 
ATOM      2  C   UNL     1       3.831   3.552   0.029  0.00  0.00    +0.144 C 
ATOM      3  C   UNL     1       2.525   4.307   0.116  0.00  0.00    +0.071 C 
ATOM      4  C   UNL     1       2.838   5.622   0.178  0.00  0.00    +0.188 C 
ATOM      5  C   UNL     1       4.307   5.775   0.131  0.00  0.00    +0.282 C 
ATOM      6  O   UNL     1       4.900   6.835   0.167  0.00  0.00    -0.267 OA
ENDROOT
BRANCH   2   7
ATOM      7  C   UNL     1       3.978   2.632   1.214  0.00  0.00    -0.021 A 
ATOM      8  C   UNL     1       3.913   1.262   1.037  0.00  0.00    +0.006 A 
ATOM      9  C   UNL     1       4.049   0.418   2.123  0.00  0.00    +0.001 A 
ATOM     10  C   UNL     1       4.248   0.943   3.386  0.00  0.00    +0.015 A 
ATOM     11  C   UNL     1       4.311   2.313   3.563  0.00  0.00    +0.018 A 
ATOM     12  C   UNL     1       4.182   3.158   2.475  0.00  0.00    +0.021 A 
ATOM     13 BR   UNL     1       4.584   3.032   5.291  0.00  0.00    -0.050 Br
ENDBRANCH   2   7
BRANCH   4  14
ATOM     14  O   UNL     1       1.947   6.637   0.271  0.00  0.00    -0.502 OA
ATOM     15  H   UNL     1       2.436   7.508   0.301  0.00  0.00    +0.292 HD
ENDBRANCH   4  14
BRANCH   3  16
ATOM     16  C   UNL     1       1.179   3.727   0.136  0.00  0.00    +0.195 C 
ATOM     17  O   UNL     1       0.466   3.877   1.111  0.00  0.00    -0.287 OA
BRANCH  16  18
ATOM     18  C   UNL     1       0.688   2.960  -1.026  0.00  0.00    +0.024 A 
ATOM     19  C   UNL     1       1.476   2.851  -2.177  0.00  0.00    +0.015 A 
ATOM     20  C   UNL     1       1.015   2.135  -3.259  0.00  0.00    +0.048 A 
ATOM     21  C   UNL     1      -0.232   1.522  -3.210  0.00  0.00    +0.138 A 
ATOM     22  C   UNL     1      -1.019   1.628  -2.067  0.00  0.00    +0.083 A 
ATOM     23  C   UNL     1      -0.565   2.342  -0.980  0.00  0.00    +0.035 A 
ATOM     24 CL   UNL     1      -2.574   0.859  -2.012  0.00  0.00    -0.080 Cl
BRANCH  21  25
ATOM     25  O   UNL     1      -0.682   0.818  -4.279  0.00  0.00    -0.494 OA
ATOM     26  C   UNL     1       0.176   0.750  -5.419  0.00  0.00    +0.277 C 
ENDBRANCH  21  25
ENDBRANCH  16  18
ENDBRANCH   3  16
BRANCH   1  27
ATOM     27  C   UNL     1       6.332   4.308  -0.030  0.00  0.00    +0.090 C 
BRANCH  27  28
ATOM     28  C   UNL     1       6.889   4.138   1.385  0.00  0.00    -0.060 C 
BRANCH  28  31
ATOM     29  C   UNL     1       8.945   3.944   2.648  0.00  0.00    -0.097 C 
ATOM     30  C   UNL     1       8.606   2.585   0.673  0.00  0.00    -0.097 C 
ATOM     31  N   UNL     1       8.345   3.899   1.298  0.00  0.00    +0.377 N 
ATOM     32  H   UNL     1       8.770   4.634   0.720  0.00  0.00    -0.083 HD
ENDBRANCH  28  31
ENDBRANCH  27  28
ENDBRANCH   1  27
TORSDOF 8
