REMARK  Name = ZINC08965804
REMARK  11 active torsions:
REMARK  status: ('A' for Active; 'I' for Inactive)
REMARK    1  A    between atoms: C_1  and  C_2
REMARK    2  A    between atoms: C_2  and  O_3
REMARK    3  A    between atoms: O_3  and  C_4
REMARK    4  A    between atoms: C_4  and  C_6
REMARK    5  A    between atoms: C_7  and  C_27
REMARK    6  A    between atoms: C_10  and  N_11
REMARK    7  A    between atoms: C_12  and  C_14
REMARK    8  A    between atoms: C_14  and  N_64
REMARK    9  A    between atoms: C_20  and  C_22
REMARK   10  A    between atoms: C_30  and  C_34
REMARK   11  A    between atoms: C_32  and  C_33
REMARK                            x       y       z     vdW  Elec       q    Type
REMARK                         _______ _______ _______ _____ _____    ______ ____
ROOT
ATOM      1  N   UNL     1      -1.262   2.448   0.298  0.00  0.00    -0.281 N 
ATOM      2  C   UNL     1      -0.141   1.707   0.395  0.00  0.00    +0.201 C 
ATOM      3  O   UNL     1      -0.210   0.496   0.363  0.00  0.00    -0.278 OA
ATOM      4  H   UNL     1      -1.207   3.417   0.323  0.00  0.00    +0.155 HD
ENDROOT
BRANCH   1   9
ATOM      5  C   UNL     1      -3.746   2.418   0.049  0.00  0.00    +0.095 A 
ATOM      6  C   UNL     1      -4.879   1.522  -0.083  0.00  0.00    +0.005 A 
ATOM      7  C   UNL     1      -4.609   0.192  -0.083  0.00  0.00    +0.056 A 
ATOM      8  S   UNL     1      -2.838   0.133   0.085  0.00  0.00    -0.080 S 
ATOM      9  C   UNL     1      -2.494   1.828   0.162  0.00  0.00    +0.086 A 
BRANCH   6  10
ATOM     10  C   UNL     1      -6.264   2.034  -0.211  0.00  0.00    -0.014 A 
ATOM     11  C   UNL     1      -6.932   2.533   0.906  0.00  0.00    +0.009 A 
ATOM     12  C   UNL     1      -8.222   3.009   0.781  0.00  0.00    +0.004 A 
ATOM     13  C   UNL     1      -8.852   2.990  -0.451  0.00  0.00    -0.050 A 
ATOM     14  C   UNL     1      -8.194   2.497  -1.563  0.00  0.00    +0.007 A 
ATOM     15  C   UNL     1      -6.902   2.024  -1.451  0.00  0.00    -0.042 A 
ATOM     16  C   UNL     1      -6.185   1.492  -2.665  0.00  0.00    +0.044 C 
ATOM     17  C   UNL     1     -10.260   3.511  -0.582  0.00  0.00    +0.044 C 
ENDBRANCH   6  10
BRANCH   5  18
ATOM     18  C   UNL     1      -3.914   3.871   0.062  0.00  0.00    +0.342 C 
ATOM     19  O   UNL     1      -3.970   4.487  -0.985  0.00  0.00    -0.245 OA
BRANCH  18  20
ATOM     20  O   UNL     1      -4.007   4.528   1.237  0.00  0.00    -0.461 OA
BRANCH  20  22
ATOM     21  C   UNL     1      -4.258   6.535   2.594  0.00  0.00    +0.048 C 
ATOM     22  C   UNL     1      -4.172   5.969   1.174  0.00  0.00    +0.229 C 
ENDBRANCH  20  22
ENDBRANCH  18  20
ENDBRANCH   5  18
ENDBRANCH   1   9
BRANCH   2  23
ATOM     23  C   UNL     1       1.199   2.382   0.536  0.00  0.00    +0.019 C 
BRANCH  23  31
ATOM     24  C   UNL     1       2.125   0.565   1.842  0.00  0.00    -0.059 C 
ATOM     25  C   UNL     1       3.125  -0.595   1.801  0.00  0.00    +0.089 C 
ATOM     26  N   UNL     1       4.468  -0.046   1.554  0.00  0.00    -0.299 N 
ATOM     27  C   UNL     1       4.646   0.873   0.420  0.00  0.00    +0.089 C 
ATOM     28  C   UNL     1       3.586   1.975   0.515  0.00  0.00    -0.059 C 
ATOM     29  C   UNL     1       5.506  -0.377   2.346  0.00  0.00    +0.282 C 
ATOM     30  O   UNL     1       6.623   0.032   2.088  0.00  0.00    -0.267 OA
ATOM     31  N   UNL     1       2.250   1.345   0.591  0.00  0.00    +0.387 N 
ATOM     32  H   UNL     1       2.135   0.711  -0.208  0.00  0.00    -0.081 HD
BRANCH  29  33
ATOM     33  C   UNL     1       5.291  -1.230   3.520  0.00  0.00    +0.189 A 
ATOM     34  C   UNL     1       6.221  -1.533   4.473  0.00  0.00    +0.054 A 
ATOM     35  C   UNL     1       5.587  -2.371   5.403  0.00  0.00    +0.042 A 
ATOM     36  C   UNL     1       4.314  -2.542   4.982  0.00  0.00    +0.196 A 
ATOM     37  O   UNL     1       4.138  -1.848   3.850  0.00  0.00    -0.458 OA
ENDBRANCH  29  33
ENDBRANCH  23  31
ENDBRANCH   2  23
TORSDOF 8
