REMARK  Name = ZINC20167908
REMARK  12 active torsions:
REMARK  status: ('A' for Active; 'I' for Inactive)
REMARK    1  A    between atoms: C_1  and  C_2
REMARK    2  A    between atoms: C_2  and  O_3
REMARK    3  A    between atoms: O_3  and  C_4
REMARK    4  A    between atoms: C_4  and  C_6
REMARK    5  A    between atoms: C_7  and  N_36
REMARK    6  A    between atoms: C_9  and  C_10
REMARK    7  A    between atoms: C_13  and  O_16
REMARK    8  A    between atoms: C_18  and  C_32
REMARK    9  A    between atoms: C_20  and  C_25
REMARK   10  A    between atoms: C_28  and  O_31
REMARK   11  A    between atoms: C_32  and  O_34
REMARK   12  A    between atoms: O_34  and  C_35
REMARK                            x       y       z     vdW  Elec       q    Type
REMARK                         _______ _______ _______ _____ _____    ______ ____
ROOT
ATOM      1  C   UNL     1      -3.522   6.622  -0.413  0.00  0.00    +0.155 A 
ATOM      2  C   UNL     1      -2.669   5.667  -0.919  0.00  0.00    +0.065 A 
ATOM      3  C   UNL     1      -1.313   6.244  -0.912  0.00  0.00    +0.024 A 
ATOM      4  C   UNL     1      -0.151   5.660  -1.378  0.00  0.00    +0.019 C 
ATOM      5  C   UNL     1      -1.462   7.573  -0.310  0.00  0.00    +0.079 A 
ATOM      6  C   UNL     1      -0.452   8.468  -0.003  0.00  0.00    +0.118 C 
ATOM      7  S   UNL     1      -0.907   9.979   0.797  0.00  0.00    -0.099 S 
ATOM      8  C   UNL     1      -2.609  10.251   0.223  0.00  0.00    +0.170 C 
ATOM      9  C   UNL     1      -3.375   8.956   0.281  0.00  0.00    +0.250 C 
ATOM     10  O   UNL     1      -4.518   8.959   0.685  0.00  0.00    -0.271 OA
ATOM     11  N   UNL     1      -2.815   7.793  -0.108  0.00  0.00    -0.270 N 
ENDROOT
BRANCH   4  12
ATOM     12  C   UNL     1      -0.211   4.396  -2.114  0.00  0.00    -0.024 A 
ATOM     13  C   UNL     1       0.728   3.386  -1.856  0.00  0.00    +0.011 A 
ATOM     14  C   UNL     1       0.666   2.204  -2.548  0.00  0.00    +0.046 A 
ATOM     15  C   UNL     1      -0.325   2.006  -3.504  0.00  0.00    +0.117 A 
ATOM     16  C   UNL     1      -1.255   3.006  -3.768  0.00  0.00    +0.046 A 
ATOM     17  C   UNL     1      -1.207   4.190  -3.079  0.00  0.00    +0.011 A 
BRANCH  15  18
ATOM     18  O   UNL     1      -0.381   0.834  -4.186  0.00  0.00    -0.507 OA
ATOM     19  H   UNL     1      -1.163   0.674  -4.943  0.00  0.00    +0.292 HD
ENDBRANCH  15  18
ENDBRANCH   4  12
BRANCH   8  20
ATOM     20  C   UNL     1      -2.584  10.755  -1.197  0.00  0.00    -0.025 A 
ATOM     21  C   UNL     1      -2.009   9.988  -2.193  0.00  0.00    +0.009 A 
ATOM     22  C   UNL     1      -1.990  10.445  -3.496  0.00  0.00    +0.046 A 
ATOM     23  C   UNL     1      -2.540  11.681  -3.804  0.00  0.00    +0.117 A 
ATOM     24  C   UNL     1      -3.112  12.452  -2.802  0.00  0.00    +0.046 A 
ATOM     25  C   UNL     1      -3.133  11.987  -1.502  0.00  0.00    +0.009 A 
BRANCH  23  26
ATOM     26  O   UNL     1      -2.518  12.136  -5.084  0.00  0.00    -0.507 OA
ATOM     27  H   UNL     1      -2.955  13.116  -5.327  0.00  0.00    +0.292 HD
ENDBRANCH  23  26
ENDBRANCH   8  20
BRANCH   2  28
ATOM     28  N   UNL     1      -3.019   4.401  -1.351  0.00  0.00    -0.356 N 
ATOM     29  H   UNL     1      -2.248   3.719  -1.739  0.00  0.00    +0.142 HD
ATOM     30  H   UNL     1      -4.069   4.075  -1.307  0.00  0.00    +0.142 HD
ENDBRANCH   2  28
BRANCH   1  31
ATOM     31  C   UNL     1      -4.911   6.450  -0.233  0.00  0.00    +0.358 C 
ATOM     32  O   UNL     1      -5.679   7.348  -0.524  0.00  0.00    -0.243 OA
BRANCH  31  33
ATOM     33  O   UNL     1      -5.388   5.287   0.262  0.00  0.00    -0.460 OA
BRANCH  33  35
ATOM     34  C   UNL     1      -7.154   3.805   0.987  0.00  0.00    +0.048 C 
ATOM     35  C   UNL     1      -6.804   5.182   0.418  0.00  0.00    +0.229 C 
ENDBRANCH  33  35
ENDBRANCH  31  33
ENDBRANCH   1  31
BRANCH   6  36
ATOM     36  C   UNL     1       0.896   8.184  -0.317  0.00  0.00    +0.347 C 
ATOM     37  O   UNL     1       1.639   7.734   0.537  0.00  0.00    -0.244 OA
BRANCH  36  38
ATOM     38  O   UNL     1       1.361   8.413  -1.565  0.00  0.00    -0.464 OA
ATOM     39  C   UNL     1       2.734   8.103  -1.812  0.00  0.00    +0.280 C 
ENDBRANCH  36  38
ENDBRANCH   6  36
TORSDOF 10
