REMARK  Name = ZINC35382315
REMARK  3 active torsions:
REMARK  status: ('A' for Active; 'I' for Inactive)
REMARK    1  A    between atoms: C_6  and  C_7
REMARK    2  A    between atoms: C_7  and  C_9
REMARK    3  A    between atoms: C_7  and  N_15
REMARK                            x       y       z     vdW  Elec       q    Type
REMARK                         _______ _______ _______ _____ _____    ______ ____
ROOT
ATOM      1  C   UNL     1      -0.017   1.379   0.010  0.00  0.00    +0.004 A 
ATOM      2  C   UNL     1       1.169   2.072   0.002  0.00  0.00    +0.024 A 
ATOM      3  C   UNL     1       2.408   1.409  -0.018  0.00  0.00    +0.037 A 
ATOM      4  C   UNL     1       2.420   0.030  -0.030  0.00  0.00    -0.026 A 
ATOM      5  C   UNL     1       1.210  -0.664  -0.016  0.00  0.00    +0.007 A 
ATOM      6  C   UNL     1       0.002  -0.004   0.002  0.00  0.00    -0.054 A 
ATOM      7  C   UNL     1       3.648  -0.820  -0.064  0.00  0.00    +0.037 C 
ATOM      8  C   UNL     1       4.790  -0.281  -0.868  0.00  0.00    +0.014 C 
ATOM      9  C   UNL     1       5.556   0.814  -0.165  0.00  0.00    +0.096 C 
ATOM     10  C   UNL     1       4.796   2.091  -0.133  0.00  0.00    +0.217 C 
ATOM     11  O   UNL     1       5.446   3.109  -0.237  0.00  0.00    -0.275 OA
ATOM     12  N   UNL     1       3.507   2.235  -0.006  0.00  0.00    -0.285 N 
ATOM     13  H   UNL     1       3.260   3.163   0.131  0.00  0.00    +0.155 HD
ENDROOT
BRANCH   6  14
ATOM     14  C   UNL     1      -1.289  -0.782   0.014  0.00  0.00    +0.023 C 
BRANCH  14  15
ATOM     15  C   UNL     1      -1.829  -0.837   1.420  0.00  0.00    +0.096 A 
ATOM     16  C   UNL     1      -1.705  -1.873   2.270  0.00  0.00    +0.044 A 
ATOM     17  C   UNL     1      -2.354  -1.498   3.469  0.00  0.00    +0.057 A 
ATOM     18  C   UNL     1      -2.836  -0.256   3.280  0.00  0.00    +0.170 A 
ATOM     19  O   UNL     1      -2.509   0.142   2.039  0.00  0.00    -0.454 OA
ATOM     20 BR   UNL     1      -3.802   0.761   4.549  0.00  0.00    -0.008 Br
ENDBRANCH  14  15
BRANCH  14  21
ATOM     21  N   UNL     1      -2.267  -0.121  -0.860  0.00  0.00    +0.387 N 
ATOM     22  H   UNL     1      -2.436   0.817  -0.527  0.00  0.00    -0.089 HD
ATOM     23  H   UNL     1      -1.905  -0.084  -1.801  0.00  0.00    -0.089 HD
ATOM     24  H   UNL     1      -3.131  -0.641  -0.852  0.00  0.00    -0.089 HD
ENDBRANCH  14  21
ENDBRANCH   6  14
TORSDOF 3
