REMARK  Name = ZINC03302179
REMARK  11 active torsions:
REMARK  status: ('A' for Active; 'I' for Inactive)
REMARK    1  A    between atoms: C_1  and  C_2
REMARK    2  A    between atoms: C_5  and  N_9
REMARK    3  A    between atoms: C_10  and  C_12
REMARK    4  A    between atoms: C_12  and  O_13
REMARK    5  A    between atoms: O_13  and  C_14
REMARK    6  A    between atoms: C_14  and  C_16
REMARK    7  A    between atoms: C_18  and  S_27
REMARK    8  A    between atoms: C_21  and  N_22
REMARK    9  A    between atoms: S_27  and  N_30
REMARK   10  A    between atoms: N_30  and  C_31
REMARK   11  A    between atoms: N_30  and  C_32
REMARK                            x       y       z     vdW  Elec       q    Type
REMARK                         _______ _______ _______ _____ _____    ______ ____
ROOT
ATOM      1  C   UNL     1      -7.198   0.774  -0.457  0.00  0.00    +0.082 A 
ATOM      2  C   UNL     1      -7.020  -0.608  -0.346  0.00  0.00    +0.045 A 
ATOM      3  C   UNL     1      -8.102  -1.452  -0.466  0.00  0.00    +0.106 A 
ATOM      4  C   UNL     1      -9.369  -0.939  -0.696  0.00  0.00    +0.030 A 
ATOM      5  C   UNL     1      -9.562   0.422  -0.809  0.00  0.00    +0.026 A 
ATOM      6  C   UNL     1      -8.484   1.290  -0.685  0.00  0.00    +0.044 A 
ENDROOT
BRANCH   6   7
ATOM      7  N   UNL     1      -8.676   2.661  -0.792  0.00  0.00    -0.329 N 
ATOM      8  C   UNL     1      -9.322   3.009  -2.083  0.00  0.00    +0.105 C 
ATOM      9  C   UNL     1      -9.921   4.412  -1.814  0.00  0.00    +0.020 C 
ATOM     10  C   UNL     1     -10.408   4.305  -0.350  0.00  0.00    +0.020 C 
ATOM     11  C   UNL     1      -9.592   3.152   0.262  0.00  0.00    +0.105 C 
ENDBRANCH   6   7
BRANCH   3  12
ATOM     12  S   UNL     1      -7.874  -3.194  -0.325  0.00  0.00    +0.060 S 
ATOM     13  O   UNL     1      -8.956  -3.802  -1.017  0.00  0.00    -0.153 OA
ATOM     14  O   UNL     1      -6.516  -3.454  -0.654  0.00  0.00    -0.153 OA
BRANCH  12  15
ATOM     15  N   UNL     1      -8.056  -3.584   1.274  0.00  0.00    -0.183 NA
ATOM     16  C   UNL     1      -9.380  -3.934   1.797  0.00  0.00    +0.131 C 
ATOM     17  C   UNL     1      -6.894  -3.579   2.167  0.00  0.00    +0.131 C 
ENDBRANCH  12  15
ENDBRANCH   3  12
BRANCH   1  18
ATOM     18  C   UNL     1      -6.046   1.682  -0.331  0.00  0.00    +0.341 C 
ATOM     19  O   UNL     1      -6.217   2.885  -0.336  0.00  0.00    -0.245 OA
BRANCH  18  20
ATOM     20  O   UNL     1      -4.802   1.179  -0.209  0.00  0.00    -0.452 OA
BRANCH  20  21
ATOM     21  C   UNL     1      -3.714   2.134  -0.088  0.00  0.00    +0.328 C 
BRANCH  21  23
ATOM     22  N   UNL     1      -1.254   2.078   0.162  0.00  0.00    -0.282 N 
ATOM     23  C   UNL     1      -2.408   1.393   0.037  0.00  0.00    +0.255 C 
ATOM     24  O   UNL     1      -2.394   0.180   0.027  0.00  0.00    -0.272 OA
ATOM     25  H   UNL     1      -1.271   3.043   0.257  0.00  0.00    +0.155 HD
BRANCH  22  30
ATOM     26  C   UNL     1       3.707  -0.676   0.117  0.00  0.00    +0.044 C 
ATOM     27  C   UNL     1       2.389   0.055   0.130  0.00  0.00    -0.049 A 
ATOM     28  C   UNL     1       1.282  -0.507  -0.479  0.00  0.00    +0.005 A 
ATOM     29  C   UNL     1       0.073   0.161  -0.468  0.00  0.00    +0.025 A 
ATOM     30  C   UNL     1      -0.031   1.397   0.155  0.00  0.00    +0.048 A 
ATOM     31  C   UNL     1       1.083   1.959   0.766  0.00  0.00    +0.039 A 
ATOM     32  C   UNL     1       2.290   1.287   0.751  0.00  0.00    +0.020 A 
ATOM     33 BR   UNL     1       0.948   3.643   1.615  0.00  0.00    -0.048 Br
ENDBRANCH  22  30
ENDBRANCH  21  23
ENDBRANCH  20  21
ENDBRANCH  18  20
ENDBRANCH   1  18
TORSDOF 8
