REMARK  Name = ZINC20876827
REMARK  10 active torsions:
REMARK  status: ('A' for Active; 'I' for Inactive)
REMARK    1  A    between atoms: C_1  and  C_2
REMARK    2  A    between atoms: C_2  and  C_4
REMARK    3  A    between atoms: C_2  and  N_10
REMARK    4  A    between atoms: N_10  and  C_11
REMARK    5  A    between atoms: C_11  and  C_12
REMARK    6  A    between atoms: C_14  and  O_31
REMARK    7  A    between atoms: C_15  and  O_19
REMARK    8  A    between atoms: O_19  and  C_20
REMARK    9  A    between atoms: C_20  and  C_21
REMARK   10  A    between atoms: O_31  and  C_32
REMARK                            x       y       z     vdW  Elec       q    Type
REMARK                         _______ _______ _______ _____ _____    ______ ____
ROOT
ATOM      1  C   UNL     1       7.666  -2.954  -1.998  0.00  0.00    -0.060 A 
ATOM      2  C   UNL     1       7.664  -1.575  -1.900  0.00  0.00    +0.051 A 
ATOM      3  C   UNL     1       6.472  -0.896  -1.704  0.00  0.00    +0.163 A 
ATOM      4  C   UNL     1       5.280  -1.605  -1.597  0.00  0.00    +0.176 A 
ATOM      5  C   UNL     1       5.288  -2.988  -1.696  0.00  0.00    +0.063 A 
ATOM      6  C   UNL     1       6.481  -3.659  -1.897  0.00  0.00    +0.021 A 
ATOM      7 BR   UNL     1       3.670  -3.956  -1.558  0.00  0.00    -0.046 Br
ENDROOT
BRANCH   3   8
ATOM      8  O   UNL     1       6.468   0.461  -1.612  0.00  0.00    -0.491 OA
ATOM      9  C   UNL     1       7.729   1.123  -1.731  0.00  0.00    +0.277 C 
ENDBRANCH   3   8
BRANCH   1  10
ATOM     10  C   UNL     1       8.962  -3.690  -2.216  0.00  0.00    -0.046 C 
BRANCH  10  11
ATOM     11  N   UNL     1       9.208  -3.832  -3.658  0.00  0.00    +0.386 N 
ATOM     12  H   UNL     1       9.260  -2.829  -4.107  0.00  0.00    -0.085 HD
ATOM     13  H   UNL     1       8.373  -4.392  -4.104  0.00  0.00    -0.085 HD
BRANCH  11  15
ATOM     14  C   UNL     1      10.214  -6.055  -3.870  0.00  0.00    -0.009 C 
ATOM     15  C   UNL     1      10.467  -4.547  -3.909  0.00  0.00    -0.044 C 
BRANCH  15  16
ATOM     16  C   UNL     1      11.001  -4.162  -5.264  0.00  0.00    -0.062 A 
ATOM     17  C   UNL     1      10.136  -4.014  -6.332  0.00  0.00    +0.002 A 
ATOM     18  C   UNL     1      10.625  -3.656  -7.574  0.00  0.00    +0.000 A 
ATOM     19  C   UNL     1      11.981  -3.456  -7.752  0.00  0.00    +0.000 A 
ATOM     20  C   UNL     1      12.848  -3.608  -6.685  0.00  0.00    +0.000 A 
ATOM     21  C   UNL     1      12.357  -3.961  -5.442  0.00  0.00    +0.002 A 
ENDBRANCH  15  16
ENDBRANCH  11  15
ENDBRANCH  10  11
ENDBRANCH   1  10
BRANCH   4  22
ATOM     22  O   UNL     1       4.108  -0.943  -1.400  0.00  0.00    -0.483 OA
BRANCH  22  23
ATOM     23  C   UNL     1       3.709  -0.717  -0.047  0.00  0.00    +0.265 C 
BRANCH  23  24
ATOM     24  C   UNL     1       2.397   0.024  -0.026  0.00  0.00    -0.007 A 
ATOM     25  C   UNL     1       1.207  -0.680  -0.016  0.00  0.00    +0.011 A 
ATOM     26  C   UNL     1       0.002  -0.004   0.002  0.00  0.00    +0.050 A 
ATOM     27  C   UNL     1      -0.017   1.383   0.010  0.00  0.00    +0.162 A 
ATOM     28  C   UNL     1       1.179   2.090   0.002  0.00  0.00    +0.162 A 
ATOM     29  C   UNL     1       2.386   1.406  -0.017  0.00  0.00    +0.056 A 
ATOM     30  O   UNL     1       1.184   3.451   0.018  0.00  0.00    -0.485 OA
ATOM     31  C   UNL     1      -0.040   4.103  -0.340  0.00  0.00    +0.270 C 
ATOM     32  C   UNL     1      -1.189   3.413   0.408  0.00  0.00    +0.270 C 
ATOM     33  O   UNL     1      -1.212   2.035   0.019  0.00  0.00    -0.485 OA
ENDBRANCH  23  24
ENDBRANCH  22  23
ENDBRANCH   4  22
TORSDOF 8
