REMARK  Name = ZINC43258298
REMARK  7 active torsions:
REMARK  status: ('A' for Active; 'I' for Inactive)
REMARK    1  A    between atoms: C_1  and  C_2
REMARK    2  A    between atoms: C_2  and  C_4
REMARK    3  A    between atoms: C_2  and  N_21
REMARK    4  A    between atoms: C_4  and  C_6
REMARK    5  A    between atoms: C_4  and  S_12
REMARK    6  A    between atoms: S_12  and  C_13
REMARK    7  A    between atoms: C_17  and  N_19
REMARK                            x       y       z     vdW  Elec       q    Type
REMARK                         _______ _______ _______ _____ _____    ______ ____
ROOT
ATOM      1  C   UNL     1       0.656  -0.635   1.239  0.00  0.00    +0.076 C 
ENDROOT
BRANCH   1   2
ATOM      2  C   UNL     1       0.701  -2.138   1.147  0.00  0.00    +0.003 A 
ATOM      3  C   UNL     1       1.778  -2.961   1.142  0.00  0.00    +0.014 A 
ATOM      4  C   UNL     1       1.579  -4.326   1.049  0.00  0.00    +0.028 A 
ATOM      5  C   UNL     1       0.311  -4.801   0.966  0.00  0.00    +0.078 A 
ATOM      6  S   UNL     1      -0.651  -3.298   1.027  0.00  0.00    -0.081 S 
ATOM      7 CL   UNL     1      -0.235  -6.444   0.841  0.00  0.00    -0.076 Cl
ENDBRANCH   1   2
BRANCH   1   9
ATOM      8  C   UNL     1       0.804  -0.389  -1.243  0.00  0.00    -0.013 C 
ATOM      9  C   UNL     1      -0.035  -0.069  -0.004  0.00  0.00    -0.060 C 
BRANCH   9  10
ATOM     10  N   UNL     1      -0.172   1.387   0.132  0.00  0.00    +0.381 N 
ATOM     11  H   UNL     1       0.742   1.804   0.228  0.00  0.00    -0.090 HD
ATOM     12  H   UNL     1      -0.627   1.760  -0.687  0.00  0.00    -0.090 HD
ATOM     13  H   UNL     1      -0.725   1.598   0.950  0.00  0.00    -0.090 HD
ENDBRANCH   9  10
ENDBRANCH   1   9
BRANCH   1  14
ATOM     14  S   UNL     1      -0.271  -0.146   2.720  0.00  0.00    -0.079 S 
BRANCH  14  15
ATOM     15  C   UNL     1       0.761  -0.656   4.055  0.00  0.00    +0.192 A 
ATOM     16  N   UNL     1       1.879  -1.316   3.791  0.00  0.00    -0.207 NA
ATOM     17  C   UNL     1       2.682  -1.716   4.774  0.00  0.00    +0.122 A 
ATOM     18  C   UNL     1       2.334  -1.433   6.091  0.00  0.00    +0.086 A 
ATOM     19  C   UNL     1       1.152  -0.737   6.329  0.00  0.00    +0.122 A 
ATOM     20  N   UNL     1       0.401  -0.364   5.296  0.00  0.00    -0.207 NA
ATOM     21  N   UNL     1       3.850  -2.407   4.489  0.00  0.00    -0.343 N 
ATOM     22  H   UNL     1       4.086  -2.602   3.568  0.00  0.00    +0.144 HD
ATOM     23  H   UNL     1       4.431  -2.696   5.210  0.00  0.00    +0.144 HD
BRANCH  19  24
ATOM     24  N   UNL     1       0.765  -0.433   7.625  0.00  0.00    -0.343 N 
ATOM     25  H   UNL     1       1.320  -0.705   8.373  0.00  0.00    +0.144 HD
ATOM     26  H   UNL     1      -0.059   0.052   7.784  0.00  0.00    +0.144 HD
ENDBRANCH  19  24
ENDBRANCH  14  15
ENDBRANCH   1  14
TORSDOF 6
