REMARK  Name = ZINC67479379
REMARK  7 active torsions:
REMARK  status: ('A' for Active; 'I' for Inactive)
REMARK    1  A    between atoms: C_1  and  C_2
REMARK    2  A    between atoms: C_6  and  C_8
REMARK    3  A    between atoms: N_10  and  N_11
REMARK    4  A    between atoms: N_14  and  C_15
REMARK    5  A    between atoms: C_15  and  C_16
REMARK    6  A    between atoms: C_16  and  C_18
REMARK    7  A    between atoms: C_16  and  O_28
REMARK                            x       y       z     vdW  Elec       q    Type
REMARK                         _______ _______ _______ _____ _____    ______ ____
ROOT
ATOM      1  N   UNL     1       0.086  -4.905   3.652  0.00  0.00    -0.218 N 
ATOM      2  C   UNL     1       0.103  -6.252   3.639  0.00  0.00    +0.316 C 
ATOM      3  O   UNL     1       0.117  -6.870   4.686  0.00  0.00    -0.251 OA
ATOM      4  N   UNL     1       0.106  -6.915   2.466  0.00  0.00    -0.295 N 
ATOM      5  H   UNL     1       0.083  -4.428   4.496  0.00  0.00    +0.174 HD
ATOM      6  H   UNL     1       0.096  -6.423   1.630  0.00  0.00    +0.150 HD
ENDROOT
BRANCH   1   9
ATOM      7  C   UNL     1       0.053  -2.845   2.458  0.00  0.00    +0.260 C 
ATOM      8  O   UNL     1       0.050  -2.248   3.516  0.00  0.00    -0.269 OA
ATOM      9  N   UNL     1       0.070  -4.193   2.445  0.00  0.00    -0.229 N 
ATOM     10  H   UNL     1       0.073  -4.670   1.601  0.00  0.00    +0.173 HD
BRANCH   7  16
ATOM     11  C   UNL     1      -0.018   1.503   0.010  0.00  0.00    +0.044 C 
ATOM     12  C   UNL     1       0.002  -0.004   0.002  0.00  0.00    -0.050 A 
ATOM     13  C   UNL     1       0.006  -0.688  -1.201  0.00  0.00    +0.003 A 
ATOM     14  C   UNL     1       0.025  -2.071  -1.218  0.00  0.00    +0.001 A 
ATOM     15  C   UNL     1       0.040  -2.778  -0.033  0.00  0.00    +0.013 A 
ATOM     16  C   UNL     1       0.036  -2.095   1.184  0.00  0.00    +0.038 A 
ATOM     17  C   UNL     1       0.023  -0.699   1.194  0.00  0.00    +0.016 A 
ENDBRANCH   7  16
ENDBRANCH   1   9
BRANCH   4  18
ATOM     18  C   UNL     1       0.126  -8.380   2.452  0.00  0.00    +0.142 C 
BRANCH  18  19
ATOM     19  C   UNL     1       0.125  -8.877   1.005  0.00  0.00    +0.162 C 
BRANCH  19  20
ATOM     20  C   UNL     1       0.021 -10.380   0.990  0.00  0.00    -0.017 A 
ATOM     21  C   UNL     1       1.159 -11.149   1.227  0.00  0.00    +0.007 A 
ATOM     22  C   UNL     1       1.100 -12.509   1.220  0.00  0.00    +0.009 A 
ATOM     23  C   UNL     1      -0.126 -13.150   0.971  0.00  0.00    -0.018 A 
ATOM     24  C   UNL     1      -0.226 -14.552   0.956  0.00  0.00    +0.008 A 
ATOM     25  C   UNL     1      -1.430 -15.138   0.711  0.00  0.00    +0.001 A 
ATOM     26  C   UNL     1      -2.568 -14.369   0.474  0.00  0.00    +0.001 A 
ATOM     27  C   UNL     1      -2.508 -13.009   0.480  0.00  0.00    +0.008 A 
ATOM     28  C   UNL     1      -1.283 -12.368   0.730  0.00  0.00    -0.018 A 
ATOM     29  C   UNL     1      -1.183 -10.966   0.750  0.00  0.00    +0.014 A 
ENDBRANCH  19  20
BRANCH  19  30
ATOM     30  O   UNL     1       1.338  -8.477   0.364  0.00  0.00    -0.386 OA
ATOM     31  H   UNL     1       2.138  -8.822   0.784  0.00  0.00    +0.210 HD
ENDBRANCH  19  30
ENDBRANCH  18  19
ENDBRANCH   4  18
TORSDOF 6
