REMARK  Name = ZINC67645128
REMARK  9 active torsions:
REMARK  status: ('A' for Active; 'I' for Inactive)
REMARK    1  A    between atoms: C_1  and  C_2
REMARK    2  A    between atoms: C_7  and  C_9
REMARK    3  A    between atoms: C_7  and  N_25
REMARK    4  A    between atoms: C_9  and  N_10
REMARK    5  A    between atoms: N_13  and  C_14
REMARK    6  A    between atoms: N_19  and  S_21
REMARK    7  A    between atoms: S_21  and  C_24
REMARK    8  A    between atoms: N_25  and  C_26
REMARK    9  A    between atoms: N_25  and  C_27
REMARK                            x       y       z     vdW  Elec       q    Type
REMARK                         _______ _______ _______ _____ _____    ______ ____
ROOT
ATOM      1  N   UNL     1       1.149  -4.115   2.383  0.00  0.00    -0.301 N 
ATOM      2  C   UNL     1       1.601  -4.886   3.392  0.00  0.00    +0.300 C 
ATOM      3  O   UNL     1       2.207  -4.381   4.318  0.00  0.00    -0.253 OA
ATOM      4  N   UNL     1       1.381  -6.215   3.375  0.00  0.00    -0.295 N 
ATOM      5  H   UNL     1       0.666  -4.517   1.644  0.00  0.00    +0.150 HD
ATOM      6  H   UNL     1       0.898  -6.618   2.636  0.00  0.00    +0.151 HD
ENDROOT
BRANCH   4   7
ATOM      7  C   UNL     1       1.873  -7.053   4.472  0.00  0.00    +0.090 C 
ATOM      8  C   UNL     1       3.329  -7.440   4.206  0.00  0.00    +0.025 C 
ATOM      9  C   UNL     1       3.854  -8.288   5.367  0.00  0.00    +0.019 C 
ATOM     10  C   UNL     1       3.024  -9.571   5.473  0.00  0.00    +0.109 C 
ATOM     11  N   UNL     1       1.604  -9.209   5.583  0.00  0.00    -0.180 NA
ATOM     12  C   UNL     1       1.020  -8.322   4.568  0.00  0.00    +0.131 C 
BRANCH  11  13
ATOM     13  S   UNL     1       0.680  -9.789   6.829  0.00  0.00    +0.029 S 
ATOM     14  O   UNL     1      -0.649  -9.786   6.325  0.00  0.00    -0.158 OA
ATOM     15  O   UNL     1       1.307 -11.006   7.210  0.00  0.00    -0.158 OA
ATOM     16  C   UNL     1       0.851  -8.557   8.149  0.00  0.00    +0.215 C 
ENDBRANCH  11  13
ENDBRANCH   4   7
BRANCH   1  17
ATOM     17  C   UNL     1       1.388  -2.670   2.401  0.00  0.00    +0.094 C 
BRANCH  17  23
ATOM     18  C   UNL     1       1.111  -2.509  -2.585  0.00  0.00    +0.007 C 
ATOM     19  C   UNL     1       0.543  -1.940  -1.284  0.00  0.00    -0.015 C 
ATOM     20  C   UNL     1      -0.957  -2.236  -1.210  0.00  0.00    +0.003 C 
ATOM     21  C   UNL     1      -1.525  -1.667   0.092  0.00  0.00    -0.001 C 
ATOM     22  C   UNL     1      -0.819  -2.316   1.283  0.00  0.00    -0.010 C 
ATOM     23  C   UNL     1       0.681  -2.021   1.210  0.00  0.00    -0.050 C 
ATOM     24  C   UNL     1       1.250  -2.589  -0.092  0.00  0.00    -0.007 C 
BRANCH  23  25
ATOM     25  N   UNL     1       0.896  -0.568   1.245  0.00  0.00    +0.381 N 
ATOM     26  C   UNL     1       0.328  -0.019   2.483  0.00  0.00    -0.096 C 
ATOM     27  C   UNL     1       2.337  -0.285   1.199  0.00  0.00    -0.096 C 
ATOM     28  H   UNL     1       0.444  -0.142   0.449  0.00  0.00    -0.082 HD
ENDBRANCH  23  25
ENDBRANCH  17  23
ENDBRANCH   1  17
TORSDOF 5
