REMARK  Name = ZINC09332239
REMARK  10 active torsions:
REMARK  status: ('A' for Active; 'I' for Inactive)
REMARK    1  A    between atoms: C_1  and  O_2
REMARK    2  A    between atoms: O_2  and  C_3
REMARK    3  A    between atoms: C_13  and  C_17
REMARK    4  A    between atoms: C_18  and  O_35
REMARK    5  A    between atoms: C_20  and  O_34
REMARK    6  A    between atoms: N_21  and  C_24
REMARK    7  A    between atoms: C_26  and  O_32
REMARK    8  A    between atoms: C_29  and  O_30
REMARK    9  A    between atoms: O_30  and  C_31
REMARK   10  A    between atoms: O_32  and  C_33
REMARK                            x       y       z     vdW  Elec       q    Type
REMARK                         _______ _______ _______ _____ _____    ______ ____
ROOT
ATOM      1  C   UNL     1      -1.053   3.198   7.741  0.00  0.00    +0.071 A 
ATOM      2  C   UNL     1      -2.022   2.377   8.289  0.00  0.00    +0.224 A 
ATOM      3  N   UNL     1      -2.349   1.234   7.676  0.00  0.00    -0.161 NA
ATOM      4  C   UNL     1      -1.765   0.871   6.556  0.00  0.00    +0.306 A 
ATOM      5  N   UNL     1      -0.806   1.640   5.975  0.00  0.00    -0.227 N 
ATOM      6  C   UNL     1      -0.430   2.802   6.550  0.00  0.00    +0.267 A 
ATOM      7  O   UNL     1       0.433   3.497   6.039  0.00  0.00    -0.267 OA
ENDROOT
BRANCH   1  18
ATOM      8  C   UNL     1      -1.469   9.438   5.015  0.00  0.00    +0.121 A 
ATOM      9  C   UNL     1      -2.692   8.841   4.734  0.00  0.00    +0.047 A 
ATOM     10  C   UNL     1      -3.059   7.623   5.277  0.00  0.00    +0.030 A 
ATOM     11  C   UNL     1      -2.146   7.005   6.129  0.00  0.00    +0.047 A 
ATOM     12  C   UNL     1      -0.896   7.613   6.418  0.00  0.00    +0.006 A 
ATOM     13  C   UNL     1      -0.542   8.845   5.859  0.00  0.00    +0.056 A 
ATOM     14  C   UNL     1      -0.215   6.711   7.319  0.00  0.00    -0.022 A 
ATOM     15  C   UNL     1      -1.039   5.655   7.527  0.00  0.00    +0.011 A 
ATOM     16  N   UNL     1      -2.193   5.824   6.817  0.00  0.00    -0.359 N 
ATOM     17  H   UNL     1      -2.936   5.200   6.805  0.00  0.00    +0.166 HD
ATOM     18  C   UNL     1      -0.669   4.490   8.415  0.00  0.00    +0.018 C 
ATOM     19  C   UNL     1       1.230   5.837   9.111  0.00  0.00    -0.076 C 
ATOM     20  C   UNL     1       1.147   6.843   7.955  0.00  0.00    +0.018 C 
ATOM     21  N   UNL     1       0.793   4.506   8.642  0.00  0.00    +0.388 N 
ATOM     22  H   UNL     1       1.274   4.283   7.763  0.00  0.00    -0.084 HD
ATOM     23  H   UNL     1       1.032   3.803   9.351  0.00  0.00    -0.084 HD
BRANCH   8  25
ATOM     24  C   UNL     1      -2.160  11.208   3.584  0.00  0.00    +0.277 C 
ATOM     25  O   UNL     1      -1.173  10.637   4.446  0.00  0.00    -0.495 OA
ENDBRANCH   8  25
ENDBRANCH   1  18
BRANCH   5  26
ATOM     26  C   UNL     1      -0.203   1.223   4.780  0.00  0.00    +0.099 A 
ATOM     27  C   UNL     1      -0.744   1.600   3.560  0.00  0.00    +0.075 A 
ATOM     28  C   UNL     1      -0.148   1.182   2.380  0.00  0.00    +0.122 A 
ATOM     29  C   UNL     1       0.995   0.397   2.419  0.00  0.00    +0.049 A 
ATOM     30  C   UNL     1       1.540   0.025   3.634  0.00  0.00    +0.051 A 
ATOM     31  C   UNL     1       0.945   0.435   4.816  0.00  0.00    +0.144 A 
BRANCH  31  32
ATOM     32  O   UNL     1       1.482   0.069   6.011  0.00  0.00    -0.493 OA
ATOM     33  C   UNL     1       2.659  -0.740   5.972  0.00  0.00    +0.277 C 
ENDBRANCH  31  32
BRANCH  28  34
ATOM     34  O   UNL     1      -0.682   1.547   1.184  0.00  0.00    -0.495 OA
ATOM     35  C   UNL     1      -0.013   1.086   0.008  0.00  0.00    +0.277 C 
ENDBRANCH  28  34
ENDBRANCH   5  26
BRANCH   4  36
ATOM     36  O   UNL     1      -2.125  -0.290   5.971  0.00  0.00    -0.479 OA
ATOM     37  H   UNL     1      -2.812  -0.775   6.449  0.00  0.00    +0.295 HD
ENDBRANCH   4  36
BRANCH   2  38
ATOM     38  O   UNL     1      -2.638   2.730   9.442  0.00  0.00    -0.492 OA
ATOM     39  H   UNL     1      -3.300   2.093   9.745  0.00  0.00    +0.294 HD
ENDBRANCH   2  38
TORSDOF 7
