REMARK  Name = ZINC29125545
REMARK  5 active torsions:
REMARK  status: ('A' for Active; 'I' for Inactive)
REMARK    1  A    between atoms: N_4  and  C_8
REMARK    2  A    between atoms: C_11  and  N_14
REMARK    3  A    between atoms: C_18  and  N_22
REMARK    4  A    between atoms: N_22  and  S_23
REMARK    5  A    between atoms: S_23  and  C_26
REMARK                            x       y       z     vdW  Elec       q    Type
REMARK                         _______ _______ _______ _____ _____    ______ ____
ROOT
ATOM      1  N   UNL     1       0.001  -0.004   0.001  0.00  0.00    -0.270 N 
ATOM      2  C   UNL     1      -0.023   1.454  -0.003  0.00  0.00    +0.114 C 
ATOM      3  C   UNL     1       1.401   2.013  -0.012  0.00  0.00    +0.021 C 
ATOM      4  C   UNL     1       2.188   1.333  -1.139  0.00  0.00    +0.031 C 
ATOM      5  C   UNL     1       2.371  -0.143  -0.780  0.00  0.00    +0.163 C 
ATOM      6  C   UNL     1       1.055  -0.735  -0.363  0.00  0.00    +0.238 C 
ATOM      7  O   UNL     1       0.945  -1.943  -0.358  0.00  0.00    -0.273 OA
ENDROOT
BRANCH   1  11
ATOM      8  C   UNL     1      -3.440  -2.011   1.230  0.00  0.00    +0.050 A 
ATOM      9  C   UNL     1      -3.274  -1.671  -0.107  0.00  0.00    +0.028 A 
ATOM     10  C   UNL     1      -2.135  -1.006  -0.514  0.00  0.00    +0.025 A 
ATOM     11  C   UNL     1      -1.154  -0.678   0.413  0.00  0.00    +0.036 A 
ATOM     12  C   UNL     1      -1.317  -1.023   1.749  0.00  0.00    +0.025 A 
ATOM     13  C   UNL     1      -2.459  -1.683   2.156  0.00  0.00    +0.028 A 
BRANCH   8  17
ATOM     14  C   UNL     1      -6.866  -4.003   2.453  0.00  0.00    +0.007 A 
ATOM     15  C   UNL     1      -6.815  -2.602   2.435  0.00  0.00    +0.018 A 
ATOM     16  C   UNL     1      -5.684  -1.972   2.037  0.00  0.00    +0.095 A 
ATOM     17  N   UNL     1      -4.596  -2.685   1.642  0.00  0.00    -0.284 N 
ATOM     18  C   UNL     1      -4.616  -4.031   1.649  0.00  0.00    +0.256 A 
ATOM     19  O   UNL     1      -3.629  -4.657   1.296  0.00  0.00    -0.267 OA
ATOM     20  C   UNL     1      -5.771  -4.716   2.062  0.00  0.00    +0.071 A 
ENDBRANCH   8  17
ENDBRANCH   1  11
BRANCH   5  21
ATOM     21  N   UNL     1       3.328  -0.258   0.324  0.00  0.00    -0.178 NA
ATOM     22  H   UNL     1       3.468   0.582   1.020  0.00  0.00    +0.149 HD
BRANCH  21  23
ATOM     23  S   UNL     1       4.372  -1.542   0.384  0.00  0.00    +0.065 S 
ATOM     24  O   UNL     1       5.177  -1.356   1.541  0.00  0.00    -0.153 OA
ATOM     25  O   UNL     1       3.591  -2.711   0.179  0.00  0.00    -0.153 OA
BRANCH  23  26
ATOM     26  C   UNL     1       5.448  -1.403  -1.005  0.00  0.00    +0.145 A 
ATOM     27  C   UNL     1       6.621  -0.761  -1.084  0.00  0.00    +0.046 A 
ATOM     28  C   UNL     1       7.357  -0.777  -2.339  0.00  0.00    +0.010 A 
ATOM     29  C   UNL     1       8.602  -0.179  -2.650  0.00  0.00    +0.013 A 
ATOM     30  C   UNL     1       9.109  -0.317  -3.909  0.00  0.00    +0.041 A 
ATOM     31  C   UNL     1       8.416  -1.034  -4.874  0.00  0.00    +0.131 A 
ATOM     32  N   UNL     1       7.255  -1.592  -4.586  0.00  0.00    -0.228 NA
ATOM     33  C   UNL     1       6.727  -1.485  -3.387  0.00  0.00    +0.112 A 
ATOM     34  S   UNL     1       5.229  -2.078  -2.640  0.00  0.00    -0.049 S 
ATOM     35 CL   UNL     1       9.079  -1.198  -6.470  0.00  0.00    -0.062 Cl
ENDBRANCH  23  26
ENDBRANCH  21  23
ENDBRANCH   5  21
TORSDOF 5
