REMARK  Name = ZINC04478169
REMARK  4 active torsions:
REMARK  status: ('A' for Active; 'I' for Inactive)
REMARK    1  A    between atoms: C_4  and  C_7
REMARK    2  A    between atoms: N_13  and  N_14
REMARK    3  A    between atoms: N_14  and  C_15
REMARK    4  A    between atoms: C_19  and  C_21
REMARK                            x       y       z     vdW  Elec       q    Type
REMARK                         _______ _______ _______ _____ _____    ______ ____
ROOT
ATOM      1  C   UNL     1       4.775  -1.360  -0.738  0.00  0.00    +0.269 C 
ATOM      2  O   UNL     1       5.077  -2.508  -1.001  0.00  0.00    -0.268 OA
ATOM      3  N   UNL     1       5.736  -0.425  -0.600  0.00  0.00    -0.165 N 
ATOM      4  C   UNL     1       7.088  -0.646  -0.793  0.00  0.00    +0.168 C 
ATOM      5  N   UNL     1       7.650  -1.772  -1.134  0.00  0.00    -0.282 NA
ATOM      6  C   UNL     1       7.775   0.640  -0.541  0.00  0.00    +0.161 C 
ATOM      7  N   UNL     1       9.063   0.881  -0.612  0.00  0.00    -0.176 NA
ATOM      8  C   UNL     1       6.701   1.596  -0.191  0.00  0.00    +0.138 C 
ATOM      9  N   UNL     1       5.510   0.906  -0.249  0.00  0.00    -0.240 N 
ATOM     10  H   UNL     1       8.616  -1.857  -1.116  0.00  0.00    +0.188 HD
ATOM     11  H   UNL     1       6.141   3.483   0.339  0.00  0.00    +0.157 HD
ATOM     12  H   UNL     1       4.638   1.291  -0.068  0.00  0.00    +0.172 HD
ATOM     13  N   UNL     1       6.922   2.870   0.105  0.00  0.00    -0.384 N 
ATOM     14  H   UNL     1       7.880   3.240   0.100  0.00  0.00    +0.157 HD
ENDROOT
BRANCH   1  18
ATOM     15  C   UNL     1       0.692  -0.296  -0.252  0.00  0.00    +0.000 A 
ATOM     16  C   UNL     1       1.063  -1.155  -1.271  0.00  0.00    +0.001 A 
ATOM     17  C   UNL     1       2.388  -1.505  -1.434  0.00  0.00    +0.013 A 
ATOM     18  C   UNL     1       3.354  -0.990  -0.569  0.00  0.00    +0.039 A 
ATOM     19  C   UNL     1       2.973  -0.123   0.457  0.00  0.00    +0.013 A 
ATOM     20  C   UNL     1       1.645   0.218   0.609  0.00  0.00    +0.001 A 
ENDBRANCH   1  18
BRANCH   7  21
ATOM     21  N   UNL     1       9.905  -0.096  -0.585  0.00  0.00    -0.237 N 
ATOM     22  H   UNL     1       9.585  -1.010  -0.543  0.00  0.00    +0.174 HD
BRANCH  21  23
ATOM     23  C   UNL     1      11.276   0.163  -0.616  0.00  0.00    +0.049 A 
ATOM     24  C   UNL     1      11.736   1.473  -0.682  0.00  0.00    +0.025 A 
ATOM     25  C   UNL     1      13.093   1.726  -0.708  0.00  0.00    +0.002 A 
ATOM     26  C   UNL     1      13.994   0.677  -0.679  0.00  0.00    +0.012 A 
ATOM     27  C   UNL     1      13.540  -0.628  -0.618  0.00  0.00    +0.057 A 
ATOM     28  C   UNL     1      12.184  -0.888  -0.587  0.00  0.00    +0.037 A 
BRANCH  27  29
ATOM     29  C   UNL     1      14.526  -1.767  -0.587  0.00  0.00    +0.417 C 
ATOM     30  F   UNL     1      14.811  -2.173  -1.895  0.00  0.00    -0.166 F 
ATOM     31  F   UNL     1      15.705  -1.346   0.038  0.00  0.00    -0.166 F 
ATOM     32  F   UNL     1      13.977  -2.839   0.125  0.00  0.00    -0.166 F 
ENDBRANCH  27  29
ENDBRANCH  21  23
ENDBRANCH   7  21
TORSDOF 4
