REMARK  Name = ZINC44684877
REMARK  6 active torsions:
REMARK  status: ('A' for Active; 'I' for Inactive)
REMARK    1  A    between atoms: C_1  and  C_2
REMARK    2  A    between atoms: C_5  and  O_24
REMARK    3  A    between atoms: C_8  and  C_23
REMARK    4  A    between atoms: C_11  and  N_13
REMARK    5  A    between atoms: N_13  and  C_14
REMARK    6  A    between atoms: N_18  and  C_20
REMARK                            x       y       z     vdW  Elec       q    Type
REMARK                         _______ _______ _______ _____ _____    ______ ____
ROOT
ATOM      1  C   UNL     1      -0.303   1.526  -0.035  0.00  0.00    +0.044 C 
ATOM      2  C   UNL     1      -0.123   0.031   0.011  0.00  0.00    -0.047 A 
ATOM      3  C   UNL     1       0.063  -0.676  -1.161  0.00  0.00    +0.007 A 
ATOM      4  C   UNL     1       0.229  -2.047  -1.123  0.00  0.00    +0.046 A 
ATOM      5  C   UNL     1       0.208  -2.711   0.094  0.00  0.00    +0.119 A 
ATOM      6  C   UNL     1       0.021  -1.999   1.273  0.00  0.00    -0.016 A 
ATOM      7  C   UNL     1      -0.139  -0.628   1.230  0.00  0.00    -0.037 A 
ATOM      8  C   UNL     1      -0.319  -0.089   2.633  0.00  0.00    +0.015 C 
ATOM      9  C   UNL     1      -0.681  -1.317   3.494  0.00  0.00    -0.003 C 
ATOM     10  C   UNL     1      -0.042  -2.477   2.708  0.00  0.00    -0.036 C 
ATOM     11  C   UNL     1       0.983   0.544   3.129  0.00  0.00    +0.012 C 
ENDROOT
BRANCH  10  12
ATOM     12  N   UNL     1      -0.867  -3.689   2.806  0.00  0.00    +0.386 N 
ATOM     13  H   UNL     1      -1.820  -3.468   2.562  0.00  0.00    -0.085 HD
ATOM     14  H   UNL     1      -0.511  -4.390   2.173  0.00  0.00    -0.085 HD
BRANCH  12  15
ATOM     15  C   UNL     1      -0.820  -4.203   4.182  0.00  0.00    -0.056 C 
ATOM     16  C   UNL     1       0.578  -4.786   4.489  0.00  0.00    +0.001 C 
ATOM     17  C   UNL     1       0.250  -6.044   5.333  0.00  0.00    +0.083 C 
ATOM     18  N   UNL     1      -0.982  -6.571   4.693  0.00  0.00    -0.301 NA
ATOM     19  C   UNL     1      -1.796  -5.383   4.345  0.00  0.00    +0.069 C 
BRANCH  18  20
ATOM     20  C   UNL     1      -1.713  -7.458   5.607  0.00  0.00    +0.057 C 
ATOM     21  C   UNL     1      -1.817  -8.936   5.225  0.00  0.00    +0.020 C 
ATOM     22  C   UNL     1      -3.046  -8.030   5.122  0.00  0.00    +0.020 C 
ENDBRANCH  18  20
ENDBRANCH  12  15
ENDBRANCH  10  12
BRANCH   5  23
ATOM     23  O   UNL     1       0.370  -4.059   0.134  0.00  0.00    -0.507 OA
ATOM     24  H   UNL     1       1.294  -4.344   0.143  0.00  0.00    +0.292 HD
ENDBRANCH   5  23
TORSDOF 4
