REMARK  Name = ZINC67501851
REMARK  10 active torsions:
REMARK  status: ('A' for Active; 'I' for Inactive)
REMARK    1  A    between atoms: C_1  and  O_2
REMARK    2  A    between atoms: O_2  and  C_3
REMARK    3  A    between atoms: C_5  and  C_15
REMARK    4  A    between atoms: C_8  and  O_9
REMARK    5  A    between atoms: O_9  and  C_10
REMARK    6  A    between atoms: C_10  and  C_11
REMARK    7  A    between atoms: C_15  and  N_16
REMARK    8  A    between atoms: N_16  and  C_17
REMARK    9  A    between atoms: N_22  and  C_24
REMARK   10  A    between atoms: C_24  and  C_25
REMARK                            x       y       z     vdW  Elec       q    Type
REMARK                         _______ _______ _______ _____ _____    ______ ____
ROOT
ATOM      1  C   UNL     1      -1.201  -0.638   0.010  0.00  0.00    +0.163 A 
ATOM      2  C   UNL     1      -2.374   0.100   0.019  0.00  0.00    +0.054 A 
ATOM      3  C   UNL     1      -3.597  -0.545   0.028  0.00  0.00    -0.029 A 
ATOM      4  C   UNL     1      -3.653  -1.927   0.027  0.00  0.00    +0.028 A 
ATOM      5  C   UNL     1      -2.486  -2.669   0.018  0.00  0.00    +0.086 A 
ATOM      6  C   UNL     1      -1.257  -2.028   0.003  0.00  0.00    +0.181 A 
ATOM      7 CL   UNL     1      -2.560  -4.404   0.018  0.00  0.00    -0.080 Cl
ENDROOT
BRANCH   1   9
ATOM      8  C   UNL     1      -0.017   1.425   0.010  0.00  0.00    +0.277 C 
ATOM      9  O   UNL     1       0.002  -0.004   0.002  0.00  0.00    -0.491 OA
ENDBRANCH   1   9
BRANCH   6  10
ATOM     10  O   UNL     1      -0.108  -2.756  -0.012  0.00  0.00    -0.478 OA
BRANCH  10  11
ATOM     11  C   UNL     1       0.453  -3.110   1.254  0.00  0.00    +0.324 C 
BRANCH  11  12
ATOM     12  C   UNL     1       1.713  -3.909   1.040  0.00  0.00    +0.248 C 
ATOM     13  O   UNL     1       2.093  -4.151  -0.086  0.00  0.00    -0.272 OA
ATOM     14  N   UNL     1       2.417  -4.354   2.099  0.00  0.00    -0.327 N 
ATOM     15  H   UNL     1       2.112  -4.160   2.999  0.00  0.00    +0.145 HD
ATOM     16  H   UNL     1       3.228  -4.868   1.961  0.00  0.00    +0.145 HD
ENDBRANCH  11  12
ENDBRANCH  10  11
ENDBRANCH   6  10
BRANCH   3  17
ATOM     17  C   UNL     1      -4.871   0.259   0.038  0.00  0.00    +0.116 C 
BRANCH  17  18
ATOM     18  N   UNL     1      -5.296   0.521  -1.344  0.00  0.00    -0.311 NA
ATOM     19  H   UNL     1      -4.565   0.983  -1.865  0.00  0.00    +0.122 HD
BRANCH  18  20
ATOM     20  C   UNL     1      -6.538   1.305  -1.373  0.00  0.00    +0.037 C 
ATOM     21  C   UNL     1      -6.205   2.796  -1.264  0.00  0.00    +0.015 C 
ATOM     22  C   UNL     1      -7.499   3.607  -1.374  0.00  0.00    -0.017 C 
ATOM     23  C   UNL     1      -8.199   3.265  -2.690  0.00  0.00    -0.078 C 
ATOM     24  N   UNL     1      -8.514   1.831  -2.722  0.00  0.00    +0.386 N 
ATOM     25  C   UNL     1      -7.274   1.047  -2.689  0.00  0.00    -0.059 C 
ATOM     26  H   UNL     1      -9.082   1.595  -1.922  0.00  0.00    -0.081 HD
BRANCH  24  27
ATOM     27  C   UNL     1      -9.255   1.522  -3.953  0.00  0.00    +0.018 C 
BRANCH  27  28
ATOM     28  C   UNL     1     -10.588   2.224  -3.926  0.00  0.00    +0.194 C 
ATOM     29  O   UNL     1     -10.892   2.914  -2.976  0.00  0.00    -0.278 OA
ATOM     30  N   UNL     1     -11.444   2.084  -4.958  0.00  0.00    -0.331 N 
ATOM     31  H   UNL     1     -11.201   1.532  -5.718  0.00  0.00    +0.145 HD
ATOM     32  H   UNL     1     -12.302   2.536  -4.942  0.00  0.00    +0.145 HD
ENDBRANCH  27  28
ENDBRANCH  24  27
ENDBRANCH  18  20
ENDBRANCH  17  18
ENDBRANCH   3  17
TORSDOF 9
