REMARK  Name = ZINC39696496
REMARK  12 active torsions:
REMARK  status: ('A' for Active; 'I' for Inactive)
REMARK    1  A    between atoms: C_1  and  C_2
REMARK    2  A    between atoms: C_2  and  C_3
REMARK    3  A    between atoms: C_2  and  C_4
REMARK    4  A    between atoms: C_2  and  S_5
REMARK    5  A    between atoms: S_5  and  C_6
REMARK    6  A    between atoms: C_6  and  C_7
REMARK    7  A    between atoms: C_7  and  N_8
REMARK    8  A    between atoms: C_9  and  C_11
REMARK    9  A    between atoms: C_22  and  C_24
REMARK   10  A    between atoms: C_24  and  C_25
REMARK   11  A    between atoms: C_25  and  C_26
REMARK   12  A    between atoms: C_26  and  C_27
REMARK                            x       y       z     vdW  Elec       q    Type
REMARK                         _______ _______ _______ _____ _____    ______ ____
ROOT
ATOM      1  C   UNL     1       6.994   0.612  -3.300  0.00  0.00    +0.100 C 
ATOM      2  C   UNL     1       6.941   2.149  -3.449  0.00  0.00    +0.121 C 
ATOM      3  N   UNL     1       8.164   2.493  -4.213  0.00  0.00    -0.300 N 
ATOM      4  C   UNL     1       8.286   1.411  -5.220  0.00  0.00    +0.115 C 
ATOM      5  C   UNL     1       7.877   0.132  -4.464  0.00  0.00    -0.004 C 
ATOM      6  C   UNL     1       9.114  -0.583  -3.929  0.00  0.00    -0.010 C 
ATOM      7  C   UNL     1       9.947  -1.101  -5.105  0.00  0.00    -0.082 C 
ATOM      8  N   UNL     1       9.137  -2.020  -5.913  0.00  0.00    +0.379 N 
ATOM      9  C   UNL     1       7.999  -1.302  -6.500  0.00  0.00    -0.082 C 
ATOM     10  C   UNL     1       7.084  -0.792  -5.383  0.00  0.00    -0.010 C 
ATOM     11  C   UNL     1       8.980   3.550  -4.033  0.00  0.00    +0.216 C 
ATOM     12  O   UNL     1       9.950   3.695  -4.746  0.00  0.00    -0.276 OA
ATOM     13  H   UNL     1       9.705  -2.407  -6.652  0.00  0.00    -0.086 HD
ATOM     14  H   UNL     1       8.795  -2.768  -5.329  0.00  0.00    -0.086 HD
ENDROOT
BRANCH   1  16
ATOM     15  N   UNL     1       5.311  -1.125  -2.780  0.00  0.00    -0.314 N 
ATOM     16  C   UNL     1       5.610   0.026  -3.414  0.00  0.00    +0.218 C 
ATOM     17  O   UNL     1       4.766   0.590  -4.077  0.00  0.00    -0.275 OA
ATOM     18  H   UNL     1       5.987  -1.576  -2.249  0.00  0.00    +0.149 HD
BRANCH  15  19
ATOM     19  C   UNL     1       3.966  -1.695  -2.891  0.00  0.00    +0.115 C 
BRANCH  19  20
ATOM     20  C   UNL     1       3.893  -2.992  -2.082  0.00  0.00    +0.088 C 
BRANCH  20  21
ATOM     21  S   UNL     1       2.228  -3.697  -2.220  0.00  0.00    -0.153 S 
BRANCH  21  23
ATOM     22  C   UNL     1       2.662  -4.846   0.224  0.00  0.00    +0.022 C 
ATOM     23  C   UNL     1       2.307  -5.208  -1.220  0.00  0.00    +0.008 C 
ATOM     24  C   UNL     1       3.377  -6.141  -1.789  0.00  0.00    +0.022 C 
ATOM     25  C   UNL     1       0.949  -5.911  -1.250  0.00  0.00    +0.022 C 
ENDBRANCH  21  23
ENDBRANCH  20  21
ENDBRANCH  19  20
ENDBRANCH  15  19
ENDBRANCH   1  16
BRANCH  11  26
ATOM     26  C   UNL     1       8.688   4.551  -2.946  0.00  0.00    +0.096 C 
BRANCH  26  27
ATOM     27  C   UNL     1       9.760   5.643  -2.956  0.00  0.00    +0.014 C 
BRANCH  27  28
ATOM     28  C   UNL     1       9.463   6.660  -1.852  0.00  0.00    +0.035 C 
BRANCH  28  29
ATOM     29  C   UNL     1      10.518   7.735  -1.862  0.00  0.00    -0.047 A 
ATOM     30  C   UNL     1      11.665   7.586  -1.105  0.00  0.00    +0.003 A 
ATOM     31  C   UNL     1      12.633   8.572  -1.114  0.00  0.00    +0.000 A 
ATOM     32  C   UNL     1      12.455   9.708  -1.882  0.00  0.00    +0.000 A 
ATOM     33  C   UNL     1      11.309   9.857  -2.640  0.00  0.00    +0.000 A 
ATOM     34  C   UNL     1      10.343   8.869  -2.634  0.00  0.00    +0.003 A 
ENDBRANCH  28  29
ENDBRANCH  27  28
ENDBRANCH  26  27
ENDBRANCH  11  26
TORSDOF 9
