REMARK  Name = ZINC47539577
REMARK  12 active torsions:
REMARK  status: ('A' for Active; 'I' for Inactive)
REMARK    1  A    between atoms: C_1  and  C_2
REMARK    2  A    between atoms: C_2  and  C_3
REMARK    3  A    between atoms: C_2  and  C_4
REMARK    4  A    between atoms: C_2  and  O_5
REMARK    5  A    between atoms: O_5  and  C_6
REMARK    6  A    between atoms: N_8  and  C_9
REMARK    7  A    between atoms: N_12  and  C_15
REMARK    8  A    between atoms: C_15  and  C_16
REMARK    9  A    between atoms: C_16  and  C_18
REMARK   10  A    between atoms: C_19  and  N_28
REMARK   11  A    between atoms: N_20  and  C_27
REMARK   12  A    between atoms: N_23  and  C_26
REMARK                            x       y       z     vdW  Elec       q    Type
REMARK                         _______ _______ _______ _____ _____    ______ ____
ROOT
ATOM      1  C   UNL     1       4.064  -0.122  -2.561  0.00  0.00    +0.073 C 
ATOM      2  C   UNL     1       4.107   1.265  -3.209  0.00  0.00    +0.004 C 
ATOM      3  C   UNL     1       5.564   1.656  -3.468  0.00  0.00    -0.076 C 
ATOM      4  N   UNL     1       6.185   0.675  -4.366  0.00  0.00    +0.385 N 
ATOM      5  C   UNL     1       6.212  -0.643  -3.721  0.00  0.00    -0.076 C 
ATOM      6  C   UNL     1       4.780  -1.122  -3.472  0.00  0.00    +0.004 C 
ATOM      7  H   UNL     1       5.653   0.620  -5.221  0.00  0.00    -0.081 HD
ENDROOT
BRANCH   1  10
ATOM      8  C   UNL     1       1.991  -0.151  -1.281  0.00  0.00    +0.401 C 
ATOM      9  O   UNL     1       2.535   0.537  -0.440  0.00  0.00    -0.226 OA
ATOM     10  N   UNL     1       2.670  -0.534  -2.380  0.00  0.00    -0.278 N 
ATOM     11  H   UNL     1       2.236  -1.084  -3.051  0.00  0.00    +0.152 HD
BRANCH   8  12
ATOM     12  O   UNL     1       0.710  -0.531  -1.115  0.00  0.00    -0.445 OA
BRANCH  12  14
ATOM     13  C   UNL     1       0.035   1.442   0.108  0.00  0.00    +0.055 C 
ATOM     14  C   UNL     1       0.051  -0.088   0.074  0.00  0.00    +0.107 C 
ATOM     15  C   UNL     1       0.799  -0.618   1.299  0.00  0.00    +0.055 C 
ATOM     16  C   UNL     1      -1.386  -0.614   0.087  0.00  0.00    +0.055 C 
ENDBRANCH  12  14
ENDBRANCH   8  12
ENDBRANCH   1  10
BRANCH   4  17
ATOM     17  C   UNL     1       7.559   1.097  -4.673  0.00  0.00    +0.002 C 
BRANCH  17  18
ATOM     18  C   UNL     1       8.156   0.158  -5.690  0.00  0.00    +0.155 C 
ATOM     19  O   UNL     1       7.501  -0.771  -6.117  0.00  0.00    -0.294 OA
BRANCH  18  20
ATOM     20  C   UNL     1       9.476   0.359  -6.146  0.00  0.00    +0.118 A 
ATOM     21  C   UNL     1      10.098  -0.568  -7.000  0.00  0.00    +0.116 A 
ATOM     22  N   UNL     1      11.377  -0.329  -7.415  0.00  0.00    -0.284 N 
ATOM     23  C   UNL     1      12.045   0.767  -7.023  0.00  0.00    +0.333 A 
ATOM     24  O   UNL     1      13.181   0.934  -7.420  0.00  0.00    -0.246 OA
ATOM     25  N   UNL     1      11.503   1.688  -6.209  0.00  0.00    -0.263 N 
ATOM     26  C   UNL     1      10.242   1.548  -5.748  0.00  0.00    +0.269 A 
ATOM     27  O   UNL     1       9.752   2.386  -5.015  0.00  0.00    -0.267 OA
ATOM     28  C   UNL     1      12.288   2.862  -5.821  0.00  0.00    +0.157 C 
ATOM     29  C   UNL     1      12.034  -1.290  -8.305  0.00  0.00    +0.155 C 
BRANCH  21  30
ATOM     30  N   UNL     1       9.437  -1.685  -7.406  0.00  0.00    -0.344 N 
ATOM     31  H   UNL     1       8.504  -1.809  -7.171  0.00  0.00    +0.144 HD
ATOM     32  H   UNL     1       9.898  -2.358  -7.930  0.00  0.00    +0.144 HD
ENDBRANCH  21  30
ENDBRANCH  18  20
ENDBRANCH  17  18
ENDBRANCH   4  17
TORSDOF 7
