REMARK  Name = ZINC36752360
REMARK  3 active torsions:
REMARK  status: ('A' for Active; 'I' for Inactive)
REMARK    1  A    between atoms: C_4  and  N_8
REMARK    2  A    between atoms: C_9  and  C_11
REMARK    3  A    between atoms: C_14  and  O_18
REMARK                            x       y       z     vdW  Elec       q    Type
REMARK                         _______ _______ _______ _____ _____    ______ ____
ROOT
ATOM      1  N   UNL     1       3.623  -0.654  -0.037  0.00  0.00    -0.285 N 
ATOM      2  C   UNL     1       3.645  -1.999   0.057  0.00  0.00    +0.203 C 
ATOM      3  O   UNL     1       2.606  -2.623   0.064  0.00  0.00    -0.277 OA
ATOM      4  H   UNL     1       4.453  -0.161  -0.124  0.00  0.00    +0.155 HD
ENDROOT
BRANCH   1   8
ATOM      5  C   UNL     1      -0.015   1.381   0.043  0.00  0.00    +0.018 A 
ATOM      6  C   UNL     1       1.083   1.956  -0.571  0.00  0.00    +0.041 A 
ATOM      7  C   UNL     1       2.291   1.284  -0.600  0.00  0.00    +0.145 A 
ATOM      8  C   UNL     1       2.401   0.029  -0.010  0.00  0.00    +0.070 A 
ATOM      9  C   UNL     1       1.297  -0.544   0.606  0.00  0.00    +0.041 A 
ATOM     10  C   UNL     1       0.092   0.133   0.630  0.00  0.00    +0.020 A 
ATOM     11 BR   UNL     1      -1.413  -0.648   1.469  0.00  0.00    -0.050 Br
ATOM     12  F   UNL     1       3.363   1.845  -1.201  0.00  0.00    -0.204 F 
ENDBRANCH   1   8
BRANCH   2  13
ATOM     13  C   UNL     1       4.962  -2.726   0.153  0.00  0.00    +0.019 C 
ATOM     14  C   UNL     1       5.583  -2.919  -1.253  0.00  0.00    +0.023 C 
ATOM     15  C   UNL     1       6.504  -4.146  -1.058  0.00  0.00    +0.097 C 
ATOM     16  C   UNL     1       5.945  -4.876   0.177  0.00  0.00    -0.050 C 
ATOM     17  N   UNL     1       4.759  -4.116   0.634  0.00  0.00    +0.388 N 
ATOM     18  H   UNL     1       4.699  -4.131   1.641  0.00  0.00    -0.085 HD
ATOM     19  H   UNL     1       3.921  -4.506   0.229  0.00  0.00    -0.085 HD
BRANCH  15  20
ATOM     20  O   UNL     1       7.849  -3.724  -0.821  0.00  0.00    -0.394 OA
ATOM     21  H   UNL     1       8.472  -4.451  -0.691  0.00  0.00    +0.210 HD
ENDBRANCH  15  20
ENDBRANCH   2  13
TORSDOF 3
