REMARK  Name = ZINC39685764
REMARK  14 active torsions:
REMARK  status: ('A' for Active; 'I' for Inactive)
REMARK    1  A    between atoms: C_1  and  C_2
REMARK    2  A    between atoms: C_2  and  C_3
REMARK    3  A    between atoms: C_3  and  C_5
REMARK    4  A    between atoms: C_3  and  C_6
REMARK    5  A    between atoms: C_10  and  C_19
REMARK    6  A    between atoms: N_21  and  C_22
REMARK    7  A    between atoms: C_22  and  C_24
REMARK    8  A    between atoms: C_22  and  C_27
REMARK    9  A    between atoms: C_24  and  C_25
REMARK   10  A    between atoms: C_24  and  C_26
REMARK   11  A    between atoms: N_29  and  C_30
REMARK   12  A    between atoms: C_30  and  C_31
REMARK   13  A    between atoms: C_30  and  C_32
REMARK   14  A    between atoms: C_30  and  C_33
REMARK                            x       y       z     vdW  Elec       q    Type
REMARK                         _______ _______ _______ _____ _____    ______ ____
ROOT
ATOM      1  C   UNL     1      -1.690  -3.412   1.043  0.00  0.00    +0.218 C 
ATOM      2  O   UNL     1      -0.883  -4.203   1.482  0.00  0.00    -0.275 OA
ATOM      3  N   UNL     1      -2.981  -3.773   0.903  0.00  0.00    -0.300 N 
ATOM      4  C   UNL     1      -4.082  -2.990   0.293  0.00  0.00    +0.121 C 
ATOM      5  C   UNL     1      -4.909  -4.030  -0.495  0.00  0.00    +0.100 C 
ATOM      6  C   UNL     1      -4.604  -5.374   0.188  0.00  0.00    -0.004 C 
ATOM      7  C   UNL     1      -3.619  -5.045   1.319  0.00  0.00    +0.115 C 
ATOM      8  C   UNL     1      -3.956  -6.336  -0.804  0.00  0.00    -0.010 C 
ATOM      9  C   UNL     1      -3.714  -7.683  -0.117  0.00  0.00    -0.082 C 
ATOM     10  N   UNL     1      -4.991  -8.227   0.360  0.00  0.00    +0.379 N 
ATOM     11  C   UNL     1      -5.562  -7.342   1.382  0.00  0.00    -0.082 C 
ATOM     12  C   UNL     1      -5.882  -5.980   0.759  0.00  0.00    -0.010 C 
ATOM     13  H   UNL     1      -5.633  -8.303  -0.414  0.00  0.00    -0.086 HD
ATOM     14  H   UNL     1      -4.838  -9.142   0.758  0.00  0.00    -0.086 HD
ENDROOT
BRANCH   5  15
ATOM     15  C   UNL     1      -6.379  -3.713  -0.399  0.00  0.00    +0.219 C 
ATOM     16  O   UNL     1      -6.821  -3.180   0.598  0.00  0.00    -0.275 OA
ATOM     17  N   UNL     1      -7.204  -4.021  -1.419  0.00  0.00    -0.303 N 
ATOM     18  H   UNL     1      -6.851  -4.447  -2.216  0.00  0.00    +0.149 HD
BRANCH  17  19
ATOM     19  C   UNL     1      -8.633  -3.712  -1.326  0.00  0.00    +0.161 C 
BRANCH  19  20
ATOM     20  C   UNL     1      -9.407  -4.642  -2.224  0.00  0.00    +0.234 C 
ATOM     21  O   UNL     1      -8.835  -5.260  -3.096  0.00  0.00    -0.274 OA
ATOM     22  N   UNL     1     -10.737  -4.788  -2.057  0.00  0.00    -0.309 N 
ATOM     23  H   UNL     1     -11.207  -4.243  -1.406  0.00  0.00    +0.149 HD
BRANCH  22  24
ATOM     24  C   UNL     1     -11.473  -5.769  -2.858  0.00  0.00    +0.026 C 
ATOM     25  C   UNL     1     -10.912  -7.168  -2.593  0.00  0.00    +0.031 C 
ATOM     26  C   UNL     1     -12.953  -5.733  -2.475  0.00  0.00    +0.031 C 
ATOM     27  C   UNL     1     -11.321  -5.432  -4.343  0.00  0.00    +0.031 C 
ENDBRANCH  22  24
ENDBRANCH  19  20
BRANCH  19  28
ATOM     28  C   UNL     1      -8.871  -2.265  -1.763  0.00  0.00    +0.012 C 
ATOM     29  C   UNL     1      -8.151  -1.317  -0.802  0.00  0.00    +0.009 C 
ATOM     30  C   UNL     1      -8.330  -2.064  -3.179  0.00  0.00    +0.009 C 
ENDBRANCH  19  28
ENDBRANCH  17  19
ENDBRANCH   5  15
BRANCH   1  31
ATOM     31  C   UNL     1      -1.249  -2.024   0.654  0.00  0.00    +0.072 C 
ATOM     32  C   UNL     1      -0.839  -2.014  -0.820  0.00  0.00    +0.017 C 
BRANCH  31  34
ATOM     33  C   UNL     1       0.311  -0.154   1.210  0.00  0.00    +0.004 C 
ATOM     34  C   UNL     1      -0.057  -1.606   1.518  0.00  0.00    +0.009 C 
ENDBRANCH  31  34
ENDBRANCH   1  31
TORSDOF 7
