REMARK  Name = ZINC37429138
REMARK  7 active torsions:
REMARK  status: ('A' for Active; 'I' for Inactive)
REMARK    1  A    between atoms: C_1  and  C_2
REMARK    2  A    between atoms: C_5  and  C_18
REMARK    3  A    between atoms: C_7  and  O_8
REMARK    4  A    between atoms: O_8  and  C_9
REMARK    5  A    between atoms: C_10  and  C_15
REMARK    6  A    between atoms: C_18  and  C_19
REMARK    7  A    between atoms: C_18  and  C_20
REMARK                            x       y       z     vdW  Elec       q    Type
REMARK                         _______ _______ _______ _____ _____    ______ ____
ROOT
ATOM      1  C   UNL     1       1.240   0.274   2.931  0.00  0.00    +0.231 A 
ATOM      2  C   UNL     1       1.277   0.982   4.141  0.00  0.00    +0.074 A 
ATOM      3  C   UNL     1       2.496   1.514   4.574  0.00  0.00    +0.018 A 
ATOM      4  C   UNL     1       3.616   1.317   3.784  0.00  0.00    +0.021 A 
ATOM      5  C   UNL     1       3.499   0.607   2.603  0.00  0.00    +0.114 A 
ATOM      6  N   UNL     1       2.341   0.110   2.217  0.00  0.00    -0.220 NA
ENDROOT
BRANCH   2   7
ATOM      7  C   UNL     1       0.051   1.163   4.944  0.00  0.00    +0.099 C 
ATOM      8  N   UNL     1       0.023   0.765   6.216  0.00  0.00    -0.387 N 
ATOM      9  N   UNL     1      -1.027   1.724   4.398  0.00  0.00    -0.344 N 
ATOM     10  H   UNL     1       0.780   0.290   6.593  0.00  0.00    +0.157 HD
ATOM     11  H   UNL     1      -1.006   2.014   3.472  0.00  0.00    +0.144 HD
ATOM     12  H   UNL     1      -1.832   1.843   4.925  0.00  0.00    +0.144 HD
ATOM     13  H   UNL     1      -0.756   0.949   6.765  0.00  0.00    +0.157 HD
ENDBRANCH   2   7
BRANCH   1  14
ATOM     14  O   UNL     1       0.070  -0.251   2.494  0.00  0.00    -0.437 OA
BRANCH  14  21
ATOM     15  C   UNL     1      -0.136   1.076   0.009  0.00  0.00    +0.047 C 
ATOM     16  C   UNL     1      -0.003  -0.421   0.122  0.00  0.00    -0.007 A 
ATOM     17  C   UNL     1       0.028  -1.201  -1.018  0.00  0.00    +0.027 A 
ATOM     18  C   UNL     1       0.148  -2.575  -0.914  0.00  0.00    +0.045 A 
ATOM     19  C   UNL     1       0.239  -3.172   0.332  0.00  0.00    -0.023 A 
ATOM     20  C   UNL     1       0.209  -2.396   1.474  0.00  0.00    +0.052 A 
ATOM     21  C   UNL     1       0.094  -1.016   1.371  0.00  0.00    +0.134 A 
ATOM     22 CL   UNL     1       0.186  -3.553  -2.348  0.00  0.00    -0.083 Cl
BRANCH  19  23
ATOM     23  C   UNL     1       0.370  -4.669   0.442  0.00  0.00    +0.014 C 
ATOM     24  C   UNL     1       1.677  -5.015   1.159  0.00  0.00    +0.012 C 
ATOM     25  C   UNL     1      -0.811  -5.227   1.238  0.00  0.00    +0.012 C 
ENDBRANCH  19  23
ENDBRANCH  14  21
ENDBRANCH   1  14
TORSDOF 4
