REMARK  Name = ZINC37711253
REMARK  5 active torsions:
REMARK  status: ('A' for Active; 'I' for Inactive)
REMARK    1  A    between atoms: C_5  and  O_9
REMARK    2  A    between atoms: C_6  and  C_7
REMARK    3  A    between atoms: C_7  and  N_8
REMARK    4  A    between atoms: O_9  and  C_10
REMARK    5  A    between atoms: C_16  and  O_18
REMARK                            x       y       z     vdW  Elec       q    Type
REMARK                         _______ _______ _______ _____ _____    ______ ____
ROOT
ATOM      1  C   UNL     1       2.396   1.330   0.141  0.00  0.00    +0.025 A 
ATOM      2  C   UNL     1       1.232   2.077   0.112  0.00  0.00    +0.043 A 
ATOM      3  C   UNL     1       0.010   1.451  -0.060  0.00  0.00    +0.043 A 
ATOM      4  C   UNL     1      -0.050   0.077  -0.204  0.00  0.00    +0.084 A 
ATOM      5  C   UNL     1       1.117  -0.673  -0.175  0.00  0.00    +0.141 A 
ATOM      6  C   UNL     1       2.341  -0.043  -0.002  0.00  0.00    -0.020 A 
ATOM      7 CL   UNL     1      -1.583  -0.708  -0.421  0.00  0.00    -0.080 Cl
ATOM      8 CL   UNL     1       1.304   3.802   0.293  0.00  0.00    -0.083 Cl
ENDROOT
BRANCH   6   9
ATOM      9  C   UNL     1       3.610  -0.856   0.029  0.00  0.00    -0.047 C 
BRANCH   9  10
ATOM     10  N   UNL     1       3.994  -1.217  -1.342  0.00  0.00    +0.381 N 
ATOM     11  H   UNL     1       4.796  -1.828  -1.317  0.00  0.00    -0.090 HD
ATOM     12  H   UNL     1       3.225  -1.689  -1.793  0.00  0.00    -0.090 HD
ATOM     13  H   UNL     1       4.224  -0.381  -1.858  0.00  0.00    -0.090 HD
ENDBRANCH   9  10
ENDBRANCH   6   9
BRANCH   5  14
ATOM     14  O   UNL     1       1.062  -2.024  -0.316  0.00  0.00    -0.485 OA
BRANCH  14  15
ATOM     15  C   UNL     1       1.060  -2.802   0.882  0.00  0.00    +0.202 C 
ATOM     16  C   UNL     1      -0.369  -2.909   1.419  0.00  0.00    +0.047 C 
ATOM     17  C   UNL     1      -0.371  -3.742   2.702  0.00  0.00    +0.004 C 
ATOM     18  C   UNL     1       0.167  -5.142   2.402  0.00  0.00    +0.003 C 
ATOM     19  C   UNL     1       1.596  -5.035   1.866  0.00  0.00    +0.035 C 
ATOM     20  C   UNL     1       1.598  -4.202   0.583  0.00  0.00    +0.155 C 
BRANCH  20  21
ATOM     21  O   UNL     1       2.933  -4.102   0.082  0.00  0.00    -0.388 OA
ATOM     22  H   UNL     1       3.338  -4.954  -0.130  0.00  0.00    +0.210 HD
ENDBRANCH  20  21
ENDBRANCH  14  15
ENDBRANCH   5  14
TORSDOF 5
