REMARK  Name = ZINC63571387
REMARK  7 active torsions:
REMARK  status: ('A' for Active; 'I' for Inactive)
REMARK    1  A    between atoms: C_1  and  C_2
REMARK    2  A    between atoms: C_2  and  O_3
REMARK    3  A    between atoms: O_3  and  C_4
REMARK    4  A    between atoms: C_4  and  C_6
REMARK    5  A    between atoms: C_6  and  C_7
REMARK    6  A    between atoms: C_7  and  N_13
REMARK    7  A    between atoms: C_29  and  C_31
REMARK                            x       y       z     vdW  Elec       q    Type
REMARK                         _______ _______ _______ _____ _____    ______ ____
ROOT
ATOM      1  N   UNL     1      -2.036  -4.418  -0.973  0.00  0.00    -0.293 N 
ATOM      2  C   UNL     1      -0.704  -4.216  -0.974  0.00  0.00    +0.303 C 
ATOM      3  O   UNL     1      -0.195  -3.514  -0.122  0.00  0.00    -0.253 OA
ATOM      4  N   UNL     1       0.065  -4.793  -1.919  0.00  0.00    -0.276 N 
ATOM      5  C   UNL     1      -0.567  -5.545  -3.008  0.00  0.00    +0.114 C 
ATOM      6  C   UNL     1      -0.027  -6.987  -3.014  0.00  0.00    +0.052 C 
ATOM      7  C   UNL     1       1.470  -6.890  -2.859  0.00  0.00    -0.035 C 
ATOM      8  C   UNL     1       2.462  -7.412  -3.569  0.00  0.00    -0.001 A 
ATOM      9  C   UNL     1       2.468  -8.360  -4.695  0.00  0.00    +0.010 A 
ATOM     10  C   UNL     1       3.687  -8.672  -5.209  0.00  0.00    +0.001 A 
ATOM     11  C   UNL     1       4.886  -8.143  -4.722  0.00  0.00    +0.002 A 
ATOM     12  C   UNL     1       4.975  -7.272  -3.685  0.00  0.00    +0.026 A 
ATOM     13  C   UNL     1       3.760  -6.875  -3.056  0.00  0.00    +0.043 A 
ATOM     14  N   UNL     1       3.556  -6.084  -2.044  0.00  0.00    -0.375 N 
ATOM     15  C   UNL     1       2.122  -6.070  -1.752  0.00  0.00    +0.131 C 
ATOM     16  C   UNL     1       1.528  -4.656  -1.850  0.00  0.00    +0.137 C 
ATOM     17  H   UNL     1      -2.451  -4.923  -1.690  0.00  0.00    +0.151 HD
ATOM     18  H   UNL     1       4.238  -5.588  -1.565  0.00  0.00    +0.160 HD
ENDROOT
BRANCH  16  19
ATOM     19  C   UNL     1       2.035  -3.971  -3.093  0.00  0.00    +0.010 A 
ATOM     20  C   UNL     1       1.752  -4.500  -4.338  0.00  0.00    +0.008 A 
ATOM     21  C   UNL     1       2.217  -3.872  -5.479  0.00  0.00    +0.000 A 
ATOM     22  C   UNL     1       2.966  -2.715  -5.376  0.00  0.00    +0.003 A 
ATOM     23  C   UNL     1       3.251  -2.184  -4.132  0.00  0.00    +0.039 A 
ATOM     24  C   UNL     1       2.781  -2.809  -2.989  0.00  0.00    +0.128 A 
ATOM     25  F   UNL     1       3.055  -2.289  -1.773  0.00  0.00    -0.205 F 
ENDBRANCH  16  19
BRANCH   1  26
ATOM     26  C   UNL     1      -2.859  -3.875   0.111  0.00  0.00    +0.046 C 
ATOM     27  C   UNL     1      -2.335  -4.385   1.454  0.00  0.00    +0.026 C 
ATOM     28  C   UNL     1      -2.402  -5.914   1.480  0.00  0.00    +0.002 C 
ATOM     29  C   UNL     1      -3.853  -6.364   1.294  0.00  0.00    +0.000 C 
ATOM     30  C   UNL     1      -4.377  -5.853  -0.050  0.00  0.00    +0.002 C 
ATOM     31  C   UNL     1      -4.309  -4.325  -0.076  0.00  0.00    +0.026 C 
BRANCH  26  32
ATOM     32  C   UNL     1      -2.792  -2.346   0.085  0.00  0.00    +0.146 C 
BRANCH  32  33
ATOM     33  C   UNL     1      -3.203  -1.849  -1.277  0.00  0.00    +0.309 C 
ATOM     34  O   UNL     1      -3.398  -2.634  -2.174  0.00  0.00    -0.251 OA
BRANCH  33  35
ATOM     35  O   UNL     1      -3.353  -0.532  -1.493  0.00  0.00    -0.465 OA
BRANCH  35  37
ATOM     36  C   UNL     1      -3.864   1.393  -2.862  0.00  0.00    +0.048 C 
ATOM     37  C   UNL     1      -3.745  -0.131  -2.808  0.00  0.00    +0.229 C 
ENDBRANCH  35  37
ENDBRANCH  33  35
ENDBRANCH  32  33
ENDBRANCH  26  32
ENDBRANCH   1  26
TORSDOF 6
