REMARK  Name = ZINC63182074
REMARK  6 active torsions:
REMARK  status: ('A' for Active; 'I' for Inactive)
REMARK    1  A    between atoms: C_3  and  N_13
REMARK    2  A    between atoms: C_6  and  C_7
REMARK    3  A    between atoms: N_13  and  S_14
REMARK    4  A    between atoms: S_14  and  C_17
REMARK    5  A    between atoms: C_20  and  S_24
REMARK    6  A    between atoms: S_24  and  N_27
REMARK                            x       y       z     vdW  Elec       q    Type
REMARK                         _______ _______ _______ _____ _____    ______ ____
ROOT
ATOM      1  S   UNL     1       5.026   1.325  -0.039  0.00  0.00    +0.094 S 
ATOM      2  O   UNL     1       5.124   0.640   1.202  0.00  0.00    -0.148 OA
ATOM      3  O   UNL     1       5.100   0.653  -1.289  0.00  0.00    -0.148 OA
ENDROOT
BRANCH   1   4
ATOM      4  C   UNL     1       6.301   2.541  -0.046  0.00  0.00    +0.145 A 
ATOM      5  C   UNL     1       7.164   2.643   1.029  0.00  0.00    +0.034 A 
ATOM      6  C   UNL     1       8.165   3.597   1.024  0.00  0.00    +0.030 A 
ATOM      7  C   UNL     1       8.303   4.450  -0.055  0.00  0.00    +0.108 A 
ATOM      8  C   UNL     1       7.441   4.350  -1.130  0.00  0.00    +0.068 A 
ATOM      9  C   UNL     1       6.442   3.391  -1.129  0.00  0.00    +0.152 A 
ATOM     10  F   UNL     1       5.601   3.289  -2.182  0.00  0.00    -0.203 F 
BRANCH   7  11
ATOM     11  S   UNL     1       9.578   5.667  -0.059  0.00  0.00    +0.056 S 
ATOM     12  O   UNL     1       9.153   6.697  -0.940  0.00  0.00    -0.153 OA
ATOM     13  O   UNL     1       9.906   5.915   1.301  0.00  0.00    -0.153 OA
BRANCH  11  14
ATOM     14  N   UNL     1      10.914   4.973  -0.749  0.00  0.00    -0.204 NA
ATOM     15  H   UNL     1      11.547   5.522  -1.237  0.00  0.00    +0.144 HD
ATOM     16  H   UNL     1      11.062   4.018  -0.666  0.00  0.00    +0.144 HD
ENDBRANCH  11  14
ENDBRANCH   7  11
ENDBRANCH   1   4
BRANCH   1  17
ATOM     17  N   UNL     1       3.580   2.132  -0.021  0.00  0.00    -0.098 NA
BRANCH  17  20
ATOM     18  C   UNL     1      -0.017   1.391   0.010  0.00  0.00    +0.012 A 
ATOM     19  C   UNL     1       1.168   2.095   0.002  0.00  0.00    +0.027 A 
ATOM     20  C   UNL     1       2.381   1.417  -0.013  0.00  0.00    +0.074 A 
ATOM     21  C   UNL     1       2.403   0.026  -0.021  0.00  0.00    +0.027 A 
ATOM     22  C   UNL     1       1.222  -0.683  -0.013  0.00  0.00    +0.012 A 
ATOM     23  C   UNL     1       0.002  -0.004   0.002  0.00  0.00    -0.000 A 
BRANCH  23  24
ATOM     24  C   UNL     1      -1.268  -0.762   0.011  0.00  0.00    +0.066 A 
ATOM     25  C   UNL     1      -1.399  -2.123   0.005  0.00  0.00    +0.049 A 
ATOM     26  C   UNL     1      -2.762  -2.421   0.017  0.00  0.00    +0.135 A 
ATOM     27  N   UNL     1      -3.435  -1.298   0.030  0.00  0.00    -0.182 NA
ATOM     28  H   UNL     1      -2.748   0.710   0.044  0.00  0.00    +0.189 HD
ATOM     29  N   UNL     1      -2.524  -0.234   0.032  0.00  0.00    -0.277 N 
ENDBRANCH  23  24
ENDBRANCH  17  20
ENDBRANCH   1  17
TORSDOF 6
