REMARK  Name = ZINC12498030
REMARK  8 active torsions:
REMARK  status: ('A' for Active; 'I' for Inactive)
REMARK    1  A    between atoms: C_1  and  O_2
REMARK    2  A    between atoms: O_2  and  C_3
REMARK    3  A    between atoms: C_3  and  C_5
REMARK    4  A    between atoms: C_5  and  C_32
REMARK    5  A    between atoms: C_10  and  C_12
REMARK    6  A    between atoms: N_19  and  C_22
REMARK    7  A    between atoms: C_32  and  C_33
REMARK    8  A    between atoms: C_36  and  O_39
REMARK                            x       y       z     vdW  Elec       q    Type
REMARK                         _______ _______ _______ _____ _____    ______ ____
ROOT
ATOM      1  C   UNL     1      -0.858  -1.161   0.303  0.00  0.00    +0.048 C 
ATOM      2  C   UNL     1       0.002  -0.004   0.002  0.00  0.00    +0.086 C 
ATOM      3  C   UNL     1       1.282  -0.313   0.877  0.00  0.00    +0.078 C 
ATOM      4  C   UNL     1       1.484  -1.762   0.432  0.00  0.00    -0.020 C 
ATOM      5  C   UNL     1       2.146   0.763   0.271  0.00  0.00    +0.229 C 
ATOM      6  O   UNL     1       3.340   0.714   0.067  0.00  0.00    -0.275 OA
ATOM      7  N   UNL     1       1.305   1.805  -0.001  0.00  0.00    -0.210 N 
ATOM      8  C   UNL     1      -0.018   1.437   0.010  0.00  0.00    +0.229 C 
ATOM      9  O   UNL     1      -0.988   2.164   0.019  0.00  0.00    -0.275 OA
ATOM     10  N   UNL     1       0.114  -2.295   0.213  0.00  0.00    +0.396 N 
ATOM     11  H   UNL     1       0.056  -2.728  -0.716  0.00  0.00    -0.083 HD
ATOM     12  H   UNL     1      -0.104  -2.995   0.931  0.00  0.00    -0.083 HD
ENDROOT
BRANCH   7  13
ATOM     13  C   UNL     1       1.746   3.111  -0.263  0.00  0.00    +0.048 A 
ATOM     14  C   UNL     1       0.825   4.114  -0.530  0.00  0.00    +0.028 A 
ATOM     15  C   UNL     1       1.259   5.400  -0.790  0.00  0.00    +0.051 A 
ATOM     16  C   UNL     1       2.615   5.692  -0.785  0.00  0.00    +0.162 A 
ATOM     17  C   UNL     1       3.539   4.690  -0.514  0.00  0.00    +0.164 A 
ATOM     18  C   UNL     1       3.103   3.401  -0.249  0.00  0.00    +0.073 A 
ATOM     19  O   UNL     1       4.873   4.959  -0.499  0.00  0.00    -0.485 OA
ATOM     20  C   UNL     1       5.293   6.172  -1.134  0.00  0.00    +0.270 C 
ATOM     21  C   UNL     1       4.362   7.302  -0.672  0.00  0.00    +0.270 C 
ATOM     22  O   UNL     1       3.024   6.964  -1.051  0.00  0.00    -0.485 OA
ENDBRANCH   7  13
BRANCH   4  23
ATOM     23  C   UNL     1       2.277  -1.810  -0.848  0.00  0.00    -0.023 A 
ATOM     24  C   UNL     1       3.598  -2.058  -1.026  0.00  0.00    +0.009 A 
ATOM     25  C   UNL     1       4.114  -2.054  -2.308  0.00  0.00    +0.008 A 
ATOM     26  C   UNL     1       3.286  -1.791  -3.349  0.00  0.00    +0.045 A 
ATOM     27  S   UNL     1       1.722  -1.545  -2.524  0.00  0.00    -0.103 S 
ENDBRANCH   4  23
BRANCH   1  28
ATOM     28  C   UNL     1      -1.436  -1.055   1.690  0.00  0.00    +0.297 C 
ATOM     29  O   UNL     1      -1.563   0.028   2.211  0.00  0.00    -0.252 OA
BRANCH  28  31
ATOM     30  C   UNL     1      -2.358  -1.986   3.681  0.00  0.00    +0.280 C 
ATOM     31  O   UNL     1      -1.810  -2.163   2.348  0.00  0.00    -0.469 OA
ENDBRANCH  28  31
ENDBRANCH   1  28
BRANCH   1  32
ATOM     32  C   UNL     1      -1.969  -1.300  -0.740  0.00  0.00    +0.034 C 
BRANCH  32  33
ATOM     33  C   UNL     1      -2.828  -2.491  -0.402  0.00  0.00    -0.048 A 
ATOM     34  C   UNL     1      -2.514  -3.737  -0.915  0.00  0.00    +0.007 A 
ATOM     35  C   UNL     1      -3.297  -4.831  -0.602  0.00  0.00    +0.045 A 
ATOM     36  C   UNL     1      -4.406  -4.678   0.218  0.00  0.00    +0.117 A 
ATOM     37  C   UNL     1      -4.722  -3.426   0.727  0.00  0.00    +0.045 A 
ATOM     38  C   UNL     1      -3.932  -2.336   0.416  0.00  0.00    +0.007 A 
BRANCH  36  39
ATOM     39  O   UNL     1      -5.181  -5.752   0.522  0.00  0.00    -0.507 OA
ATOM     40  H   UNL     1      -5.907  -5.901  -0.098  0.00  0.00    +0.292 HD
ENDBRANCH  36  39
ENDBRANCH  32  33
ENDBRANCH   1  32
TORSDOF 7
