REMARK  Name = ZINC03011934
REMARK  6 active torsions:
REMARK  status: ('A' for Active; 'I' for Inactive)
REMARK    1  A    between atoms: C_1  and  O_2
REMARK    2  A    between atoms: O_2  and  C_3
REMARK    3  A    between atoms: C_6  and  N_10
REMARK    4  A    between atoms: C_11  and  C_13
REMARK    5  A    between atoms: C_18  and  C_31
REMARK    6  A    between atoms: C_21  and  C_24
REMARK                            x       y       z     vdW  Elec       q    Type
REMARK                         _______ _______ _______ _____ _____    ______ ____
ROOT
ATOM      1  C   UNL     1       3.095  -4.507   5.522  0.00  0.00    +0.149 A 
ATOM      2  C   UNL     1       3.140  -5.900   5.758  0.00  0.00    +0.078 A 
ATOM      3  C   UNL     1       3.750  -6.093   6.944  0.00  0.00    +0.119 A 
ATOM      4  N   UNL     1       4.083  -4.871   7.455  0.00  0.00    -0.238 N 
ATOM      5  N   UNL     1       3.670  -3.898   6.545  0.00  0.00    -0.164 NA
ATOM      6  C   UNL     1       4.761  -4.685   8.741  0.00  0.00    +0.215 C 
ATOM      7  C   UNL     1       4.586  -5.954   9.582  0.00  0.00    +0.063 C 
ATOM      8  C   UNL     1       4.964  -7.186   8.753  0.00  0.00    +0.104 C 
ATOM      9  N   UNL     1       4.035  -7.287   7.611  0.00  0.00    -0.322 N 
ATOM     10  H   UNL     1       3.645  -8.133   7.340  0.00  0.00    +0.148 HD
ENDROOT
BRANCH   8  11
ATOM     11  C   UNL     1       4.859  -8.423   9.608  0.00  0.00    -0.027 A 
ATOM     12  C   UNL     1       3.625  -9.005   9.832  0.00  0.00    +0.007 A 
ATOM     13  C   UNL     1       3.528 -10.139  10.616  0.00  0.00    +0.020 A 
ATOM     14  C   UNL     1       4.665 -10.692  11.176  0.00  0.00    +0.041 A 
ATOM     15  C   UNL     1       5.900 -10.110  10.951  0.00  0.00    +0.020 A 
ATOM     16  C   UNL     1       5.997  -8.979  10.163  0.00  0.00    +0.007 A 
ATOM     17 CL   UNL     1       4.544 -12.117  12.161  0.00  0.00    -0.084 Cl
ENDBRANCH   8  11
BRANCH   1  19
ATOM     18  N   UNL     1       2.540  -2.503   4.232  0.00  0.00    -0.280 N 
ATOM     19  C   UNL     1       2.513  -3.846   4.337  0.00  0.00    +0.268 C 
ATOM     20  O   UNL     1       2.009  -4.514   3.455  0.00  0.00    -0.268 OA
ATOM     21  H   UNL     1       3.009  -1.974   4.897  0.00  0.00    +0.155 HD
BRANCH  18  25
ATOM     22  C   UNL     1       0.612  -0.619   1.051  0.00  0.00    +0.138 A 
ATOM     23  C   UNL     1       1.777  -0.078   1.574  0.00  0.00    +0.049 A 
ATOM     24  C   UNL     1       2.416  -0.701   2.627  0.00  0.00    +0.027 A 
ATOM     25  C   UNL     1       1.892  -1.870   3.164  0.00  0.00    +0.035 A 
ATOM     26  C   UNL     1       0.726  -2.412   2.641  0.00  0.00    +0.047 A 
ATOM     27  C   UNL     1       0.084  -1.784   1.590  0.00  0.00    +0.084 A 
ATOM     28 CL   UNL     1      -1.379  -2.456   0.940  0.00  0.00    -0.080 Cl
BRANCH  22  30
ATOM     29  C   UNL     1       0.582   1.191  -0.492  0.00  0.00    +0.277 C 
ATOM     30  O   UNL     1      -0.017  -0.004   0.013  0.00  0.00    -0.494 OA
ENDBRANCH  22  30
ENDBRANCH  18  25
ENDBRANCH   1  19
BRANCH   6  31
ATOM     31  C   UNL     1       4.148  -3.491   9.475  0.00  0.00    +0.412 C 
ATOM     32  F   UNL     1       2.787  -3.729   9.697  0.00  0.00    -0.168 F 
ATOM     33  F   UNL     1       4.796  -3.315  10.703  0.00  0.00    -0.168 F 
ATOM     34  F   UNL     1       4.299  -2.337   8.698  0.00  0.00    -0.168 F 
ENDBRANCH   6  31
TORSDOF 5
