REMARK  Name = ZINC58133462
REMARK  10 active torsions:
REMARK  status: ('A' for Active; 'I' for Inactive)
REMARK    1  A    between atoms: C_1  and  C_2
REMARK    2  A    between atoms: C_2  and  C_3
REMARK    3  A    between atoms: C_7  and  C_9
REMARK    4  A    between atoms: C_9  and  C_11
REMARK    5  A    between atoms: C_9  and  N_16
REMARK    6  A    between atoms: C_11  and  C_13
REMARK    7  A    between atoms: C_11  and  C_14
REMARK    8  A    between atoms: C_14  and  C_15
REMARK    9  A    between atoms: C_20  and  N_22
REMARK   10  A    between atoms: C_23  and  C_25
REMARK                            x       y       z     vdW  Elec       q    Type
REMARK                         _______ _______ _______ _____ _____    ______ ____
ROOT
ATOM      1  C   UNL     1       0.731  -0.503   1.223  0.00  0.00    -0.047 A 
ATOM      2  C   UNL     1       2.096  -0.710   1.176  0.00  0.00    +0.012 A 
ATOM      3  C   UNL     1       2.772  -1.167   2.295  0.00  0.00    +0.015 A 
ATOM      4  C   UNL     1       2.077  -1.417   3.466  0.00  0.00    +0.127 A 
ATOM      5  C   UNL     1       0.702  -1.210   3.508  0.00  0.00    -0.019 A 
ATOM      6  C   UNL     1       0.035  -0.750   2.391  0.00  0.00    +0.009 A 
ATOM      7  O   UNL     1       2.702  -1.855   4.589  0.00  0.00    -0.491 OA
ATOM      8  C   UNL     1       4.011  -2.411   4.452  0.00  0.00    +0.231 C 
ATOM      9  C   UNL     1       4.860  -1.449   3.611  0.00  0.00    +0.068 C 
ATOM     10  C   UNL     1       4.261  -1.384   2.204  0.00  0.00    +0.110 C 
ENDROOT
BRANCH  10  11
ATOM     11  N   UNL     1       4.872  -0.276   1.465  0.00  0.00    -0.308 N 
ATOM     12  C   UNL     1       6.043  -0.458   0.824  0.00  0.00    +0.210 C 
ATOM     13  O   UNL     1       6.592  -1.539   0.858  0.00  0.00    -0.276 OA
ATOM     14  C   UNL     1       6.671   0.682   0.064  0.00  0.00    +0.109 C 
ATOM     15  H   UNL     1       4.433   0.589   1.438  0.00  0.00    +0.149 HD
ENDBRANCH  10  11
BRANCH   1  17
ATOM     16  C   UNL     1      -0.019   1.526   0.010  0.00  0.00    +0.009 C 
ATOM     17  C   UNL     1       0.002  -0.004   0.002  0.00  0.00    +0.032 C 
ENDBRANCH   1  17
BRANCH   5  18
ATOM     18  C   UNL     1      -0.059  -1.485   4.779  0.00  0.00    -0.038 C 
BRANCH  18  19
ATOM     19  N   UNL     1      -1.462  -1.781   4.455  0.00  0.00    +0.383 N 
ATOM     20  H   UNL     1      -1.505  -2.591   3.855  0.00  0.00    -0.089 HD
ATOM     21  H   UNL     1      -1.972  -1.965   5.306  0.00  0.00    -0.089 HD
ATOM     22  H   UNL     1      -1.871  -0.990   3.982  0.00  0.00    -0.089 HD
ENDBRANCH  18  19
BRANCH  18  23
ATOM     23  C   UNL     1       0.006  -0.257   5.688  0.00  0.00    -0.025 C 
ATOM     24  C   UNL     1       1.466   0.051   6.025  0.00  0.00    +0.006 C 
BRANCH  23  25
ATOM     25  C   UNL     1      -0.768  -0.535   6.979  0.00  0.00    -0.002 C 
ATOM     26  C   UNL     1      -0.808   0.733   7.833  0.00  0.00    +0.004 C 
ENDBRANCH  23  25
ENDBRANCH  18  23
ENDBRANCH   5  18
TORSDOF 6
