REMARK  Name = ZINC61305762
REMARK  9 active torsions:
REMARK  status: ('A' for Active; 'I' for Inactive)
REMARK    1  A    between atoms: C_1  and  C_2
REMARK    2  A    between atoms: C_2  and  C_24
REMARK    3  A    between atoms: C_4  and  N_10
REMARK    4  A    between atoms: C_6  and  C_8
REMARK    5  A    between atoms: C_6  and  C_9
REMARK    6  A    between atoms: N_13  and  C_14
REMARK    7  A    between atoms: C_17  and  C_20
REMARK    8  A    between atoms: C_20  and  O_22
REMARK    9  A    between atoms: O_22  and  C_23
REMARK                            x       y       z     vdW  Elec       q    Type
REMARK                         _______ _______ _______ _____ _____    ______ ____
ROOT
ATOM      1  N   UNL     1       2.618  -0.823  -2.623  0.00  0.00    -0.296 N 
ATOM      2  C   UNL     1       3.769  -0.333  -3.125  0.00  0.00    +0.304 C 
ATOM      3  O   UNL     1       4.369   0.540  -2.528  0.00  0.00    -0.253 OA
ATOM      4  N   UNL     1       4.255  -0.809  -4.288  0.00  0.00    -0.269 N 
ATOM      5  H   UNL     1       2.139  -1.519  -3.099  0.00  0.00    +0.151 HD
ATOM      6  H   UNL     1       3.812  -1.551  -4.730  0.00  0.00    +0.156 HD
ENDROOT
BRANCH   1  10
ATOM      7  C   UNL     1      -0.028   1.517   0.007  0.00  0.00    -0.010 C 
ATOM      8  C   UNL     1       0.003  -0.015   0.005  0.00  0.00    -0.072 C 
ATOM      9  C   UNL     1       0.576  -0.518  -1.316  0.00  0.00    +0.009 C 
ATOM     10  C   UNL     1       2.089  -0.303  -1.356  0.00  0.00    +0.072 C 
ATOM     11  C   UNL     1       2.711  -1.079  -0.195  0.00  0.00    +0.009 C 
ATOM     12  C   UNL     1       2.154  -0.581   1.135  0.00  0.00    -0.072 C 
ATOM     13  N   UNL     1       0.703  -0.530   1.169  0.00  0.00    +0.386 N 
ATOM     14  C   UNL     1       2.768   0.781   1.477  0.00  0.00    -0.010 C 
ATOM     15  C   UNL     1       2.615  -1.573   2.229  0.00  0.00    -0.010 C 
ATOM     16  C   UNL     1      -1.463  -0.499   0.086  0.00  0.00    -0.010 C 
ATOM     17  H   UNL     1       0.420   0.022   1.984  0.00  0.00    -0.084 HD
ATOM     18  H   UNL     1       0.354  -1.475   1.360  0.00  0.00    -0.084 HD
ENDBRANCH   1  10
BRANCH   4  19
ATOM     19  C   UNL     1       5.392  -0.237  -4.856  0.00  0.00    +0.035 A 
ATOM     20  C   UNL     1       6.414   0.233  -4.037  0.00  0.00    +0.024 A 
ATOM     21  C   UNL     1       7.539   0.799  -4.594  0.00  0.00    +0.017 A 
ATOM     22  C   UNL     1       7.653   0.901  -5.984  0.00  0.00    +0.059 A 
ATOM     23  C   UNL     1       6.623   0.427  -6.803  0.00  0.00    +0.017 A 
ATOM     24  C   UNL     1       5.505  -0.142  -6.239  0.00  0.00    +0.024 A 
BRANCH  22  25
ATOM     25  C   UNL     1       8.855   1.507  -6.584  0.00  0.00    +0.339 C 
ATOM     26  O   UNL     1       9.749   1.919  -5.870  0.00  0.00    -0.245 OA
BRANCH  25  27
ATOM     27  O   UNL     1       8.964   1.605  -7.923  0.00  0.00    -0.464 OA
ATOM     28  C   UNL     1      10.156   2.203  -8.436  0.00  0.00    +0.280 C 
ENDBRANCH  25  27
ENDBRANCH  22  25
ENDBRANCH   4  19
TORSDOF 4
