REMARK  Name = ZINC40645197
REMARK  11 active torsions:
REMARK  status: ('A' for Active; 'I' for Inactive)
REMARK    1  A    between atoms: C_1  and  C_2
REMARK    2  A    between atoms: C_2  and  O_3
REMARK    3  A    between atoms: O_3  and  C_4
REMARK    4  A    between atoms: C_7  and  N_10
REMARK    5  A    between atoms: C_12  and  N_28
REMARK    6  A    between atoms: C_13  and  N_17
REMARK    7  A    between atoms: N_17  and  C_18
REMARK    8  A    between atoms: C_20  and  C_26
REMARK    9  A    between atoms: C_20  and  C_27
REMARK   10  A    between atoms: C_22  and  C_24
REMARK   11  A    between atoms: C_22  and  C_25
REMARK                            x       y       z     vdW  Elec       q    Type
REMARK                         _______ _______ _______ _____ _____    ______ ____
ROOT
ATOM      1  N   UNL     1       1.310  -5.895   2.611  0.00  0.00    -0.297 N 
ATOM      2  C   UNL     1       2.125  -6.490   3.562  0.00  0.00    +0.159 A 
ATOM      3  C   UNL     1       2.309  -7.869   3.571  0.00  0.00    +0.205 A 
ATOM      4  C   UNL     1       3.137  -8.417   4.546  0.00  0.00    +0.155 A 
ATOM      5  N   UNL     1       3.719  -7.607   5.430  0.00  0.00    -0.218 NA
ATOM      6  C   UNL     1       3.518  -6.306   5.388  0.00  0.00    +0.225 A 
ATOM      7  N   UNL     1       2.746  -5.748   4.478  0.00  0.00    -0.218 NA
ATOM      8  H   UNL     1       0.927  -6.430   1.897  0.00  0.00    +0.154 HD
ENDROOT
BRANCH   1  12
ATOM      9  C   UNL     1       0.502  -1.810   2.816  0.00  0.00    +0.121 A 
ATOM     10  C   UNL     1       0.581  -2.440   1.582  0.00  0.00    +0.047 A 
ATOM     11  C   UNL     1       0.849  -3.793   1.514  0.00  0.00    +0.027 A 
ATOM     12  C   UNL     1       1.038  -4.523   2.679  0.00  0.00    +0.033 A 
ATOM     13  C   UNL     1       0.959  -3.892   3.914  0.00  0.00    +0.027 A 
ATOM     14  C   UNL     1       0.696  -2.538   3.981  0.00  0.00    +0.047 A 
BRANCH   9  15
ATOM     15  O   UNL     1       0.239  -0.478   2.883  0.00  0.00    -0.492 OA
BRANCH  15  17
ATOM     16  C   UNL     1      -0.234   1.687   1.919  0.00  0.00    +0.048 C 
ATOM     17  C   UNL     1       0.049   0.209   1.644  0.00  0.00    +0.225 C 
ENDBRANCH  15  17
ENDBRANCH   9  15
ENDBRANCH   1  12
BRANCH   3  18
ATOM     18  N   UNL     1       1.643  -8.731   2.570  0.00  0.00    +0.063 N 
ATOM     19  O   UNL     1       2.193  -8.977   1.522  0.00  0.00    -0.126 OA
ATOM     20  O   UNL     1       0.548  -9.189   2.800  0.00  0.00    -0.126 OA
ENDBRANCH   3  18
BRANCH   4  21
ATOM     21  N   UNL     1       3.353  -9.785   4.598  0.00  0.00    -0.324 N 
ATOM     22  H   UNL     1       2.926 -10.368   3.951  0.00  0.00    +0.148 HD
BRANCH  21  23
ATOM     23  C   UNL     1       4.229 -10.352   5.632  0.00  0.00    +0.069 C 
ATOM     24  C   UNL     1       5.676 -10.324   5.135  0.00  0.00    +0.009 C 
ATOM     25  C   UNL     1       6.599 -10.923   6.195  0.00  0.00    -0.072 C 
ATOM     26  N   UNL     1       6.175 -12.253   6.604  0.00  0.00    +0.386 N 
ATOM     27  C   UNL     1       4.766 -12.450   6.907  0.00  0.00    -0.072 C 
ATOM     28  C   UNL     1       3.836 -11.807   5.883  0.00  0.00    +0.009 C 
ATOM     29  C   UNL     1       4.414 -11.957   8.313  0.00  0.00    -0.010 C 
ATOM     30  C   UNL     1       4.493 -13.973   6.881  0.00  0.00    -0.010 C 
ATOM     31  C   UNL     1       6.728  -9.969   7.383  0.00  0.00    -0.010 C 
ATOM     32  C   UNL     1       8.002 -11.055   5.560  0.00  0.00    -0.010 C 
ATOM     33  H   UNL     1       6.441 -12.915   5.871  0.00  0.00    -0.084 HD
ATOM     34  H   UNL     1       6.721 -12.527   7.424  0.00  0.00    -0.084 HD
ENDBRANCH  21  23
ENDBRANCH   4  21
TORSDOF 6
