REMARK  Name = ZINC40705055
REMARK  6 active torsions:
REMARK  status: ('A' for Active; 'I' for Inactive)
REMARK    1  A    between atoms: C_1  and  C_2
REMARK    2  A    between atoms: C_7  and  N_8
REMARK    3  A    between atoms: C_10  and  N_29
REMARK    4  A    between atoms: C_11  and  N_15
REMARK    5  A    between atoms: N_15  and  C_16
REMARK    6  A    between atoms: C_16  and  C_17
REMARK                            x       y       z     vdW  Elec       q    Type
REMARK                         _______ _______ _______ _____ _____    ______ ____
ROOT
ATOM      1  N   UNL     1      -0.018   0.163   2.420  0.00  0.00    -0.299 N 
ATOM      2  C   UNL     1      -0.074  -0.581   3.594  0.00  0.00    +0.126 A 
ATOM      3  C   UNL     1      -0.197   0.055   4.831  0.00  0.00    +0.104 A 
ATOM      4  C   UNL     1      -0.249  -0.739   5.978  0.00  0.00    +0.153 A 
ATOM      5  N   UNL     1      -0.181  -2.062   5.849  0.00  0.00    -0.220 NA
ATOM      6  C   UNL     1      -0.066  -2.622   4.662  0.00  0.00    +0.200 A 
ATOM      7  N   UNL     1      -0.019  -1.910   3.555  0.00  0.00    -0.333 N 
ATOM      8  H   UNL     1       0.009   1.132   2.461  0.00  0.00    +0.154 HD
ATOM      9  H   UNL     1       0.062  -2.360   2.699  0.00  0.00    +0.168 HD
ENDROOT
BRANCH   1  16
ATOM     10  C   UNL     1      -2.441  -0.986   1.470  0.00  0.00    +0.045 C 
ATOM     11  C   UNL     1      -1.159  -1.060   0.681  0.00  0.00    -0.029 A 
ATOM     12  C   UNL     1      -1.139  -1.696  -0.546  0.00  0.00    +0.006 A 
ATOM     13  C   UNL     1       0.035  -1.764  -1.272  0.00  0.00    +0.020 A 
ATOM     14  C   UNL     1       1.195  -1.197  -0.772  0.00  0.00    +0.043 A 
ATOM     15  C   UNL     1       1.181  -0.559   0.454  0.00  0.00    +0.043 A 
ATOM     16  C   UNL     1       0.001  -0.485   1.183  0.00  0.00    +0.037 A 
ATOM     17 CL   UNL     1       2.668  -1.287  -1.687  0.00  0.00    -0.083 Cl
ENDBRANCH   1  16
BRANCH   4  18
ATOM     18  N   UNL     1      -0.370  -0.157   7.236  0.00  0.00    -0.264 N 
ATOM     19  C   UNL     1       0.766   0.086   8.002  0.00  0.00    +0.127 A 
ATOM     20  C   UNL     1       2.027  -0.102   7.444  0.00  0.00    +0.044 A 
ATOM     21  C   UNL     1       3.147   0.144   8.217  0.00  0.00    +0.005 A 
ATOM     22  C   UNL     1       2.969   0.572   9.526  0.00  0.00    +0.020 A 
ATOM     23  C   UNL     1       1.688   0.738  10.014  0.00  0.00    +0.113 A 
ATOM     24  N   UNL     1       0.637   0.500   9.252  0.00  0.00    -0.240 NA
BRANCH  18  25
ATOM     25  C   UNL     1      -1.693   0.200   7.753  0.00  0.00    +0.149 C 
BRANCH  25  26
ATOM     26  C   UNL     1      -2.265  -0.968   8.516  0.00  0.00    -0.030 A 
ATOM     27  C   UNL     1      -3.027  -1.916   7.860  0.00  0.00    +0.005 A 
ATOM     28  C   UNL     1      -3.552  -2.986   8.559  0.00  0.00    +0.000 A 
ATOM     29  C   UNL     1      -3.314  -3.108   9.916  0.00  0.00    +0.000 A 
ATOM     30  C   UNL     1      -2.552  -2.161  10.572  0.00  0.00    +0.000 A 
ATOM     31  C   UNL     1      -2.023  -1.093   9.872  0.00  0.00    +0.005 A 
ENDBRANCH  25  26
ENDBRANCH  18  25
ENDBRANCH   4  18
BRANCH   3  32
ATOM     32  N   UNL     1      -0.265   1.454   4.920  0.00  0.00    -0.353 N 
ATOM     33  H   UNL     1      -0.303   1.990   4.112  0.00  0.00    +0.143 HD
ATOM     34  H   UNL     1      -0.273   1.885   5.788  0.00  0.00    +0.143 HD
ENDBRANCH   3  32
TORSDOF 5
