REMARK  Name = ZINC48025598
REMARK  7 active torsions:
REMARK  status: ('A' for Active; 'I' for Inactive)
REMARK    1  A    between atoms: C_1  and  C_2
REMARK    2  A    between atoms: C_2  and  C_4
REMARK    3  A    between atoms: C_2  and  N_17
REMARK    4  A    between atoms: N_6  and  C_7
REMARK    5  A    between atoms: C_12  and  C_13
REMARK    6  A    between atoms: C_20  and  C_23
REMARK    7  A    between atoms: C_23  and  C_24
REMARK                            x       y       z     vdW  Elec       q    Type
REMARK                         _______ _______ _______ _____ _____    ______ ____
ROOT
ATOM      1  C   UNL     1      -0.183   1.536  -0.202  0.00  0.00    -0.004 C 
ATOM      2  C   UNL     1      -0.006   0.025  -0.041  0.00  0.00    +0.016 C 
ENDROOT
BRANCH   2   3
ATOM      3  N   UNL     1      -1.318  -0.632  -0.115  0.00  0.00    +0.387 N 
ATOM      4  C   UNL     1      -1.994  -0.234  -1.355  0.00  0.00    -0.078 C 
ATOM      5  C   UNL     1      -3.394  -0.851  -1.399  0.00  0.00    -0.015 C 
ATOM      6  C   UNL     1      -3.275  -2.377  -1.348  0.00  0.00    -0.006 C 
ATOM      7  C   UNL     1      -2.503  -2.777  -0.087  0.00  0.00    -0.015 C 
ATOM      8  C   UNL     1      -1.137  -2.088  -0.092  0.00  0.00    -0.078 C 
ATOM      9  H   UNL     1      -1.879  -0.352   0.676  0.00  0.00    -0.081 HD
BRANCH   6  10
ATOM     10  C   UNL     1      -4.672  -2.998  -1.311  0.00  0.00    +0.099 C 
BRANCH  10  11
ATOM     11  C   UNL     1      -4.557  -4.499  -1.385  0.00  0.00    +0.211 C 
ATOM     12  O   UNL     1      -3.465  -5.020  -1.459  0.00  0.00    -0.276 OA
ATOM     13  N   UNL     1      -5.668  -5.262  -1.368  0.00  0.00    -0.329 N 
ATOM     14  H   UNL     1      -6.542  -4.845  -1.308  0.00  0.00    +0.145 HD
ATOM     15  H   UNL     1      -5.594  -6.228  -1.415  0.00  0.00    +0.145 HD
ENDBRANCH  10  11
ENDBRANCH   6  10
ENDBRANCH   2   3
BRANCH   2  16
ATOM     16  C   UNL     1       0.627  -0.267   1.295  0.00  0.00    +0.203 C 
ATOM     17  O   UNL     1      -0.038  -0.744   2.190  0.00  0.00    -0.277 OA
ATOM     18  N   UNL     1       1.932   0.002   1.495  0.00  0.00    -0.286 N 
ATOM     19  H   UNL     1       2.446   0.452   0.806  0.00  0.00    +0.155 HD
BRANCH  18  20
ATOM     20  C   UNL     1       2.547  -0.369   2.696  0.00  0.00    +0.045 A 
ATOM     21  C   UNL     1       1.827  -0.341   3.884  0.00  0.00    +0.024 A 
ATOM     22  C   UNL     1       2.436  -0.707   5.068  0.00  0.00    +0.002 A 
ATOM     23  C   UNL     1       3.762  -1.101   5.072  0.00  0.00    +0.001 A 
ATOM     24  C   UNL     1       4.481  -1.129   3.892  0.00  0.00    +0.014 A 
ATOM     25  C   UNL     1       3.876  -0.771   2.703  0.00  0.00    +0.076 A 
BRANCH  25  26
ATOM     26  C   UNL     1       4.659  -0.809   1.416  0.00  0.00    +0.419 C 
ATOM     27  F   UNL     1       5.963  -1.243   1.676  0.00  0.00    -0.166 F 
ATOM     28  F   UNL     1       4.043  -1.692   0.522  0.00  0.00    -0.166 F 
ATOM     29  F   UNL     1       4.696   0.472   0.854  0.00  0.00    -0.166 F 
ENDBRANCH  25  26
ENDBRANCH  18  20
ENDBRANCH   2  16
TORSDOF 6
