REMARK  Name = ZINC61088249
REMARK  10 active torsions:
REMARK  status: ('A' for Active; 'I' for Inactive)
REMARK    1  A    between atoms: C_1  and  C_2
REMARK    2  A    between atoms: C_2  and  C_3
REMARK    3  A    between atoms: C_2  and  N_4
REMARK    4  A    between atoms: C_5  and  C_7
REMARK    5  A    between atoms: N_9  and  N_10
REMARK    6  A    between atoms: C_11  and  C_13
REMARK    7  A    between atoms: C_13  and  S_14
REMARK    8  A    between atoms: S_14  and  C_15
REMARK    9  A    between atoms: C_18  and  C_24
REMARK   10  A    between atoms: C_20  and  N_21
REMARK                            x       y       z     vdW  Elec       q    Type
REMARK                         _______ _______ _______ _____ _____    ______ ____
ROOT
ATOM      1  C   UNL     1       6.778  -2.228  -4.860  0.00  0.00    +0.171 C 
ENDROOT
BRANCH   1   3
ATOM      2  N   UNL     1       4.729  -1.631  -3.609  0.00  0.00    -0.233 N 
ATOM      3  C   UNL     1       6.073  -1.742  -3.620  0.00  0.00    +0.239 C 
ATOM      4  O   UNL     1       6.714  -1.450  -2.633  0.00  0.00    -0.273 OA
ATOM      5  H   UNL     1       4.217  -1.865  -4.399  0.00  0.00    +0.173 HD
BRANCH   2   8
ATOM      6  C   UNL     1       2.731  -1.069  -2.445  0.00  0.00    +0.315 C 
ATOM      7  O   UNL     1       2.089  -1.361  -3.433  0.00  0.00    -0.264 OA
ATOM      8  N   UNL     1       4.074  -1.179  -2.456  0.00  0.00    -0.227 N 
ATOM      9  H   UNL     1       4.586  -0.946  -1.667  0.00  0.00    +0.173 HD
BRANCH   6  11
ATOM     10  N   UNL     1       0.688  -0.476  -1.203  0.00  0.00    -0.305 N 
ATOM     11  C   UNL     1       2.031  -0.587  -1.215  0.00  0.00    +0.301 C 
ATOM     12  O   UNL     1       2.672  -0.295  -0.227  0.00  0.00    -0.265 OA
ATOM     13  H   UNL     1       0.175  -0.710  -1.993  0.00  0.00    +0.149 HD
BRANCH  10  15
ATOM     14  C   UNL     1      -0.019   1.526   0.010  0.00  0.00    +0.027 C 
ATOM     15  C   UNL     1       0.002  -0.004   0.002  0.00  0.00    +0.067 C 
ATOM     16  C   UNL     1      -1.433  -0.534   0.013  0.00  0.00    +0.027 C 
ENDBRANCH  10  15
ENDBRANCH   6  11
ENDBRANCH   2   8
ENDBRANCH   1   3
BRANCH   1  17
ATOM     17  S   UNL     1       8.567  -2.266  -4.562  0.00  0.00    -0.114 S 
BRANCH  17  18
ATOM     18  C   UNL     1       9.240  -2.847  -6.084  0.00  0.00    +0.039 A 
ATOM     19  C   UNL     1       8.394  -3.144  -7.150  0.00  0.00    +0.018 A 
ATOM     20  C   UNL     1       8.910  -3.595  -8.331  0.00  0.00    +0.014 A 
ATOM     21  C   UNL     1      10.291  -3.760  -8.474  0.00  0.00    +0.039 A 
ATOM     22  C   UNL     1      11.143  -3.463  -7.406  0.00  0.00    +0.047 A 
ATOM     23  C   UNL     1      10.617  -3.003  -6.220  0.00  0.00    +0.140 A 
BRANCH  21  24
ATOM     24  C   UNL     1      10.848  -4.248  -9.750  0.00  0.00    +0.242 C 
ATOM     25  O   UNL     1      12.050  -4.391  -9.873  0.00  0.00    -0.270 OA
ATOM     26  N   UNL     1      10.026  -4.534 -10.779  0.00  0.00    -0.325 N 
ATOM     27  H   UNL     1       9.068  -4.420 -10.680  0.00  0.00    +0.145 HD
ATOM     28  H   UNL     1      10.393  -4.855 -11.618  0.00  0.00    +0.145 HD
ENDBRANCH  21  24
BRANCH  23  29
ATOM     29  N   UNL     1      11.515  -2.682  -5.087  0.00  0.00    +0.058 N 
ATOM     30  O   UNL     1      12.710  -2.818  -5.206  0.00  0.00    -0.126 OA
ATOM     31  O   UNL     1      11.053  -2.283  -4.044  0.00  0.00    -0.126 OA
ENDBRANCH  23  29
ENDBRANCH  17  18
ENDBRANCH   1  17
TORSDOF 8
