REMARK  Name = ZINC39967376
REMARK  10 active torsions:
REMARK  status: ('A' for Active; 'I' for Inactive)
REMARK    1  A    between atoms: C_1  and  C_2
REMARK    2  A    between atoms: C_2  and  C_4
REMARK    3  A    between atoms: C_2  and  O_26
REMARK    4  A    between atoms: C_7  and  S_12
REMARK    5  A    between atoms: N_8  and  C_9
REMARK    6  A    between atoms: C_9  and  C_10
REMARK    7  A    between atoms: S_12  and  C_13
REMARK    8  A    between atoms: C_13  and  C_14
REMARK    9  A    between atoms: N_16  and  C_17
REMARK   10  A    between atoms: O_26  and  C_27
REMARK                            x       y       z     vdW  Elec       q    Type
REMARK                         _______ _______ _______ _____ _____    ______ ____
ROOT
ATOM      1  C   UNL     1       0.956  -0.843  -1.611  0.00  0.00    +0.175 A 
ATOM      2  N   UNL     1       0.394  -0.406  -2.702  0.00  0.00    -0.130 NA
ATOM      3  N   UNL     1       1.121  -0.698  -3.720  0.00  0.00    -0.122 NA
ATOM      4  C   UNL     1       2.196  -1.343  -3.330  0.00  0.00    +0.192 A 
ATOM      5  N   UNL     1       2.126  -1.451  -1.971  0.00  0.00    -0.299 N 
ENDROOT
BRANCH   1   7
ATOM      6  C   UNL     1       0.610   0.743   0.264  0.00  0.00    +0.060 C 
ATOM      7  C   UNL     1       0.418  -0.700  -0.210  0.00  0.00    +0.238 C 
BRANCH   7   8
ATOM      8  O   UNL     1      -0.973  -1.024  -0.198  0.00  0.00    -0.481 OA
BRANCH   8   9
ATOM      9  C   UNL     1      -1.498  -1.448   0.982  0.00  0.00    +0.122 A 
ATOM     10  C   UNL     1      -2.810  -1.894   1.039  0.00  0.00    +0.047 A 
ATOM     11  C   UNL     1      -3.341  -2.324   2.240  0.00  0.00    +0.019 A 
ATOM     12  C   UNL     1      -2.565  -2.310   3.385  0.00  0.00    +0.018 A 
ATOM     13  C   UNL     1      -1.256  -1.865   3.331  0.00  0.00    +0.019 A 
ATOM     14  C   UNL     1      -0.719  -1.440   2.131  0.00  0.00    +0.047 A 
ATOM     15 BR   UNL     1      -3.295  -2.900   5.027  0.00  0.00    -0.050 Br
ENDBRANCH   8   9
ENDBRANCH   7   8
ENDBRANCH   1   7
BRANCH   5  16
ATOM     16  C   UNL     1       3.102  -2.090  -1.084  0.00  0.00    +0.152 C 
BRANCH  16  17
ATOM     17  C   UNL     1       2.751  -3.546  -0.916  0.00  0.00    -0.013 C 
ATOM     18  C   UNL     1       3.641  -4.469  -1.185  0.00  0.00    +0.005 C 
ENDBRANCH  16  17
ENDBRANCH   5  16
BRANCH   4  19
ATOM     19  S   UNL     1       3.487  -1.949  -4.365  0.00  0.00    -0.077 S 
BRANCH  19  20
ATOM     20  C   UNL     1       2.971  -1.470  -6.037  0.00  0.00    +0.173 C 
BRANCH  20  21
ATOM     21  C   UNL     1       4.002  -1.935  -7.033  0.00  0.00    +0.227 C 
ATOM     22  O   UNL     1       4.988  -2.530  -6.653  0.00  0.00    -0.275 OA
ATOM     23  N   UNL     1       3.828  -1.689  -8.347  0.00  0.00    -0.285 N 
ATOM     24  H   UNL     1       3.083  -1.142  -8.644  0.00  0.00    +0.155 HD
BRANCH  23  25
ATOM     25  C   UNL     1       4.723  -2.222  -9.284  0.00  0.00    +0.037 A 
ATOM     26  C   UNL     1       5.037  -1.505 -10.430  0.00  0.00    +0.027 A 
ATOM     27  C   UNL     1       5.920  -2.029 -11.355  0.00  0.00    +0.051 A 
ATOM     28  C   UNL     1       6.493  -3.273 -11.141  0.00  0.00    +0.166 A 
ATOM     29  C   UNL     1       6.179  -3.995  -9.992  0.00  0.00    +0.168 A 
ATOM     30  C   UNL     1       5.299  -3.466  -9.063  0.00  0.00    +0.072 A 
ATOM     31  O   UNL     1       6.866  -5.174 -10.017  0.00  0.00    -0.453 OA
ATOM     32  C   UNL     1       7.285  -5.347 -11.384  0.00  0.00    +0.466 C 
ATOM     33  O   UNL     1       7.377  -4.001 -11.886  0.00  0.00    -0.453 OA
ENDBRANCH  23  25
ENDBRANCH  20  21
ENDBRANCH  19  20
ENDBRANCH   4  19
TORSDOF 9
