REMARK  Name = ZINC63375445
REMARK  8 active torsions:
REMARK  status: ('A' for Active; 'I' for Inactive)
REMARK    1  A    between atoms: C_1  and  C_2
REMARK    2  A    between atoms: C_2  and  C_3
REMARK    3  A    between atoms: C_3  and  C_5
REMARK    4  A    between atoms: C_3  and  N_6
REMARK    5  A    between atoms: C_7  and  C_9
REMARK    6  A    between atoms: C_14  and  N_15
REMARK    7  A    between atoms: C_31  and  C_36
REMARK    8  A    between atoms: C_39  and  C_42
REMARK                            x       y       z     vdW  Elec       q    Type
REMARK                         _______ _______ _______ _____ _____    ______ ____
ROOT
ATOM      1  N   UNL     1      -6.640   0.220  -1.621  0.00  0.00    -0.192 N 
ATOM      2  C   UNL     1      -6.934   1.168  -0.708  0.00  0.00    +0.248 C 
ATOM      3  O   UNL     1      -6.684   2.352  -0.774  0.00  0.00    -0.273 OA
ATOM      4  C   UNL     1      -7.643   0.445   0.417  0.00  0.00    +0.169 C 
ATOM      5  C   UNL     1      -6.873   0.643   1.735  0.00  0.00    +0.065 C 
ATOM      6  C   UNL     1      -7.248  -0.519   2.625  0.00  0.00    -0.034 C 
ATOM      7  C   UNL     1      -7.738  -0.541   3.860  0.00  0.00    -0.001 A 
ATOM      8  C   UNL     1      -7.997   0.537   4.829  0.00  0.00    +0.010 A 
ATOM      9  C   UNL     1      -8.532   0.156   6.019  0.00  0.00    +0.001 A 
ATOM     10  C   UNL     1      -8.831  -1.172   6.339  0.00  0.00    +0.002 A 
ATOM     11  C   UNL     1      -8.619  -2.226   5.512  0.00  0.00    +0.026 A 
ATOM     12  C   UNL     1      -8.053  -1.953   4.233  0.00  0.00    +0.043 A 
ATOM     13  N   UNL     1      -7.730  -2.760   3.266  0.00  0.00    -0.375 N 
ATOM     14  C   UNL     1      -7.125  -1.973   2.190  0.00  0.00    +0.131 C 
ATOM     15  C   UNL     1      -7.910  -2.115   0.877  0.00  0.00    +0.135 C 
ATOM     16  N   UNL     1      -7.551  -0.974   0.018  0.00  0.00    -0.264 N 
ATOM     17  C   UNL     1      -7.028  -0.997  -1.214  0.00  0.00    +0.317 C 
ATOM     18  O   UNL     1      -6.915  -2.004  -1.885  0.00  0.00    -0.252 OA
ATOM     19  H   UNL     1      -7.867  -3.720   3.259  0.00  0.00    +0.160 HD
ENDROOT
BRANCH  15  20
ATOM     20  C   UNL     1      -7.546  -3.409   0.197  0.00  0.00    -0.025 A 
ATOM     21  C   UNL     1      -6.231  -3.666  -0.143  0.00  0.00    +0.006 A 
ATOM     22  C   UNL     1      -5.897  -4.853  -0.767  0.00  0.00    +0.004 A 
ATOM     23  C   UNL     1      -6.879  -5.784  -1.052  0.00  0.00    -0.050 A 
ATOM     24  C   UNL     1      -8.194  -5.528  -0.711  0.00  0.00    +0.004 A 
ATOM     25  C   UNL     1      -8.527  -4.343  -0.083  0.00  0.00    +0.006 A 
ATOM     26  C   UNL     1      -6.515  -7.078  -1.733  0.00  0.00    +0.044 C 
ENDBRANCH  15  20
BRANCH   1  32
ATOM     27  C   UNL     1      -4.615   0.433  -2.939  0.00  0.00    +0.059 A 
ATOM     28  C   UNL     1      -3.999   0.685  -4.167  0.00  0.00    +0.015 A 
ATOM     29  C   UNL     1      -4.768   0.978  -5.274  0.00  0.00    +0.001 A 
ATOM     30  C   UNL     1      -6.149   1.025  -5.173  0.00  0.00    +0.002 A 
ATOM     31  C   UNL     1      -6.770   0.778  -3.965  0.00  0.00    +0.025 A 
ATOM     32  C   UNL     1      -6.013   0.475  -2.843  0.00  0.00    +0.058 A 
BRANCH  27  34
ATOM     33  N   UNL     1      -2.454   0.078  -1.848  0.00  0.00    -0.309 N 
ATOM     34  C   UNL     1      -3.798   0.118  -1.751  0.00  0.00    +0.246 C 
ATOM     35  O   UNL     1      -4.337  -0.106  -0.685  0.00  0.00    -0.270 OA
ATOM     36  H   UNL     1      -2.024   0.257  -2.699  0.00  0.00    +0.149 HD
BRANCH  33  37
ATOM     37  C   UNL     1      -1.643  -0.234  -0.669  0.00  0.00    +0.070 C 
ATOM     38  C   UNL     1      -1.530  -1.752  -0.515  0.00  0.00    +0.028 C 
BRANCH  37  40
ATOM     39  C   UNL     1      -0.348   1.893  -0.864  0.00  0.00    +0.005 C 
ATOM     40  C   UNL     1      -0.246   0.367  -0.836  0.00  0.00    +0.018 C 
ENDBRANCH  37  40
ENDBRANCH  33  37
ENDBRANCH  27  34
ENDBRANCH   1  32
TORSDOF 5
