REMARK  Name = ZINC05119083
REMARK  13 active torsions:
REMARK  status: ('A' for Active; 'I' for Inactive)
REMARK    1  A    between atoms: C_1  and  C_2
REMARK    2  A    between atoms: C_1  and  O_20
REMARK    3  A    between atoms: C_2  and  C_4
REMARK    4  A    between atoms: C_2  and  O_19
REMARK    5  A    between atoms: C_4  and  C_6
REMARK    6  A    between atoms: C_4  and  O_18
REMARK    7  A    between atoms: C_6  and  C_12
REMARK    8  A    between atoms: N_7  and  N_8
REMARK    9  A    between atoms: N_8  and  C_9
REMARK   10  A    between atoms: C_9  and  N_11
REMARK   11  A    between atoms: N_13  and  N_14
REMARK   12  A    between atoms: N_14  and  C_15
REMARK   13  A    between atoms: C_15  and  N_17
REMARK                            x       y       z     vdW  Elec       q    Type
REMARK                         _______ _______ _______ _____ _____    ______ ____
ROOT
ATOM      1  C   UNL     1       1.402   1.472   2.544  0.00  0.00    +0.110 C 
ATOM      2  N   UNL     1       0.244   2.066   2.545  0.00  0.00    -0.181 NA
ENDROOT
BRANCH   2   3
ATOM      3  N   UNL     1      -0.442   2.265   1.340  0.00  0.00    -0.218 N 
ATOM      4  H   UNL     1      -0.021   2.031   0.498  0.00  0.00    +0.176 HD
BRANCH   3   5
ATOM      5  C   UNL     1      -1.688   2.780   1.351  0.00  0.00    +0.147 C 
ATOM      6  S   UNL     1      -2.526   3.023  -0.122  0.00  0.00    -0.017 S 
BRANCH   5   7
ATOM      7  N   UNL     1      -2.272   3.105   2.521  0.00  0.00    -0.339 N 
ATOM      8  H   UNL     1      -1.797   2.968   3.355  0.00  0.00    +0.144 HD
ATOM      9  H   UNL     1      -3.169   3.476   2.528  0.00  0.00    +0.144 HD
ENDBRANCH   5   7
ENDBRANCH   3   5
ENDBRANCH   2   3
BRANCH   1  10
ATOM     10  C   UNL     1       2.074   1.178   3.809  0.00  0.00    +0.158 C 
ATOM     11  N   UNL     1       1.514   1.511   4.936  0.00  0.00    -0.187 NA
BRANCH  11  12
ATOM     12  N   UNL     1       2.157   1.229   6.148  0.00  0.00    -0.219 N 
ATOM     13  H   UNL     1       3.020   0.786   6.148  0.00  0.00    +0.176 HD
BRANCH  12  14
ATOM     14  C   UNL     1       1.578   1.574   7.315  0.00  0.00    +0.147 C 
ATOM     15  S   UNL     1       2.364   1.230   8.796  0.00  0.00    -0.017 S 
BRANCH  14  16
ATOM     16  N   UNL     1       0.379   2.189   7.316  0.00  0.00    -0.339 N 
ATOM     17  H   UNL     1      -0.067   2.384   6.477  0.00  0.00    +0.144 HD
ATOM     18  H   UNL     1      -0.039   2.437   8.156  0.00  0.00    +0.144 HD
ENDBRANCH  14  16
ENDBRANCH  12  14
ENDBRANCH  11  12
ENDBRANCH   1  10
BRANCH   1  19
ATOM     19  C   UNL     1       2.050   1.086   1.240  0.00  0.00    +0.196 C 
BRANCH  19  20
ATOM     20  O   UNL     1       2.771  -0.136   1.408  0.00  0.00    -0.383 OA
ATOM     21  H   UNL     1       3.472  -0.091   2.073  0.00  0.00    +0.210 HD
ENDBRANCH  19  20
BRANCH  19  22
ATOM     22  C   UNL     1       3.015   2.191   0.804  0.00  0.00    +0.174 C 
BRANCH  22  23
ATOM     23  O   UNL     1       2.280   3.385   0.531  0.00  0.00    -0.387 OA
ATOM     24  H   UNL     1       1.620   3.290  -0.170  0.00  0.00    +0.210 HD
ENDBRANCH  22  23
BRANCH  22  25
ATOM     25  C   UNL     1       3.758   1.750  -0.459  0.00  0.00    +0.190 C 
BRANCH  25  26
ATOM     26  O   UNL     1       4.741   2.730  -0.800  0.00  0.00    -0.392 OA
ATOM     27  H   UNL     1       5.252   2.515  -1.592  0.00  0.00    +0.210 HD
ENDBRANCH  25  26
ENDBRANCH  22  25
ENDBRANCH  19  22
ENDBRANCH   1  19
TORSDOF 13
