REMARK  Name = ZINC08748354
REMARK  7 active torsions:
REMARK  status: ('A' for Active; 'I' for Inactive)
REMARK    1  A    between atoms: C_1  and  C_2
REMARK    2  A    between atoms: C_3  and  C_26
REMARK    3  A    between atoms: C_5  and  N_9
REMARK    4  A    between atoms: C_6  and  C_7
REMARK    5  A    between atoms: C_10  and  C_12
REMARK    6  A    between atoms: C_13  and  N_25
REMARK    7  A    between atoms: C_24  and  N_46
REMARK                            x       y       z     vdW  Elec       q    Type
REMARK                         _______ _______ _______ _____ _____    ______ ____
ROOT
ATOM      1  C   UNL     1       3.139  -3.757  -0.048  0.00  0.00    +0.097 A 
ATOM      2  C   UNL     1       4.379  -4.358  -0.069  0.00  0.00    +0.053 A 
ATOM      3  C   UNL     1       4.441  -5.811  -0.072  0.00  0.00    +0.029 A 
ATOM      4  C   UNL     1       5.581  -6.650  -0.087  0.00  0.00    +0.016 A 
ATOM      5  C   UNL     1       5.415  -8.020  -0.095  0.00  0.00    -0.042 A 
ATOM      6  C   UNL     1       4.143  -8.565  -0.083  0.00  0.00    +0.042 A 
ATOM      7  N   UNL     1       3.081  -7.775  -0.069  0.00  0.00    -0.244 NA
ATOM      8  C   UNL     1       3.188  -6.466  -0.064  0.00  0.00    +0.111 A 
ATOM      9  S   UNL     1       2.012  -5.136  -0.045  0.00  0.00    -0.062 S 
ATOM     10  C   UNL     1       3.922 -10.056  -0.084  0.00  0.00    +0.037 C 
ATOM     11  C   UNL     1       5.201 -10.772  -0.520  0.00  0.00    -0.073 C 
ATOM     12  C   UNL     1       6.648  -8.886  -0.123  0.00  0.00    -0.042 C 
ATOM     13  C   UNL     1       7.496 -11.133   0.170  0.00  0.00    -0.096 C 
ATOM     14  N   UNL     1       6.313 -10.255   0.304  0.00  0.00    +0.381 N 
ATOM     15  H   UNL     1       6.020 -10.237   1.288  0.00  0.00    -0.082 HD
ENDROOT
BRANCH   1  17
ATOM     16  N   UNL     1       1.550  -1.966  -0.023  0.00  0.00    -0.274 N 
ATOM     17  C   UNL     1       2.834  -2.373  -0.038  0.00  0.00    +0.257 C 
ATOM     18  O   UNL     1       3.733  -1.551  -0.042  0.00  0.00    -0.269 OA
ATOM     19  H   UNL     1       0.834  -2.621  -0.020  0.00  0.00    +0.156 HD
BRANCH  16  24
ATOM     20  C   UNL     1      -1.314   2.207   0.020  0.00  0.00    +0.046 C 
ATOM     21  C   UNL     1      -0.018   1.439   0.010  0.00  0.00    -0.021 A 
ATOM     22  C   UNL     1       1.171   2.069   0.002  0.00  0.00    -0.007 A 
ATOM     23  S   UNL     1       2.345   0.730  -0.016  0.00  0.00    -0.077 S 
ATOM     24  C   UNL     1       1.251  -0.613  -0.013  0.00  0.00    +0.090 A 
ATOM     25  C   UNL     1       0.002  -0.004   0.002  0.00  0.00    +0.083 A 
ATOM     26  C   UNL     1       1.444   3.551   0.007  0.00  0.00    +0.052 C 
BRANCH  25  27
ATOM     27  C   UNL     1      -1.207  -0.771   0.009  0.00  0.00    +0.102 C 
ATOM     28  N   UNL     1      -2.166  -1.380   0.015  0.00  0.00    -0.191 NA
ENDBRANCH  25  27
ENDBRANCH  16  24
ENDBRANCH   1  17
BRANCH   2  29
ATOM     29  N   UNL     1       5.539  -3.596  -0.083  0.00  0.00    -0.356 N 
ATOM     30  H   UNL     1       5.483  -2.628  -0.077  0.00  0.00    +0.142 HD
ATOM     31  H   UNL     1       6.405  -4.032  -0.097  0.00  0.00    +0.142 HD
ENDBRANCH   2  29
TORSDOF 4
