REMARK  Name = ZINC42251017
REMARK  4 active torsions:
REMARK  status: ('A' for Active; 'I' for Inactive)
REMARK    1  A    between atoms: C_2  and  C_3
REMARK    2  A    between atoms: C_3  and  N_4
REMARK    3  A    between atoms: C_7  and  C_10
REMARK    4  A    between atoms: C_10  and  C_11
REMARK                            x       y       z     vdW  Elec       q    Type
REMARK                         _______ _______ _______ _____ _____    ______ ____
ROOT
ATOM      1  N   UNL     1       1.360   1.976  -0.000  0.00  0.00    -0.292 NA
ATOM      2  C   UNL     1       2.037   1.638  -1.259  0.00  0.00    +0.085 C 
ATOM      3  C   UNL     1       3.507   2.053  -1.177  0.00  0.00    +0.019 C 
ATOM      4  C   UNL     1       3.594   3.560  -0.919  0.00  0.00    +0.000 C 
ATOM      5  C   UNL     1       2.840   3.892   0.372  0.00  0.00    +0.019 C 
ATOM      6  C   UNL     1       1.389   3.424   0.245  0.00  0.00    +0.085 C 
ENDROOT
BRANCH   1   7
ATOM      7  C   UNL     1      -0.018   1.468   0.010  0.00  0.00    +0.173 C 
BRANCH   7   9
ATOM      8  C   UNL     1       0.018  -1.178  -0.004  0.00  0.00    +0.005 C 
ATOM      9  C   UNL     1       0.002  -0.004   0.002  0.00  0.00    -0.090 C 
ENDBRANCH   7   9
ENDBRANCH   1   7
BRANCH   4  10
ATOM     10  C   UNL     1       5.060   3.971  -0.775  0.00  0.00    +0.099 C 
BRANCH  10  11
ATOM     11  C   UNL     1       5.152   5.469  -0.644  0.00  0.00    +0.211 C 
ATOM     12  O   UNL     1       4.143   6.142  -0.663  0.00  0.00    -0.276 OA
ATOM     13  N   UNL     1       6.354   6.061  -0.505  0.00  0.00    -0.329 N 
ATOM     14  H   UNL     1       7.161   5.523  -0.490  0.00  0.00    +0.145 HD
ATOM     15  H   UNL     1       6.413   7.026  -0.421  0.00  0.00    +0.145 HD
ENDBRANCH  10  11
ENDBRANCH   4  10
TORSDOF 4
