REMARK  Name = ZINC05920782
REMARK  11 active torsions:
REMARK  status: ('A' for Active; 'I' for Inactive)
REMARK    1  A    between atoms: C_1  and  C_2
REMARK    2  A    between atoms: C_8  and  C_28
REMARK    3  A    between atoms: C_12  and  C_14
REMARK    4  A    between atoms: C_12  and  C_17
REMARK    5  A    between atoms: C_14  and  C_15
REMARK    6  A    between atoms: C_15  and  O_16
REMARK    7  A    between atoms: C_17  and  O_18
REMARK    8  A    between atoms: C_21  and  O_27
REMARK    9  A    between atoms: C_23  and  C_24
REMARK   10  A    between atoms: C_23  and  C_25
REMARK   11  A    between atoms: C_25  and  O_26
REMARK                            x       y       z     vdW  Elec       q    Type
REMARK                         _______ _______ _______ _____ _____    ______ ____
ROOT
ATOM      1  C   UNL     1      -0.073   1.519   0.518  0.00  0.00    +0.010 C 
ATOM      2  C   UNL     1      -0.063  -0.003   0.419  0.00  0.00    +0.018 C 
ATOM      3  C   UNL     1       0.110  -0.425  -1.038  0.00  0.00    +0.006 C 
ATOM      4  C   UNL     1       1.573  -0.303  -1.474  0.00  0.00    +0.005 C 
ATOM      5  C   UNL     1       2.411  -1.198  -0.561  0.00  0.00    +0.008 C 
ATOM      6  C   UNL     1       2.373  -0.656   0.861  0.00  0.00    +0.001 C 
ATOM      7  C   UNL     1       0.921  -0.674   1.350  0.00  0.00    +0.079 C 
ATOM      8  C   UNL     1       0.841  -0.105   2.781  0.00  0.00    +0.039 C 
ATOM      9  C   UNL     1      -0.436  -0.813   3.312  0.00  0.00    +0.040 C 
ATOM     10  C   UNL     1      -0.346  -2.194   2.632  0.00  0.00    +0.095 C 
ATOM     11  O   UNL     1       0.535  -2.063   1.509  0.00  0.00    -0.364 OA
ATOM     12  C   UNL     1       3.201  -1.580   1.767  0.00  0.00    +0.012 C 
ATOM     13  C   UNL     1       4.637  -1.654   1.249  0.00  0.00    +0.032 C 
ATOM     14  C   UNL     1       4.657  -2.269  -0.145  0.00  0.00    +0.123 C 
ATOM     15  C   UNL     1       3.784  -1.484  -1.125  0.00  0.00    +0.020 C 
ATOM     16  C   UNL     1       4.514  -0.219  -1.575  0.00  0.00    +0.016 C 
ATOM     17  C   UNL     1       2.937   0.756   0.975  0.00  0.00    +0.014 C 
ENDROOT
BRANCH  14  18
ATOM     18  O   UNL     1       6.003  -2.293  -0.633  0.00  0.00    -0.391 OA
ATOM     19  H   UNL     1       6.611  -2.807  -0.085  0.00  0.00    +0.210 HD
ENDBRANCH  14  18
BRANCH  10  20
ATOM     20  C   UNL     1      -1.735  -2.644   2.174  0.00  0.00    +0.065 C 
BRANCH  20  21
ATOM     21  C   UNL     1      -2.694  -2.631   3.367  0.00  0.00    +0.158 C 
BRANCH  21  22
ATOM     22  O   UNL     1      -3.961  -3.155   2.965  0.00  0.00    -0.395 OA
ATOM     23  H   UNL     1      -4.620  -3.176   3.672  0.00  0.00    +0.209 HD
ENDBRANCH  21  22
ENDBRANCH  20  21
ENDBRANCH  10  20
BRANCH  10  24
ATOM     24  C   UNL     1       0.220  -3.216   3.624  0.00  0.00    +0.190 C 
BRANCH  24  25
ATOM     25  O   UNL     1       0.208  -4.515   3.027  0.00  0.00    -0.392 OA
ATOM     26  H   UNL     1       0.554  -5.213   3.600  0.00  0.00    +0.210 HD
ENDBRANCH  24  25
ENDBRANCH  10  24
BRANCH  15  27
ATOM     27  C   UNL     1       3.617  -2.382  -2.376  0.00  0.00    +0.165 C 
BRANCH  27  28
ATOM     28  O   UNL     1       4.901  -2.670  -2.931  0.00  0.00    -0.394 OA
ATOM     29  H   UNL     1       4.873  -3.230  -3.719  0.00  0.00    +0.209 HD
ENDBRANCH  27  28
ENDBRANCH  15  27
TORSDOF 8
