REMARK  Name = ZINC54041462
REMARK  12 active torsions:
REMARK  status: ('A' for Active; 'I' for Inactive)
REMARK    1  A    between atoms: C_1  and  C_2
REMARK    2  A    between atoms: C_4  and  C_8
REMARK    3  A    between atoms: C_5  and  C_7
REMARK    4  A    between atoms: N_10  and  N_11
REMARK    5  A    between atoms: N_14  and  C_15
REMARK    6  A    between atoms: C_15  and  C_16
REMARK    7  A    between atoms: C_16  and  C_18
REMARK    8  A    between atoms: C_16  and  N_26
REMARK    9  A    between atoms: C_23  and  O_24
REMARK   10  A    between atoms: O_24  and  C_25
REMARK   11  A    between atoms: N_26  and  C_27
REMARK   12  A    between atoms: N_26  and  C_28
REMARK                            x       y       z     vdW  Elec       q    Type
REMARK                         _______ _______ _______ _____ _____    ______ ____
ROOT
ATOM      1  N   UNL     1      -7.660  -5.768  -2.198  0.00  0.00    -0.218 N 
ATOM      2  C   UNL     1      -7.206  -5.117  -1.109  0.00  0.00    +0.316 C 
ATOM      3  O   UNL     1      -6.599  -5.724  -0.247  0.00  0.00    -0.251 OA
ATOM      4  N   UNL     1      -7.425  -3.794  -0.974  0.00  0.00    -0.299 N 
ATOM      5  H   UNL     1      -7.502  -6.721  -2.295  0.00  0.00    +0.174 HD
ATOM      6  H   UNL     1      -7.909  -3.311  -1.662  0.00  0.00    +0.150 HD
ENDROOT
BRANCH   1   9
ATOM      7  C   UNL     1      -8.812  -5.721  -4.281  0.00  0.00    +0.263 C 
ATOM      8  O   UNL     1      -8.614  -6.915  -4.402  0.00  0.00    -0.269 OA
ATOM      9  N   UNL     1      -8.358  -5.070  -3.191  0.00  0.00    -0.229 N 
ATOM     10  H   UNL     1      -8.516  -4.117  -3.095  0.00  0.00    +0.173 HD
BRANCH   7  14
ATOM     11  C   UNL     1     -11.090  -2.011  -6.941  0.00  0.00    +0.086 C 
ATOM     12  C   UNL     1     -10.545  -3.339  -6.483  0.00  0.00    +0.103 A 
ATOM     13  C   UNL     1      -9.873  -3.552  -5.342  0.00  0.00    +0.057 A 
ATOM     14  C   UNL     1      -9.547  -4.986  -5.325  0.00  0.00    +0.079 A 
ATOM     15  C   UNL     1     -10.068  -5.494  -6.479  0.00  0.00    +0.114 A 
ATOM     16  O   UNL     1     -10.661  -4.499  -7.148  0.00  0.00    -0.464 OA
ATOM     17  C   UNL     1      -9.993  -6.932  -6.922  0.00  0.00    +0.087 C 
ENDBRANCH   7  14
ENDBRANCH   1   9
BRANCH   4  18
ATOM     18  C   UNL     1      -6.932  -3.087   0.210  0.00  0.00    +0.095 C 
BRANCH  18  19
ATOM     19  C   UNL     1      -7.199  -1.588   0.056  0.00  0.00    -0.017 C 
BRANCH  19  20
ATOM     20  C   UNL     1      -8.685  -1.340   0.051  0.00  0.00    -0.018 A 
ATOM     21  C   UNL     1      -9.368  -1.254  -1.147  0.00  0.00    +0.005 A 
ATOM     22  C   UNL     1     -10.731  -1.026  -1.153  0.00  0.00    +0.000 A 
ATOM     23  C   UNL     1     -11.415  -0.884   0.041  0.00  0.00    +0.004 A 
ATOM     24  C   UNL     1     -10.738  -0.970   1.241  0.00  0.00    +0.046 A 
ATOM     25  C   UNL     1      -9.370  -1.204   1.249  0.00  0.00    +0.122 A 
BRANCH  25  26
ATOM     26  O   UNL     1      -8.702  -1.294   2.429  0.00  0.00    -0.495 OA
ATOM     27  C   UNL     1      -9.472  -1.143   3.624  0.00  0.00    +0.277 C 
ENDBRANCH  25  26
ENDBRANCH  19  20
BRANCH  19  28
ATOM     28  N   UNL     1      -6.619  -1.115  -1.208  0.00  0.00    +0.382 N 
ATOM     29  C   UNL     1      -6.837   0.333  -1.335  0.00  0.00    -0.096 C 
ATOM     30  C   UNL     1      -5.177  -1.396  -1.221  0.00  0.00    -0.096 C 
ATOM     31  H   UNL     1      -7.061  -1.590  -1.980  0.00  0.00    -0.082 HD
ENDBRANCH  19  28
ENDBRANCH  18  19
ENDBRANCH   4  18
TORSDOF 7
