REMARK  Name = ZINC09234369
REMARK  10 active torsions:
REMARK  status: ('A' for Active; 'I' for Inactive)
REMARK    1  A    between atoms: C_1  and  C_2
REMARK    2  A    between atoms: C_9  and  O_20
REMARK    3  A    between atoms: C_12  and  C_14
REMARK    4  A    between atoms: C_23  and  O_37
REMARK    5  A    between atoms: C_24  and  C_31
REMARK    6  A    between atoms: C_27  and  O_30
REMARK    7  A    between atoms: N_32  and  N_33
REMARK    8  A    between atoms: N_33  and  C_34
REMARK    9  A    between atoms: C_34  and  C_35
REMARK   10  A    between atoms: C_35  and  O_36
REMARK                            x       y       z     vdW  Elec       q    Type
REMARK                         _______ _______ _______ _____ _____    ______ ____
ROOT
ATOM      1  C   UNL     1      -5.520   8.082  -4.449  0.00  0.00    +0.014 C 
ATOM      2  C   UNL     1      -5.208   8.307  -2.968  0.00  0.00    +0.004 C 
ATOM      3  C   UNL     1      -5.175   6.997  -2.175  0.00  0.00    +0.010 C 
ATOM      4  C   UNL     1      -3.953   6.174  -2.565  0.00  0.00    +0.005 C 
ATOM      5  C   UNL     1      -2.692   6.951  -2.221  0.00  0.00    +0.009 C 
ATOM      6  C   UNL     1      -2.649   8.256  -2.973  0.00  0.00    +0.025 C 
ATOM      7  C   UNL     1      -3.897   9.084  -2.768  0.00  0.00    +0.075 C 
ATOM      8  C   UNL     1      -4.026   9.608  -1.325  0.00  0.00    +0.036 C 
ATOM      9  C   UNL     1      -5.501  10.037  -1.222  0.00  0.00    +0.011 C 
ATOM     10  C   UNL     1      -6.262   9.217  -2.281  0.00  0.00    +0.027 C 
ATOM     11  C   UNL     1      -1.422   9.086  -2.594  0.00  0.00    +0.009 C 
ATOM     12  C   UNL     1      -0.188   8.196  -2.440  0.00  0.00    +0.036 C 
ATOM     13  C   UNL     1      -0.418   6.921  -3.243  0.00  0.00    +0.079 C 
ATOM     14  C   UNL     1      -1.482   6.079  -2.535  0.00  0.00    +0.039 C 
ATOM     15  C   UNL     1      -1.841   4.896  -3.433  0.00  0.00    +0.018 C 
ATOM     16  C   UNL     1      -0.581   4.035  -3.606  0.00  0.00    +0.032 C 
ATOM     17  C   UNL     1       0.535   4.859  -4.246  0.00  0.00    +0.117 C 
ATOM     18  C   UNL     1       0.852   6.088  -3.386  0.00  0.00    +0.067 C 
ENDROOT
BRANCH  10  19
ATOM     19  C   UNL     1      -7.321   8.373  -1.620  0.00  0.00    -0.022 C 
ATOM     20  C   UNL     1      -7.436   8.122  -0.318  0.00  0.00    +0.094 C 
ATOM     21  C   UNL     1      -8.598   7.261  -0.086  0.00  0.00    +0.332 C 
ATOM     22  O   UNL     1      -8.963   6.859   1.002  0.00  0.00    -0.246 OA
ATOM     23  O   UNL     1      -9.203   6.981  -1.256  0.00  0.00    -0.457 OA
ATOM     24  C   UNL     1      -8.460   7.657  -2.308  0.00  0.00    +0.264 C 
ENDBRANCH  10  19
BRANCH   7  25
ATOM     25  O   UNL     1      -3.872  10.195  -3.666  0.00  0.00    -0.388 OA
ATOM     26  H   UNL     1      -3.107  10.776  -3.552  0.00  0.00    +0.210 HD
ENDBRANCH   7  25
BRANCH  17  27
ATOM     27  O   UNL     1       1.709   4.054  -4.364  0.00  0.00    -0.392 OA
ATOM     28  H   UNL     1       1.591   3.262  -4.907  0.00  0.00    +0.210 HD
ENDBRANCH  17  27
BRANCH  14  29
ATOM     29  C   UNL     1      -0.910   5.555  -1.244  0.00  0.00    +0.112 C 
ATOM     30  N   UNL     1      -1.540   5.737  -0.144  0.00  0.00    -0.199 NA
BRANCH  30  31
ATOM     31  N   UNL     1      -1.007   5.249   1.057  0.00  0.00    -0.267 N 
ATOM     32  H   UNL     1      -0.162   4.774   1.055  0.00  0.00    +0.168 HD
BRANCH  31  33
ATOM     33  C   UNL     1      -1.728   5.457   2.315  0.00  0.00    +0.150 C 
BRANCH  33  34
ATOM     34  C   UNL     1      -0.936   4.832   3.466  0.00  0.00    +0.176 C 
BRANCH  34  35
ATOM     35  O   UNL     1       0.304   5.524   3.622  0.00  0.00    -0.393 OA
ATOM     36  H   UNL     1       0.860   5.180   4.335  0.00  0.00    +0.209 HD
ENDBRANCH  34  35
ENDBRANCH  33  34
ENDBRANCH  31  33
ENDBRANCH  30  31
ENDBRANCH  14  29
BRANCH  13  37
ATOM     37  O   UNL     1      -0.892   7.284  -4.541  0.00  0.00    -0.388 OA
ATOM     38  H   UNL     1      -0.270   7.821  -5.051  0.00  0.00    +0.210 HD
ENDBRANCH  13  37
TORSDOF 9
