REMARK  Name = ZINC39707731
REMARK  6 active torsions:
REMARK  status: ('A' for Active; 'I' for Inactive)
REMARK    1  A    between atoms: C_1  and  O_2
REMARK    2  A    between atoms: O_2  and  C_3
REMARK    3  A    between atoms: C_6  and  C_11
REMARK    4  A    between atoms: C_8  and  O_9
REMARK    5  A    between atoms: O_9  and  C_10
REMARK    6  A    between atoms: C_29  and  C_30
REMARK                            x       y       z     vdW  Elec       q    Type
REMARK                         _______ _______ _______ _____ _____    ______ ____
ROOT
ATOM      1  C   UNL     1       2.580  -2.522   4.324  0.00  0.00    +0.151 C 
ATOM      2  C   UNL     1       1.629  -2.677   5.486  0.00  0.00    -0.016 C 
ATOM      3  C   UNL     1       2.005  -2.215   6.692  0.00  0.00    +0.076 C 
ATOM      4  C   UNL     1       1.093  -2.385   7.850  0.00  0.00    +0.004 A 
ATOM      5  C   UNL     1       1.284  -1.651   9.017  0.00  0.00    +0.010 A 
ATOM      6  C   UNL     1       0.412  -1.813  10.076  0.00  0.00    +0.001 A 
ATOM      7  C   UNL     1      -0.646  -2.698   9.976  0.00  0.00    +0.000 A 
ATOM      8  C   UNL     1      -0.834  -3.435   8.820  0.00  0.00    +0.004 A 
ATOM      9  C   UNL     1       0.037  -3.287   7.759  0.00  0.00    -0.038 A 
ATOM     10  C   UNL     1      -0.132  -4.116   6.513  0.00  0.00    +0.040 C 
ATOM     11  C   UNL     1       0.280  -3.308   5.284  0.00  0.00    +0.040 C 
ATOM     12  N   UNL     1       3.207  -1.602   6.848  0.00  0.00    -0.223 NA
ATOM     13  C   UNL     1       4.069  -1.422   5.895  0.00  0.00    +0.178 A 
ATOM     14  N   UNL     1       3.876  -1.836   4.592  0.00  0.00    -0.275 N 
ATOM     15  C   UNL     1       4.840  -1.596   3.694  0.00  0.00    +0.268 A 
ATOM     16  O   UNL     1       4.718  -1.942   2.534  0.00  0.00    -0.266 OA
ATOM     17  C   UNL     1       6.056  -0.897   4.158  0.00  0.00    +0.080 A 
ATOM     18  C   UNL     1       7.184  -0.531   3.447  0.00  0.00    +0.026 C 
ATOM     19  S   UNL     1       5.677  -0.654   5.884  0.00  0.00    -0.046 S 
ENDROOT
BRANCH  18  20
ATOM     20  C   UNL     1       7.371  -0.999   2.147  0.00  0.00    -0.018 C 
ATOM     21  C   UNL     1       8.501  -0.832   1.343  0.00  0.00    +0.003 A 
ATOM     22  C   UNL     1       9.736  -0.185   1.556  0.00  0.00    +0.010 A 
ATOM     23  C   UNL     1      10.673  -0.181   0.574  0.00  0.00    +0.001 A 
ATOM     24  C   UNL     1      10.447  -0.805  -0.656  0.00  0.00    +0.002 A 
ATOM     25  C   UNL     1       9.285  -1.444  -0.931  0.00  0.00    +0.026 A 
ATOM     26  C   UNL     1       8.256  -1.491   0.048  0.00  0.00    +0.043 A 
ATOM     27  N   UNL     1       7.059  -2.038   0.028  0.00  0.00    -0.380 N 
ATOM     28  C   UNL     1       6.395  -1.799   1.313  0.00  0.00    +0.149 C 
ATOM     29  H   UNL     1       6.678  -2.526  -0.718  0.00  0.00    +0.160 HD
ENDBRANCH  18  20
BRANCH   1  33
ATOM     30  C   UNL     1       0.555  -0.344   1.251  0.00  0.00    +0.162 A 
ATOM     31  C   UNL     1       1.176   0.333   2.289  0.00  0.00    +0.050 A 
ATOM     32  C   UNL     1       1.830  -0.374   3.281  0.00  0.00    +0.010 A 
ATOM     33  C   UNL     1       1.866  -1.756   3.240  0.00  0.00    -0.017 A 
ATOM     34  C   UNL     1       1.249  -2.436   2.207  0.00  0.00    +0.055 A 
ATOM     35  C   UNL     1       0.587  -1.734   1.213  0.00  0.00    +0.162 A 
BRANCH  30  37
ATOM     36  C   UNL     1      -0.079   1.776   0.378  0.00  0.00    +0.277 C 
ATOM     37  O   UNL     1      -0.088   0.350   0.274  0.00  0.00    -0.491 OA
ENDBRANCH  30  37
BRANCH  35  38
ATOM     38  O   UNL     1      -0.026  -2.402   0.199  0.00  0.00    -0.491 OA
ATOM     39  C   UNL     1       0.048  -3.829   0.225  0.00  0.00    +0.277 C 
ENDBRANCH  35  38
ENDBRANCH   1  33
TORSDOF 4
