REMARK  Name = ZINC39834871
REMARK  13 active torsions:
REMARK  status: ('A' for Active; 'I' for Inactive)
REMARK    1  A    between atoms: C_1  and  C_2
REMARK    2  A    between atoms: C_2  and  O_3
REMARK    3  A    between atoms: O_3  and  C_4
REMARK    4  A    between atoms: C_7  and  N_10
REMARK    5  A    between atoms: N_12  and  C_28
REMARK    6  A    between atoms: C_13  and  C_16
REMARK    7  A    between atoms: C_19  and  S_22
REMARK    8  A    between atoms: S_22  and  N_25
REMARK    9  A    between atoms: N_25  and  C_26
REMARK   10  A    between atoms: N_25  and  C_27
REMARK   11  A    between atoms: C_31  and  O_34
REMARK   12  A    between atoms: O_34  and  C_35
REMARK   13  A    between atoms: C_35  and  C_36
REMARK                            x       y       z     vdW  Elec       q    Type
REMARK                         _______ _______ _______ _____ _____    ______ ____
ROOT
ATOM      1  N   UNL     1       1.174  -5.923  -1.806  0.00  0.00    -0.295 N 
ATOM      2  C   UNL     1       1.696  -6.446  -2.976  0.00  0.00    +0.148 A 
ATOM      3  N   UNL     1       1.895  -7.715  -3.313  0.00  0.00    -0.291 N 
ATOM      4  C   UNL     1       2.417  -8.033  -4.502  0.00  0.00    +0.062 A 
ATOM      5  C   UNL     1       2.748  -7.037  -5.374  0.00  0.00    +0.075 A 
ATOM      6  S   UNL     1       2.276  -5.592  -4.435  0.00  0.00    -0.061 S 
ATOM      7  H   UNL     1       0.809  -6.515  -1.130  0.00  0.00    +0.154 HD
ENDROOT
BRANCH   1  11
ATOM      8  C   UNL     1       1.166  -1.800  -1.186  0.00  0.00    +0.121 A 
ATOM      9  C   UNL     1       0.123  -2.576  -0.702  0.00  0.00    +0.047 A 
ATOM     10  C   UNL     1       0.125  -3.942  -0.906  0.00  0.00    +0.027 A 
ATOM     11  C   UNL     1       1.171  -4.538  -1.598  0.00  0.00    +0.033 A 
ATOM     12  C   UNL     1       2.215  -3.761  -2.083  0.00  0.00    +0.027 A 
ATOM     13  C   UNL     1       2.208  -2.395  -1.883  0.00  0.00    +0.047 A 
BRANCH   8  14
ATOM     14  O   UNL     1       1.163  -0.456  -0.984  0.00  0.00    -0.492 OA
BRANCH  14  16
ATOM     15  C   UNL     1       0.230   1.605  -0.133  0.00  0.00    +0.048 C 
ATOM     16  C   UNL     1       0.059   0.089  -0.259  0.00  0.00    +0.225 C 
ENDBRANCH  14  16
ENDBRANCH   8  14
ENDBRANCH   1  11
BRANCH   4  17
ATOM     17  C   UNL     1       2.635  -9.453  -4.868  0.00  0.00    -0.000 A 
ATOM     18  C   UNL     1       1.763 -10.437  -4.405  0.00  0.00    +0.012 A 
ATOM     19  C   UNL     1       1.970 -11.757  -4.750  0.00  0.00    +0.029 A 
ATOM     20  C   UNL     1       3.042 -12.104  -5.552  0.00  0.00    +0.105 A 
ATOM     21  C   UNL     1       3.911 -11.133  -6.014  0.00  0.00    +0.029 A 
ATOM     22  C   UNL     1       3.710  -9.809  -5.681  0.00  0.00    +0.012 A 
BRANCH  20  23
ATOM     23  S   UNL     1       3.300 -13.792  -5.988  0.00  0.00    +0.060 S 
ATOM     24  O   UNL     1       4.681 -13.924  -6.297  0.00  0.00    -0.153 OA
ATOM     25  O   UNL     1       2.666 -14.572  -4.984  0.00  0.00    -0.153 OA
BRANCH  23  26
ATOM     26  N   UNL     1       2.472 -14.067  -7.395  0.00  0.00    -0.183 NA
ATOM     27  C   UNL     1       3.131 -13.859  -8.687  0.00  0.00    +0.131 C 
ATOM     28  C   UNL     1       1.079 -14.519  -7.348  0.00  0.00    +0.131 C 
ENDBRANCH  23  26
ENDBRANCH  20  23
ENDBRANCH   4  17
BRANCH   3  29
ATOM     29  C   UNL     1       1.558  -8.716  -2.426  0.00  0.00    +0.049 A 
ATOM     30  C   UNL     1       2.550  -9.529  -1.881  0.00  0.00    +0.030 A 
ATOM     31  C   UNL     1       2.209 -10.530  -0.995  0.00  0.00    +0.047 A 
ATOM     32  C   UNL     1       0.881 -10.727  -0.645  0.00  0.00    +0.121 A 
ATOM     33  C   UNL     1      -0.109  -9.919  -1.187  0.00  0.00    +0.047 A 
ATOM     34  C   UNL     1       0.225  -8.913  -2.069  0.00  0.00    +0.030 A 
BRANCH  32  35
ATOM     35  O   UNL     1       0.549 -11.714   0.228  0.00  0.00    -0.492 OA
BRANCH  35  36
ATOM     36  C   UNL     1      -0.837 -11.862   0.544  0.00  0.00    +0.225 C 
ATOM     37  C   UNL     1      -1.014 -13.015   1.534  0.00  0.00    +0.048 C 
ENDBRANCH  35  36
ENDBRANCH  32  35
ENDBRANCH   3  29
TORSDOF 9
