REMARK  Name = ZINC39325193
REMARK  8 active torsions:
REMARK  status: ('A' for Active; 'I' for Inactive)
REMARK    1  A    between atoms: C_1  and  C_2
REMARK    2  A    between atoms: C_2  and  C_3
REMARK    3  A    between atoms: C_10  and  C_15
REMARK    4  A    between atoms: C_15  and  N_16
REMARK    5  A    between atoms: N_16  and  C_17
REMARK    6  A    between atoms: N_16  and  S_24
REMARK    7  A    between atoms: C_17  and  C_18
REMARK    8  A    between atoms: S_24  and  C_27
REMARK                            x       y       z     vdW  Elec       q    Type
REMARK                         _______ _______ _______ _____ _____    ______ ____
ROOT
ATOM      1  N   UNL     1       1.509  -1.502   8.391  0.00  0.00    -0.171 NA
ENDROOT
BRANCH   1   2
ATOM      2  S   UNL     1       0.731  -2.600   9.356  0.00  0.00    +0.062 S 
ATOM      3  O   UNL     1       1.366  -2.547  10.626  0.00  0.00    -0.153 OA
ATOM      4  O   UNL     1      -0.662  -2.370   9.191  0.00  0.00    -0.153 OA
BRANCH   2   5
ATOM      5  C   UNL     1       1.059  -4.200   8.695  0.00  0.00    +0.119 A 
ATOM      6  C   UNL     1       1.834  -5.096   9.407  0.00  0.00    +0.029 A 
ATOM      7  C   UNL     1       2.091  -6.351   8.888  0.00  0.00    +0.002 A 
ATOM      8  C   UNL     1       1.573  -6.711   7.658  0.00  0.00    +0.001 A 
ATOM      9  C   UNL     1       0.798  -5.816   6.946  0.00  0.00    +0.017 A 
ATOM     10  C   UNL     1       0.536  -4.561   7.466  0.00  0.00    +0.044 A 
ATOM     11 BR   UNL     1      -0.530  -3.338   6.496  0.00  0.00    -0.048 Br
ENDBRANCH   2   5
ENDBRANCH   1   2
BRANCH   1  12
ATOM     12  C   UNL     1       0.751  -0.723   7.409  0.00  0.00    +0.126 C 
BRANCH  12  20
ATOM     13  C   UNL     1      -3.168   3.445   6.258  0.00  0.00    -0.047 A 
ATOM     14  C   UNL     1      -3.836   3.216   7.461  0.00  0.00    +0.005 A 
ATOM     15  C   UNL     1      -3.312   2.455   8.457  0.00  0.00    +0.024 A 
ATOM     16  C   UNL     1      -2.048   1.854   8.307  0.00  0.00    +0.040 A 
ATOM     17  N   UNL     1      -1.545   1.108   9.291  0.00  0.00    -0.284 N 
ATOM     18  C   UNL     1      -0.365   0.516   9.216  0.00  0.00    +0.225 C 
ATOM     19  O   UNL     1       0.043  -0.153  10.147  0.00  0.00    -0.275 OA
ATOM     20  C   UNL     1       0.476   0.674   7.970  0.00  0.00    +0.114 C 
ATOM     21  C   UNL     1      -0.092   1.521   6.848  0.00  0.00    -0.003 C 
ATOM     22  C   UNL     1      -1.320   2.078   7.047  0.00  0.00    -0.007 A 
ATOM     23  C   UNL     1      -1.945   2.906   6.014  0.00  0.00    +0.013 A 
ATOM     24  H   UNL     1      -2.069   0.995  10.099  0.00  0.00    +0.155 HD
BRANCH  13  26
ATOM     25  C   UNL     1      -4.668   3.423   4.284  0.00  0.00    +0.009 C 
ATOM     26  C   UNL     1      -3.819   4.303   5.204  0.00  0.00    +0.032 C 
ENDBRANCH  13  26
ENDBRANCH  12  20
ENDBRANCH   1  12
BRANCH   1  27
ATOM     27  C   UNL     1       2.956  -1.311   8.519  0.00  0.00    +0.144 C 
BRANCH  27  28
ATOM     28  C   UNL     1       3.231  -0.173   9.468  0.00  0.00    -0.032 A 
ATOM     29  C   UNL     1       3.330   1.119   8.987  0.00  0.00    +0.005 A 
ATOM     30  C   UNL     1       3.582   2.163   9.858  0.00  0.00    +0.000 A 
ATOM     31  C   UNL     1       3.733   1.915  11.209  0.00  0.00    +0.000 A 
ATOM     32  C   UNL     1       3.633   0.622  11.690  0.00  0.00    +0.000 A 
ATOM     33  C   UNL     1       3.377  -0.421  10.820  0.00  0.00    +0.005 A 
ENDBRANCH  27  28
ENDBRANCH   1  27
TORSDOF 7
