REMARK  Name = ZINC09462587
REMARK  15 active torsions:
REMARK  status: ('A' for Active; 'I' for Inactive)
REMARK    1  A    between atoms: C_1  and  C_2
REMARK    2  A    between atoms: C_2  and  N_71
REMARK    3  A    between atoms: C_3  and  C_4
REMARK    4  A    between atoms: C_3  and  N_71
REMARK    5  A    between atoms: C_5  and  C_6
REMARK    6  A    between atoms: C_5  and  N_71
REMARK    7  A    between atoms: C_6  and  N_7
REMARK    8  A    between atoms: C_8  and  C_32
REMARK    9  A    between atoms: C_10  and  C_15
REMARK   10  A    between atoms: C_11  and  O_14
REMARK   11  A    between atoms: C_15  and  C_17
REMARK   12  A    between atoms: C_20  and  O_23
REMARK   13  A    between atoms: O_23  and  C_24
REMARK   14  A    between atoms: C_24  and  C_25
REMARK   15  A    between atoms: C_29  and  C_31
REMARK                            x       y       z     vdW  Elec       q    Type
REMARK                         _______ _______ _______ _____ _____    ______ ____
ROOT
ATOM      1  N   UNL     1      -3.494   0.892   1.522  0.00  0.00    -0.285 N 
ATOM      2  C   UNL     1      -2.557   0.136   0.683  0.00  0.00    +0.144 C 
ATOM      3  C   UNL     1      -3.259  -0.090  -0.635  0.00  0.00    +0.071 C 
ATOM      4  C   UNL     1      -4.477   0.489  -0.533  0.00  0.00    +0.188 C 
ATOM      5  C   UNL     1      -4.616   1.096   0.807  0.00  0.00    +0.282 C 
ATOM      6  O   UNL     1      -5.597   1.692   1.205  0.00  0.00    -0.267 OA
ENDROOT
BRANCH   2   7
ATOM      7  C   UNL     1      -1.295   0.933   0.469  0.00  0.00    -0.022 A 
ATOM      8  C   UNL     1      -0.062   0.338   0.657  0.00  0.00    +0.007 A 
ATOM      9  C   UNL     1       1.095   1.066   0.454  0.00  0.00    +0.020 A 
ATOM     10  C   UNL     1       1.018   2.393   0.069  0.00  0.00    +0.041 A 
ATOM     11  C   UNL     1      -0.216   2.989  -0.114  0.00  0.00    +0.020 A 
ATOM     12  C   UNL     1      -1.373   2.260   0.089  0.00  0.00    +0.007 A 
ATOM     13 CL   UNL     1       2.471   3.308  -0.187  0.00  0.00    -0.084 Cl
ENDBRANCH   2   7
BRANCH   4  14
ATOM     14  O   UNL     1      -5.419   0.511  -1.505  0.00  0.00    -0.502 OA
ATOM     15  H   UNL     1      -6.226   1.001  -1.176  0.00  0.00    +0.292 HD
ENDBRANCH   4  14
BRANCH   3  16
ATOM     16  C   UNL     1      -2.723  -0.801  -1.801  0.00  0.00    +0.195 C 
ATOM     17  O   UNL     1      -2.497  -0.196  -2.832  0.00  0.00    -0.287 OA
BRANCH  16  18
ATOM     18  C   UNL     1      -2.458  -2.251  -1.723  0.00  0.00    +0.022 A 
ATOM     19  C   UNL     1      -2.794  -2.965  -0.568  0.00  0.00    +0.015 A 
ATOM     20  C   UNL     1      -2.549  -4.318  -0.502  0.00  0.00    +0.046 A 
ATOM     21  C   UNL     1      -1.960  -4.973  -1.577  0.00  0.00    +0.121 A 
ATOM     22  C   UNL     1      -1.619  -4.266  -2.725  0.00  0.00    +0.046 A 
ATOM     23  C   UNL     1      -1.865  -2.914  -2.802  0.00  0.00    +0.015 A 
BRANCH  21  24
ATOM     24  O   UNL     1      -1.716  -6.306  -1.506  0.00  0.00    -0.487 OA
BRANCH  24  25
ATOM     25  C   UNL     1      -2.091  -6.971  -0.298  0.00  0.00    +0.264 C 
BRANCH  25  26
ATOM     26  C   UNL     1      -1.746  -8.434  -0.401  0.00  0.00    -0.010 A 
ATOM     27  C   UNL     1      -0.504  -8.882   0.010  0.00  0.00    +0.007 A 
ATOM     28  C   UNL     1      -0.188 -10.224  -0.085  0.00  0.00    +0.001 A 
ATOM     29  C   UNL     1      -1.113 -11.118  -0.590  0.00  0.00    +0.003 A 
ATOM     30  C   UNL     1      -2.355 -10.671  -1.000  0.00  0.00    -0.050 A 
ATOM     31  C   UNL     1      -2.673  -9.329  -0.902  0.00  0.00    +0.010 A 
ATOM     32  C   UNL     1      -3.364 -11.645  -1.551  0.00  0.00    +0.044 C 
ENDBRANCH  25  26
ENDBRANCH  24  25
ENDBRANCH  21  24
ENDBRANCH  16  18
ENDBRANCH   3  16
BRANCH   1  33
ATOM     33  C   UNL     1      -3.253   1.343   2.894  0.00  0.00    +0.090 C 
BRANCH  33  34
ATOM     34  C   UNL     1      -2.622   2.737   2.869  0.00  0.00    -0.060 C 
BRANCH  34  35
ATOM     35  N   UNL     1      -2.365   3.169   4.259  0.00  0.00    +0.380 N 
ATOM     36  H   UNL     1      -1.840   2.433   4.746  0.00  0.00    -0.082 HD
BRANCH  35  38
ATOM     37  C   UNL     1      -0.104   4.054   3.975  0.00  0.00    -0.017 C 
ATOM     38  C   UNL     1      -1.563   4.411   4.262  0.00  0.00    -0.082 C 
ENDBRANCH  35  38
BRANCH  35  39
ATOM     39  C   UNL     1      -3.644   3.392   4.964  0.00  0.00    -0.082 C 
ATOM     40  C   UNL     1      -3.371   3.467   6.467  0.00  0.00    -0.017 C 
ENDBRANCH  35  39
ENDBRANCH  34  35
ENDBRANCH  33  34
ENDBRANCH   1  33
TORSDOF 12
