REMARK  Name = ZINC40734834
REMARK  6 active torsions:
REMARK  status: ('A' for Active; 'I' for Inactive)
REMARK    1  A    between atoms: C_1  and  C_2
REMARK    2  A    between atoms: C_7  and  C_9
REMARK    3  A    between atoms: C_7  and  C_10
REMARK    4  A    between atoms: C_14  and  N_26
REMARK    5  A    between atoms: C_15  and  N_19
REMARK    6  A    between atoms: N_19  and  C_20
REMARK                            x       y       z     vdW  Elec       q    Type
REMARK                         _______ _______ _______ _____ _____    ______ ____
ROOT
ATOM      1  C   UNL     1      -0.203   0.042   2.561  0.00  0.00    +0.013 C 
ATOM      2  C   UNL     1      -0.739  -1.396   2.489  0.00  0.00    -0.014 C 
ATOM      3  C   UNL     1       0.292  -2.379   1.868  0.00  0.00    +0.030 C 
ATOM      4  C   UNL     1      -0.658  -3.540   1.483  0.00  0.00    +0.076 C 
ATOM      5  C   UNL     1      -1.014  -4.280   2.770  0.00  0.00    +0.029 C 
ATOM      6  C   UNL     1      -1.604  -3.390   3.849  0.00  0.00    -0.033 C 
ATOM      7  C   UNL     1      -1.127  -1.950   3.858  0.00  0.00    +0.014 C 
ATOM      8  C   UNL     1      -1.212  -4.010   5.214  0.00  0.00    +0.011 C 
ATOM      9  C   UNL     1      -3.138  -3.437   3.778  0.00  0.00    +0.011 C 
ATOM     10  N   UNL     1      -1.869  -2.881   0.954  0.00  0.00    -0.310 N 
ATOM     11  C   UNL     1      -1.940  -1.528   1.526  0.00  0.00    +0.113 C 
ATOM     12  C   UNL     1      -2.778  -3.436   0.062  0.00  0.00    +0.147 A 
ATOM     13  C   UNL     1      -3.953  -2.756  -0.268  0.00  0.00    +0.104 A 
ATOM     14  C   UNL     1      -4.832  -3.359  -1.170  0.00  0.00    +0.126 A 
ATOM     15  N   UNL     1      -4.519  -4.549  -1.677  0.00  0.00    -0.333 N 
ATOM     16  C   UNL     1      -3.400  -5.157  -1.339  0.00  0.00    +0.200 A 
ATOM     17  N   UNL     1      -2.541  -4.621  -0.495  0.00  0.00    -0.221 NA
ATOM     18  H   UNL     1      -5.124  -4.976  -2.304  0.00  0.00    +0.168 HD
ENDROOT
BRANCH  13  19
ATOM     19  N   UNL     1      -4.242  -1.501   0.292  0.00  0.00    -0.353 N 
ATOM     20  H   UNL     1      -3.527  -0.865   0.451  0.00  0.00    +0.143 HD
ATOM     21  H   UNL     1      -5.156  -1.271   0.519  0.00  0.00    +0.143 HD
ENDBRANCH  13  19
BRANCH  14  22
ATOM     22  N   UNL     1      -6.015  -2.725  -1.532  0.00  0.00    -0.298 N 
ATOM     23  H   UNL     1      -6.190  -1.818  -1.236  0.00  0.00    +0.154 HD
BRANCH  22  24
ATOM     24  C   UNL     1      -6.953  -3.396  -2.323  0.00  0.00    +0.051 A 
ATOM     25  C   UNL     1      -7.208  -4.750  -2.121  0.00  0.00    +0.026 A 
ATOM     26  C   UNL     1      -8.146  -5.370  -2.930  0.00  0.00    +0.021 A 
ATOM     27  C   UNL     1      -8.793  -4.631  -3.903  0.00  0.00    +0.111 A 
ATOM     28  N   UNL     1      -8.528  -3.350  -4.069  0.00  0.00    -0.261 NA
ATOM     29  C   UNL     1      -7.648  -2.720  -3.318  0.00  0.00    +0.134 A 
ENDBRANCH  22  24
ENDBRANCH  14  22
TORSDOF 3
