REMARK  Name = ZINC10533503
REMARK  8 active torsions:
REMARK  status: ('A' for Active; 'I' for Inactive)
REMARK    1  A    between atoms: C_1  and  C_2
REMARK    2  A    between atoms: C_5  and  N_9
REMARK    3  A    between atoms: C_7  and  C_8
REMARK    4  A    between atoms: C_18  and  S_19
REMARK    5  A    between atoms: S_19  and  C_20
REMARK    6  A    between atoms: C_20  and  C_21
REMARK    7  A    between atoms: N_27  and  C_28
REMARK    8  A    between atoms: N_27  and  C_29
REMARK                            x       y       z     vdW  Elec       q    Type
REMARK                         _______ _______ _______ _____ _____    ______ ____
ROOT
ATOM      1  N   UNL     1       1.304  -4.546  -0.364  0.00  0.00    -0.255 N 
ATOM      2  C   UNL     1       1.815  -3.352   0.017  0.00  0.00    +0.268 A 
ATOM      3  O   UNL     1       3.014  -3.175   0.153  0.00  0.00    -0.267 OA
ATOM      4  C   UNL     1       0.861  -2.309   0.252  0.00  0.00    +0.076 A 
ATOM      5  C   UNL     1       1.149  -0.946   0.666  0.00  0.00    -0.023 A 
ATOM      6  C   UNL     1       0.087  -0.124   0.830  0.00  0.00    -0.004 A 
ATOM      7  S   UNL     1      -1.333  -1.116   0.444  0.00  0.00    -0.073 S 
ATOM      8  C   UNL     1      -0.504  -2.627   0.065  0.00  0.00    +0.117 A 
ATOM      9  N   UNL     1      -0.942  -3.822  -0.312  0.00  0.00    -0.215 NA
ATOM     10  C   UNL     1      -0.033  -4.765  -0.521  0.00  0.00    +0.178 A 
ATOM     11  C   UNL     1       0.109   1.314   1.247  0.00  0.00    +0.043 C 
ATOM     12  C   UNL     1       1.496   1.633   1.824  0.00  0.00    +0.005 C 
ATOM     13  C   UNL     1       2.561   1.090   0.868  0.00  0.00    +0.005 C 
ATOM     14  C   UNL     1       2.568  -0.438   0.911  0.00  0.00    +0.037 C 
ENDROOT
BRANCH   1  19
ATOM     15  C   UNL     1       4.885  -8.835  -1.356  0.00  0.00    +0.044 C 
ATOM     16  C   UNL     1       3.934  -7.696  -1.093  0.00  0.00    -0.047 A 
ATOM     17  C   UNL     1       3.416  -7.509   0.176  0.00  0.00    +0.005 A 
ATOM     18  C   UNL     1       2.549  -6.463   0.422  0.00  0.00    +0.026 A 
ATOM     19  C   UNL     1       2.188  -5.605  -0.609  0.00  0.00    +0.052 A 
ATOM     20  C   UNL     1       2.710  -5.796  -1.882  0.00  0.00    +0.030 A 
ATOM     21  C   UNL     1       3.582  -6.840  -2.120  0.00  0.00    -0.046 A 
ATOM     22  C   UNL     1       4.148  -7.048  -3.501  0.00  0.00    +0.044 C 
ENDBRANCH   1  19
BRANCH  10  23
ATOM     23  S   UNL     1      -0.575  -6.365  -1.022  0.00  0.00    -0.079 S 
BRANCH  23  24
ATOM     24  C   UNL     1      -2.363  -6.092  -1.067  0.00  0.00    +0.153 C 
BRANCH  24  25
ATOM     25  C   UNL     1      -3.056  -7.364  -1.483  0.00  0.00    +0.146 A 
ATOM     26  N   UNL     1      -3.435  -8.238  -0.567  0.00  0.00    -0.199 NA
ATOM     27  C   UNL     1      -4.047  -9.362  -0.931  0.00  0.00    +0.217 A 
ATOM     28  N   UNL     1      -4.277  -9.606  -2.217  0.00  0.00    -0.181 NA
ATOM     29  C   UNL     1      -3.894  -8.725  -3.134  0.00  0.00    +0.222 A 
ATOM     30  N   UNL     1      -3.287  -7.600  -2.762  0.00  0.00    -0.198 NA
ATOM     31  N   UNL     1      -4.131  -8.973  -4.471  0.00  0.00    -0.306 N 
ATOM     32  C   UNL     1      -4.804 -10.208  -4.879  0.00  0.00    +0.132 C 
ATOM     33  C   UNL     1      -3.708  -8.001  -5.482  0.00  0.00    +0.132 C 
ATOM     34  N   UNL     1      -4.442 -10.274   0.026  0.00  0.00    -0.327 N 
ATOM     35  H   UNL     1      -4.274 -10.097   0.965  0.00  0.00    +0.145 HD
ATOM     36  H   UNL     1      -4.888 -11.094  -0.239  0.00  0.00    +0.145 HD
ENDBRANCH  24  25
ENDBRANCH  23  24
ENDBRANCH  10  23
TORSDOF 4
