REMARK  Name = ZINC38598543
REMARK  7 active torsions:
REMARK  status: ('A' for Active; 'I' for Inactive)
REMARK    1  A    between atoms: C_1  and  C_2
REMARK    2  A    between atoms: C_5  and  S_9
REMARK    3  A    between atoms: C_7  and  C_8
REMARK    4  A    between atoms: S_9  and  C_12
REMARK    5  A    between atoms: N_24  and  N_28
REMARK    6  A    between atoms: C_25  and  N_27
REMARK    7  A    between atoms: C_29  and  C_30
REMARK                            x       y       z     vdW  Elec       q    Type
REMARK                         _______ _______ _______ _____ _____    ______ ____
ROOT
ATOM      1  C   UNL     1       2.491  -5.107  -0.389  0.00  0.00    +0.224 C 
ATOM      2  C   UNL     1       3.099  -4.529   0.871  0.00  0.00    +0.111 A 
ATOM      3  C   UNL     1       3.372  -5.588   1.752  0.00  0.00    +0.166 A 
ATOM      4  N   UNL     1       3.914  -5.331   2.936  0.00  0.00    -0.227 NA
ATOM      5  C   UNL     1       4.198  -4.074   3.286  0.00  0.00    +0.091 A 
ATOM      6  C   UNL     1       4.774  -3.781   4.535  0.00  0.00    +0.030 A 
ATOM      7  C   UNL     1       5.053  -2.490   4.864  0.00  0.00    +0.002 A 
ATOM      8  C   UNL     1       4.776  -1.449   3.980  0.00  0.00    +0.002 A 
ATOM      9  C   UNL     1       4.219  -1.695   2.763  0.00  0.00    +0.030 A 
ATOM     10  C   UNL     1       3.917  -3.014   2.388  0.00  0.00    +0.090 A 
ATOM     11  N   UNL     1       3.370  -3.288   1.198  0.00  0.00    -0.245 NA
ATOM     12  N   UNL     1       3.007  -6.809   1.206  0.00  0.00    -0.186 N 
ATOM     13  C   UNL     1       2.444  -6.622  -0.136  0.00  0.00    +0.195 C 
ENDROOT
BRANCH   1  14
ATOM     14  S   UNL     1       0.817  -4.455  -0.640  0.00  0.00    +0.008 S 
ATOM     15  O   UNL     1       0.060  -4.574   0.557  0.00  0.00    -0.169 OA
ATOM     16  O   UNL     1       0.292  -4.917  -1.878  0.00  0.00    -0.169 OA
BRANCH  14  21
ATOM     17  C   UNL     1       1.559   1.483  -1.406  0.00  0.00    +0.044 C 
ATOM     18  C   UNL     1       1.374   0.000  -1.215  0.00  0.00    -0.047 A 
ATOM     19  C   UNL     1       1.402  -0.847  -2.307  0.00  0.00    +0.005 A 
ATOM     20  C   UNL     1       1.232  -2.207  -2.132  0.00  0.00    +0.027 A 
ATOM     21  C   UNL     1       1.034  -2.721  -0.864  0.00  0.00    +0.089 A 
ATOM     22  C   UNL     1       1.007  -1.875   0.228  0.00  0.00    +0.030 A 
ATOM     23  C   UNL     1       1.181  -0.514   0.053  0.00  0.00    -0.046 A 
ATOM     24  C   UNL     1       1.156   0.408   1.245  0.00  0.00    +0.044 C 
ENDBRANCH  14  21
ENDBRANCH   1  14
BRANCH  13  25
ATOM     25  N   UNL     1       3.258  -7.329  -1.134  0.00  0.00    -0.309 NA
ATOM     26  H   UNL     1       3.147  -8.329  -1.050  0.00  0.00    +0.120 HD
ATOM     27  H   UNL     1       3.036  -7.019  -2.068  0.00  0.00    +0.120 HD
ENDBRANCH  13  25
BRANCH  12  28
ATOM     28  N   UNL     1       3.144  -7.949   1.794  0.00  0.00    -0.185 NA
ATOM     29  C   UNL     1       2.672  -9.038   1.234  0.00  0.00    +0.136 C 
BRANCH  29  30
ATOM     30  C   UNL     1       2.926 -10.286   1.809  0.00  0.00    +0.000 C 
ATOM     31  C   UNL     1       2.506 -11.532   1.341  0.00  0.00    +0.004 A 
ATOM     32  C   UNL     1       1.742 -11.922   0.220  0.00  0.00    +0.010 A 
ATOM     33  C   UNL     1       1.480 -13.237   0.007  0.00  0.00    +0.001 A 
ATOM     34  C   UNL     1       1.949 -14.226   0.875  0.00  0.00    +0.002 A 
ATOM     35  C   UNL     1       2.688 -13.924   1.971  0.00  0.00    +0.026 A 
ATOM     36  C   UNL     1       3.002 -12.570   2.259  0.00  0.00    +0.043 A 
ATOM     37  N   UNL     1       3.691 -12.026   3.242  0.00  0.00    -0.380 N 
ATOM     38  C   UNL     1       3.721 -10.571   3.064  0.00  0.00    +0.150 C 
ATOM     39  H   UNL     1       4.115 -12.511   3.967  0.00  0.00    +0.160 HD
ENDBRANCH  29  30
ENDBRANCH  12  28
TORSDOF 5
