REMARK  Name = ZINC04494539
REMARK  14 active torsions:
REMARK  status: ('A' for Active; 'I' for Inactive)
REMARK    1  A    between atoms: C_1  and  C_2
REMARK    2  A    between atoms: C_2  and  C_3
REMARK    3  A    between atoms: C_3  and  C_5
REMARK    4  A    between atoms: C_3  and  N_59
REMARK    5  A    between atoms: C_8  and  S_17
REMARK    6  A    between atoms: N_9  and  C_10
REMARK    7  A    between atoms: C_10  and  C_11
REMARK    8  A    between atoms: S_17  and  C_18
REMARK    9  A    between atoms: C_18  and  C_20
REMARK   10  A    between atoms: C_18  and  C_23
REMARK   11  A    between atoms: C_20  and  C_21
REMARK   12  A    between atoms: C_20  and  C_22
REMARK   13  A    between atoms: C_29  and  N_59
REMARK   14  A    between atoms: C_30  and  N_59
REMARK                            x       y       z     vdW  Elec       q    Type
REMARK                         _______ _______ _______ _____ _____    ______ ____
ROOT
ATOM      1  C   UNL     1       2.018   0.848   0.359  0.00  0.00    +0.121 A 
ATOM      2  N   UNL     1       1.184   1.846   0.440  0.00  0.00    -0.135 NA
ATOM      3  N   UNL     1       0.007   1.415   0.727  0.00  0.00    -0.123 NA
ATOM      4  C   UNL     1       0.027   0.108   0.845  0.00  0.00    +0.193 A 
ATOM      5  N   UNL     1       1.311  -0.295   0.614  0.00  0.00    -0.303 N 
ENDROOT
BRANCH   1   6
ATOM      6  C   UNL     1       3.489   0.937   0.044  0.00  0.00    +0.000 C 
BRANCH   6   9
ATOM      7  C   UNL     1       3.513   3.155   1.013  0.00  0.00    -0.096 C 
ATOM      8  C   UNL     1       4.141   1.240   2.356  0.00  0.00    -0.096 C 
ATOM      9  N   UNL     1       4.171   1.832   1.002  0.00  0.00    +0.383 N 
ATOM     10  H   UNL     1       5.149   1.948   0.711  0.00  0.00    -0.082 HD
ENDBRANCH   6   9
BRANCH   6  12
ATOM     11  C   UNL     1       5.164   1.506  -1.720  0.00  0.00    +0.002 C 
ATOM     12  C   UNL     1       3.675   1.492  -1.370  0.00  0.00    -0.011 C 
ENDBRANCH   6  12
ENDBRANCH   1   6
BRANCH   5  13
ATOM     13  C   UNL     1       1.825  -1.667   0.636  0.00  0.00    +0.160 C 
BRANCH  13  14
ATOM     14  C   UNL     1       1.713  -2.267  -0.742  0.00  0.00    -0.028 A 
ATOM     15  C   UNL     1       0.569  -2.953  -1.106  0.00  0.00    +0.005 A 
ATOM     16  C   UNL     1       0.464  -3.499  -2.371  0.00  0.00    +0.000 A 
ATOM     17  C   UNL     1       1.506  -3.369  -3.269  0.00  0.00    +0.000 A 
ATOM     18  C   UNL     1       2.652  -2.687  -2.904  0.00  0.00    +0.000 A 
ATOM     19  C   UNL     1       2.755  -2.136  -1.640  0.00  0.00    +0.005 A 
ENDBRANCH  13  14
ENDBRANCH   5  13
BRANCH   4  20
ATOM     20  S   UNL     1      -1.344  -0.930   1.228  0.00  0.00    -0.073 S 
BRANCH  20  21
ATOM     21  C   UNL     1      -2.615   0.324   1.523  0.00  0.00    +0.143 C 
BRANCH  21  22
ATOM     22  C   UNL     1      -2.949   1.016   0.226  0.00  0.00    +0.234 C 
ATOM     23  O   UNL     1      -2.764   0.447  -0.829  0.00  0.00    -0.274 OA
ATOM     24  N   UNL     1      -3.452   2.266   0.239  0.00  0.00    -0.239 N 
ATOM     25  C   UNL     1      -3.750   2.884  -0.921  0.00  0.00    +0.303 C 
ATOM     26  O   UNL     1      -3.565   2.314  -1.978  0.00  0.00    -0.253 OA
ATOM     27  N   UNL     1      -4.254   4.134  -0.908  0.00  0.00    -0.313 N 
ATOM     28  H   UNL     1      -3.600   2.720   1.083  0.00  0.00    +0.159 HD
ATOM     29  H   UNL     1      -4.401   4.589  -0.064  0.00  0.00    +0.146 HD
ATOM     30  H   UNL     1      -4.468   4.579  -1.743  0.00  0.00    +0.146 HD
ENDBRANCH  21  22
BRANCH  21  31
ATOM     31  C   UNL     1      -3.872  -0.346   2.081  0.00  0.00    +0.005 C 
ATOM     32  C   UNL     1      -3.548  -0.997   3.428  0.00  0.00    +0.009 C 
ATOM     33  C   UNL     1      -4.967   0.705   2.274  0.00  0.00    +0.009 C 
ENDBRANCH  21  31
ENDBRANCH  20  21
ENDBRANCH   4  20
TORSDOF 9
