REMARK  Name = ZINC49600265
REMARK  8 active torsions:
REMARK  status: ('A' for Active; 'I' for Inactive)
REMARK    1  A    between atoms: C_1  and  O_2
REMARK    2  A    between atoms: O_2  and  C_3
REMARK    3  A    between atoms: C_8  and  C_9
REMARK    4  A    between atoms: C_9  and  O_10
REMARK    5  A    between atoms: O_10  and  C_11
REMARK    6  A    between atoms: C_11  and  C_13
REMARK    7  A    between atoms: C_15  and  N_20
REMARK    8  A    between atoms: C_17  and  N_19
REMARK                            x       y       z     vdW  Elec       q    Type
REMARK                         _______ _______ _______ _____ _____    ______ ____
ROOT
ATOM      1  C   UNL     1       0.736  -5.084  -0.033  0.00  0.00    +0.340 C 
ATOM      2  O   UNL     1       1.876  -4.665  -0.042  0.00  0.00    -0.245 OA
ENDROOT
BRANCH   1   3
ATOM      3  C   UNL     1       0.484  -6.540  -0.038  0.00  0.00    +0.062 A 
ATOM      4  C   UNL     1      -0.825  -7.024  -0.034  0.00  0.00    +0.037 A 
ATOM      5  C   UNL     1      -1.058  -8.391  -0.039  0.00  0.00    +0.027 A 
ATOM      6  C   UNL     1       0.010  -9.279  -0.049  0.00  0.00    +0.045 A 
ATOM      7  C   UNL     1       1.314  -8.802  -0.053  0.00  0.00    +0.027 A 
ATOM      8  C   UNL     1       1.554  -7.435  -0.054  0.00  0.00    +0.037 A 
BRANCH   7   9
ATOM      9  N   UNL     1       2.385  -9.698  -0.062  0.00  0.00    -0.358 N 
ATOM     10  H   UNL     1       2.218 -10.654  -0.065  0.00  0.00    +0.142 HD
ATOM     11  H   UNL     1       3.296  -9.366  -0.065  0.00  0.00    +0.142 HD
ENDBRANCH   7   9
BRANCH   5  12
ATOM     12  N   UNL     1      -2.368  -8.876  -0.035  0.00  0.00    -0.358 N 
ATOM     13  H   UNL     1      -3.114  -8.256  -0.028  0.00  0.00    +0.142 HD
ATOM     14  H   UNL     1      -2.531  -9.832  -0.039  0.00  0.00    +0.142 HD
ENDBRANCH   5  12
ENDBRANCH   1   3
BRANCH   1  15
ATOM     15  O   UNL     1      -0.298  -4.222  -0.018  0.00  0.00    -0.456 OA
BRANCH  15  16
ATOM     16  C   UNL     1       0.019  -2.829  -0.014  0.00  0.00    +0.271 C 
BRANCH  16  22
ATOM     17  C   UNL     1      -1.200  -0.637   0.010  0.00  0.00    +0.127 A 
ATOM     18  C   UNL     1      -2.375   0.101   0.019  0.00  0.00    +0.047 A 
ATOM     19  C   UNL     1      -3.596  -0.544   0.028  0.00  0.00    +0.019 A 
ATOM     20  C   UNL     1      -3.648  -1.927   0.027  0.00  0.00    +0.018 A 
ATOM     21  C   UNL     1      -2.479  -2.666   0.018  0.00  0.00    +0.025 A 
ATOM     22  C   UNL     1      -1.255  -2.023   0.003  0.00  0.00    +0.032 A 
ATOM     23 BR   UNL     1      -5.321  -2.808   0.038  0.00  0.00    -0.050 Br
BRANCH  17  25
ATOM     24  C   UNL     1      -0.017   1.425   0.010  0.00  0.00    +0.277 C 
ATOM     25  O   UNL     1       0.002  -0.004   0.002  0.00  0.00    -0.495 OA
ENDBRANCH  17  25
ENDBRANCH  16  22
ENDBRANCH  15  16
ENDBRANCH   1  15
TORSDOF 7
