REMARK  Name = ZINC61804803
REMARK  10 active torsions:
REMARK  status: ('A' for Active; 'I' for Inactive)
REMARK    1  A    between atoms: C_1  and  C_2
REMARK    2  A    between atoms: C_2  and  C_3
REMARK    3  A    between atoms: C_3  and  C_5
REMARK    4  A    between atoms: C_3  and  N_21
REMARK    5  A    between atoms: C_5  and  C_7
REMARK    6  A    between atoms: C_5  and  N_12
REMARK    7  A    between atoms: N_12  and  C_13
REMARK    8  A    between atoms: N_12  and  C_17
REMARK    9  A    between atoms: C_13  and  C_14
REMARK   10  A    between atoms: C_17  and  C_18
REMARK                            x       y       z     vdW  Elec       q    Type
REMARK                         _______ _______ _______ _____ _____    ______ ____
ROOT
ATOM      1  C   UNL     1      -1.435  -1.890   0.290  0.00  0.00    +0.074 C 
ENDROOT
BRANCH   1   2
ATOM      2  C   UNL     1      -0.998  -2.141   1.710  0.00  0.00    -0.025 A 
ATOM      3  C   UNL     1       0.339  -2.327   2.010  0.00  0.00    +0.012 A 
ATOM      4  C   UNL     1       0.699  -2.550   3.297  0.00  0.00    +0.045 A 
ATOM      5  S   UNL     1      -0.877  -2.502   4.135  0.00  0.00    -0.105 S 
ATOM      6  C   UNL     1      -1.908  -2.182   2.713  0.00  0.00    +0.050 A 
ENDBRANCH   1   2
BRANCH   1   7
ATOM      7  C   UNL     1      -1.518  -0.383   0.040  0.00  0.00    -0.053 C 
BRANCH   7   8
ATOM      8  N   UNL     1      -1.935  -0.139  -1.347  0.00  0.00    +0.381 N 
ATOM      9  H   UNL     1      -1.314  -0.625  -1.976  0.00  0.00    -0.090 HD
ATOM     10  H   UNL     1      -2.878  -0.474  -1.479  0.00  0.00    -0.090 HD
ATOM     11  H   UNL     1      -1.901   0.851  -1.539  0.00  0.00    -0.090 HD
ENDBRANCH   7   8
BRANCH   7  13
ATOM     12  C   UNL     1      -0.257   1.770   0.152  0.00  0.00    +0.002 C 
ATOM     13  C   UNL     1      -0.146   0.250   0.279  0.00  0.00    -0.018 C 
ENDBRANCH   7  13
ENDBRANCH   1   7
BRANCH   1  14
ATOM     14  N   UNL     1      -2.755  -2.497   0.070  0.00  0.00    -0.280 NA
BRANCH  14  15
ATOM     15  C   UNL     1      -3.828  -1.599   0.517  0.00  0.00    +0.181 C 
BRANCH  15  16
ATOM     16  C   UNL     1      -5.102  -2.385   0.688  0.00  0.00    +0.225 C 
ATOM     17  O   UNL     1      -5.094  -3.590   0.555  0.00  0.00    -0.275 OA
ATOM     18  N   UNL     1      -6.252  -1.748   0.989  0.00  0.00    -0.328 N 
ATOM     19  H   UNL     1      -6.259  -0.784   1.095  0.00  0.00    +0.145 HD
ATOM     20  H   UNL     1      -7.072  -2.255   1.099  0.00  0.00    +0.145 HD
ENDBRANCH  15  16
ENDBRANCH  14  15
BRANCH  14  21
ATOM     21  C   UNL     1      -2.935  -2.870  -1.340  0.00  0.00    +0.181 C 
BRANCH  21  22
ATOM     22  C   UNL     1      -2.160  -4.130  -1.629  0.00  0.00    +0.225 C 
ATOM     23  O   UNL     1      -1.599  -4.717  -0.727  0.00  0.00    -0.275 OA
ATOM     24  N   UNL     1      -2.090  -4.604  -2.888  0.00  0.00    -0.328 N 
ATOM     25  H   UNL     1      -2.538  -4.134  -3.609  0.00  0.00    +0.145 HD
ATOM     26  H   UNL     1      -1.591  -5.415  -3.074  0.00  0.00    +0.145 HD
ENDBRANCH  21  22
ENDBRANCH  14  21
ENDBRANCH   1  14
TORSDOF 9
