REMARK  Name = ZINC64623115
REMARK  7 active torsions:
REMARK  status: ('A' for Active; 'I' for Inactive)
REMARK    1  A    between atoms: C_1  and  O_2
REMARK    2  A    between atoms: O_2  and  C_3
REMARK    3  A    between atoms: C_6  and  C_9
REMARK    4  A    between atoms: N_27  and  C_28
REMARK    5  A    between atoms: C_33  and  C_34
REMARK    6  A    between atoms: C_34  and  O_36
REMARK    7  A    between atoms: O_36  and  C_37
REMARK                            x       y       z     vdW  Elec       q    Type
REMARK                         _______ _______ _______ _____ _____    ______ ____
ROOT
ATOM      1  C   UNL     1       2.525  -2.523  -4.365  0.00  0.00    +0.134 C 
ATOM      2  C   UNL     1       3.968  -2.898  -4.010  0.00  0.00    +0.131 C 
ATOM      3  C   UNL     1       4.468  -3.806  -5.126  0.00  0.00    -0.035 C 
ATOM      4  C   UNL     1       5.571  -3.241  -5.603  0.00  0.00    +0.001 A 
ATOM      5  C   UNL     1       6.529  -3.677  -6.631  0.00  0.00    +0.030 A 
ATOM      6  C   UNL     1       7.564  -2.831  -6.885  0.00  0.00    +0.042 A 
ATOM      7  C   UNL     1       7.738  -1.610  -6.225  0.00  0.00    +0.022 A 
ATOM      8  C   UNL     1       6.909  -1.133  -5.263  0.00  0.00    +0.027 A 
ATOM      9  C   UNL     1       5.786  -1.935  -4.907  0.00  0.00    +0.043 A 
ATOM     10  N   UNL     1       4.847  -1.728  -4.000  0.00  0.00    -0.375 N 
ATOM     11 CL   UNL     1       8.727  -3.291  -8.088  0.00  0.00    -0.084 Cl
ATOM     12  C   UNL     1       3.718  -5.039  -5.566  0.00  0.00    +0.052 C 
ATOM     13  C   UNL     1       2.262  -4.606  -5.816  0.00  0.00    +0.114 C 
ATOM     14  N   UNL     1       1.807  -3.761  -4.708  0.00  0.00    -0.276 N 
ATOM     15  C   UNL     1       0.722  -4.122  -3.995  0.00  0.00    +0.307 C 
ATOM     16  O   UNL     1       0.272  -3.372  -3.150  0.00  0.00    -0.252 OA
ATOM     17  N   UNL     1       0.135  -5.314  -4.219  0.00  0.00    -0.269 N 
ATOM     18  H   UNL     1       0.533  -5.941  -4.843  0.00  0.00    +0.156 HD
ATOM     19  H   UNL     1       4.747  -0.947  -3.433  0.00  0.00    +0.160 HD
ENDROOT
BRANCH   1  23
ATOM     20  C   UNL     1       0.652  -0.645  -1.014  0.00  0.00    +0.120 A 
ATOM     21  C   UNL     1       1.578  -1.658  -0.815  0.00  0.00    +0.046 A 
ATOM     22  C   UNL     1       2.182  -2.264  -1.900  0.00  0.00    +0.009 A 
ATOM     23  C   UNL     1       1.864  -1.861  -3.183  0.00  0.00    -0.024 A 
ATOM     24  C   UNL     1       0.941  -0.851  -3.385  0.00  0.00    +0.009 A 
ATOM     25  C   UNL     1       0.330  -0.246  -2.304  0.00  0.00    +0.046 A 
BRANCH  20  27
ATOM     26  C   UNL     1       0.436  -0.509   1.349  0.00  0.00    +0.277 C 
ATOM     27  O   UNL     1       0.056  -0.048   0.051  0.00  0.00    -0.495 OA
ENDBRANCH  20  27
ENDBRANCH   1  23
BRANCH  17  28
ATOM     28  C   UNL     1      -1.043  -5.646  -3.555  0.00  0.00    +0.049 A 
ATOM     29  C   UNL     1      -1.250  -5.225  -2.248  0.00  0.00    +0.024 A 
ATOM     30  C   UNL     1      -2.418  -5.555  -1.591  0.00  0.00    +0.002 A 
ATOM     31  C   UNL     1      -3.393  -6.307  -2.228  0.00  0.00    +0.001 A 
ATOM     32  C   UNL     1      -3.206  -6.734  -3.525  0.00  0.00    +0.017 A 
ATOM     33  C   UNL     1      -2.030  -6.403  -4.205  0.00  0.00    +0.080 A 
BRANCH  33  34
ATOM     34  C   UNL     1      -1.826  -6.851  -5.594  0.00  0.00    +0.341 C 
ATOM     35  O   UNL     1      -0.766  -6.642  -6.150  0.00  0.00    -0.245 OA
BRANCH  34  36
ATOM     36  O   UNL     1      -2.816  -7.492  -6.247  0.00  0.00    -0.464 OA
ATOM     37  C   UNL     1      -2.549  -7.897  -7.591  0.00  0.00    +0.280 C 
ENDBRANCH  34  36
ENDBRANCH  33  34
ENDBRANCH  17  28
TORSDOF 5
