REMARK  Name = ZINC49727883
REMARK  6 active torsions:
REMARK  status: ('A' for Active; 'I' for Inactive)
REMARK    1  A    between atoms: C_1  and  C_2
REMARK    2  A    between atoms: C_2  and  C_4
REMARK    3  A    between atoms: C_2  and  N_9
REMARK    4  A    between atoms: N_9  and  C_10
REMARK    5  A    between atoms: C_12  and  C_21
REMARK    6  A    between atoms: C_21  and  N_22
REMARK                            x       y       z     vdW  Elec       q    Type
REMARK                         _______ _______ _______ _____ _____    ______ ____
ROOT
ATOM      1  N   UNL     1       0.878  -0.839   1.509  0.00  0.00    -0.311 N 
ATOM      2  C   UNL     1      -0.238  -1.756   1.748  0.00  0.00    +0.131 C 
ATOM      3  C   UNL     1       2.184  -1.288   1.639  0.00  0.00    +0.124 A 
ATOM      4  C   UNL     1       2.846  -1.124   2.865  0.00  0.00    -0.024 A 
ATOM      5  C   UNL     1       4.128  -1.560   3.008  0.00  0.00    +0.015 A 
ATOM      6  C   UNL     1       4.754  -2.170   1.901  0.00  0.00    +0.001 A 
ATOM      7  C   UNL     1       6.073  -2.642   1.979  0.00  0.00    +0.010 A 
ATOM      8  C   UNL     1       6.645  -3.227   0.890  0.00  0.00    +0.001 A 
ATOM      9  C   UNL     1       5.937  -3.362  -0.302  0.00  0.00    +0.002 A 
ATOM     10  C   UNL     1       4.656  -2.914  -0.413  0.00  0.00    +0.028 A 
ATOM     11  C   UNL     1       4.032  -2.306   0.690  0.00  0.00    +0.073 A 
ATOM     12  N   UNL     1       2.772  -1.863   0.611  0.00  0.00    -0.232 NA
ENDROOT
BRANCH   1  14
ATOM     13  C   UNL     1      -0.323   1.190   2.159  0.00  0.00    +0.033 C 
ATOM     14  C   UNL     1       0.616   0.552   1.133  0.00  0.00    +0.108 C 
BRANCH  14  15
ATOM     15  C   UNL     1      -0.027   0.592  -0.230  0.00  0.00    +0.010 A 
ATOM     16  C   UNL     1       0.193   1.453  -1.253  0.00  0.00    +0.013 A 
ATOM     17  C   UNL     1      -0.520   1.296  -2.426  0.00  0.00    +0.008 A 
ATOM     18  C   UNL     1      -1.419   0.285  -2.519  0.00  0.00    +0.045 A 
ATOM     19  S   UNL     1      -1.270  -0.489  -0.918  0.00  0.00    -0.100 S 
ENDBRANCH  14  15
ENDBRANCH   1  14
BRANCH   4  20
ATOM     20  C   UNL     1       2.139  -0.465   4.022  0.00  0.00    -0.047 C 
BRANCH  20  21
ATOM     21  N   UNL     1       1.246  -1.437   4.667  0.00  0.00    +0.381 N 
ATOM     22  H   UNL     1       0.587  -1.790   3.989  0.00  0.00    -0.090 HD
ATOM     23  H   UNL     1       1.791  -2.202   5.036  0.00  0.00    -0.090 HD
ATOM     24  H   UNL     1       0.746  -0.987   5.419  0.00  0.00    -0.090 HD
ENDBRANCH  20  21
ENDBRANCH   4  20
TORSDOF 4
