REMARK  Name = ZINC36643429
REMARK  11 active torsions:
REMARK  status: ('A' for Active; 'I' for Inactive)
REMARK    1  A    between atoms: C_1  and  N_2
REMARK    2  A    between atoms: N_2  and  C_3
REMARK    3  A    between atoms: N_2  and  C_4
REMARK    4  A    between atoms: C_4  and  C_5
REMARK    5  A    between atoms: C_5  and  C_6
REMARK    6  A    between atoms: C_6  and  N_7
REMARK    7  A    between atoms: C_11  and  O_17
REMARK    8  A    between atoms: O_17  and  C_18
REMARK    9  A    between atoms: C_19  and  C_21
REMARK   10  A    between atoms: C_24  and  S_27
REMARK   11  A    between atoms: S_27  and  N_30
REMARK                            x       y       z     vdW  Elec       q    Type
REMARK                         _______ _______ _______ _____ _____    ______ ____
ROOT
ATOM      1  N   UNL     1      -4.391  -0.221  -2.388  0.00  0.00    -0.246 N 
ATOM      2  C   UNL     1      -4.474  -1.030  -3.509  0.00  0.00    +0.168 A 
ATOM      3  N   UNL     1      -4.918  -0.732  -4.708  0.00  0.00    -0.221 NA
ATOM      4  C   UNL     1      -4.940  -1.630  -5.717  0.00  0.00    +0.122 A 
ATOM      5  C   UNL     1      -5.391  -1.440  -7.048  0.00  0.00    +0.146 A 
ATOM      6  C   UNL     1      -5.344  -2.470  -7.958  0.00  0.00    +0.048 A 
ATOM      7  C   UNL     1      -4.859  -3.722  -7.609  0.00  0.00    +0.005 A 
ATOM      8  C   UNL     1      -4.412  -3.941  -6.319  0.00  0.00    +0.017 A 
ATOM      9  C   UNL     1      -4.454  -2.918  -5.402  0.00  0.00    +0.044 A 
ATOM     10  S   UNL     1      -3.996  -2.742  -3.694  0.00  0.00    -0.052 S 
ATOM     11  C   UNL     1      -4.807   1.060  -2.448  0.00  0.00    +0.252 C 
ATOM     12  O   UNL     1      -5.319   1.485  -3.465  0.00  0.00    -0.270 OA
ENDROOT
BRANCH  11  13
ATOM     13  C   UNL     1      -4.641   1.947  -1.278  0.00  0.00    +0.037 A 
ATOM     14  C   UNL     1      -3.523   1.816  -0.452  0.00  0.00    +0.015 A 
ATOM     15  C   UNL     1      -3.374   2.647   0.639  0.00  0.00    +0.029 A 
ATOM     16  C   UNL     1      -4.329   3.609   0.915  0.00  0.00    +0.106 A 
ATOM     17  C   UNL     1      -5.439   3.744   0.100  0.00  0.00    +0.029 A 
ATOM     18  C   UNL     1      -5.598   2.923  -0.997  0.00  0.00    +0.015 A 
BRANCH  16  19
ATOM     19  S   UNL     1      -4.131   4.666   2.311  0.00  0.00    +0.061 S 
ATOM     20  O   UNL     1      -5.431   5.118   2.666  0.00  0.00    -0.153 OA
ATOM     21  O   UNL     1      -3.288   3.979   3.224  0.00  0.00    -0.153 OA
BRANCH  19  22
ATOM     22  N   UNL     1      -3.290   5.998   1.800  0.00  0.00    -0.172 NA
ATOM     23  C   UNL     1      -1.820   6.029   1.844  0.00  0.00    +0.137 C 
ATOM     24  C   UNL     1      -1.304   6.471   0.470  0.00  0.00    +0.177 C 
ATOM     25  O   UNL     1      -1.953   7.688   0.093  0.00  0.00    -0.377 OA
ATOM     26  C   UNL     1      -3.370   7.573  -0.058  0.00  0.00    +0.177 C 
ATOM     27  C   UNL     1      -3.991   7.185   1.284  0.00  0.00    +0.137 C 
ENDBRANCH  19  22
ENDBRANCH  16  19
ENDBRANCH  11  13
BRANCH   5  28
ATOM     28  O   UNL     1      -5.874  -0.228  -7.429  0.00  0.00    -0.493 OA
ATOM     29  C   UNL     1      -6.312  -0.100  -8.783  0.00  0.00    +0.277 C 
ENDBRANCH   5  28
BRANCH   1  30
ATOM     30  C   UNL     1      -3.851  -0.757  -1.136  0.00  0.00    +0.114 C 
BRANCH  30  31
ATOM     31  C   UNL     1      -2.332  -0.896  -1.254  0.00  0.00    +0.001 C 
BRANCH  31  32
ATOM     32  C   UNL     1      -1.751  -1.307   0.101  0.00  0.00    -0.078 C 
BRANCH  32  34
ATOM     33  C   UNL     1       0.298  -0.128  -0.306  0.00  0.00    -0.097 C 
ATOM     34  N   UNL     1      -0.293  -1.440  -0.012  0.00  0.00    +0.376 N 
ATOM     35  C   UNL     1       0.252  -1.950   1.254  0.00  0.00    -0.097 C 
ATOM     36  H   UNL     1      -0.070  -2.084  -0.757  0.00  0.00    -0.083 HD
ENDBRANCH  32  34
ENDBRANCH  31  32
ENDBRANCH  30  31
ENDBRANCH   1  30
TORSDOF 8
