REMARK  Name = ZINC36591162
REMARK  20 active torsions:
REMARK  status: ('A' for Active; 'I' for Inactive)
REMARK    1  A    between atoms: C_1  and  C_2
REMARK    2  A    between atoms: C_2  and  C_4
REMARK    3  A    between atoms: C_2  and  C_10
REMARK    4  A    between atoms: C_10  and  C_12
REMARK    5  A    between atoms: C_10  and  N_23
REMARK    6  A    between atoms: N_14  and  C_15
REMARK    7  A    between atoms: C_15  and  C_16
REMARK    8  A    between atoms: C_15  and  C_17
REMARK    9  A    between atoms: C_15  and  C_18
REMARK   10  A    between atoms: C_18  and  C_19
REMARK   11  A    between atoms: C_19  and  C_20
REMARK   12  A    between atoms: C_19  and  C_21
REMARK   13  A    between atoms: C_19  and  C_22
REMARK   14  A    between atoms: N_23  and  C_36
REMARK   15  A    between atoms: C_24  and  C_26
REMARK   16  A    between atoms: C_26  and  N_27
REMARK   17  A    between atoms: C_28  and  C_30
REMARK   18  A    between atoms: C_36  and  C_37
REMARK   19  A    between atoms: C_36  and  C_38
REMARK   20  A    between atoms: C_36  and  C_39
REMARK                            x       y       z     vdW  Elec       q    Type
REMARK                         _______ _______ _______ _____ _____    ______ ____
ROOT
ATOM      1  C   UNL     1      -0.672  -2.563   1.739  0.00  0.00    +0.169 C 
ENDROOT
BRANCH   1   2
ATOM      2  C   UNL     1      -0.525  -4.060   1.635  0.00  0.00    +0.235 C 
ATOM      3  O   UNL     1      -0.527  -4.740   2.639  0.00  0.00    -0.274 OA
ATOM      4  N   UNL     1      -0.392  -4.642   0.427  0.00  0.00    -0.309 N 
ATOM      5  H   UNL     1      -0.391  -4.097  -0.376  0.00  0.00    +0.149 HD
BRANCH   4   6
ATOM      6  C   UNL     1      -0.250  -6.096   0.326  0.00  0.00    +0.030 C 
ATOM      7  C   UNL     1       0.955  -6.549   1.153  0.00  0.00    +0.031 C 
ATOM      8  C   UNL     1      -1.516  -6.771   0.858  0.00  0.00    +0.031 C 
BRANCH   6   9
ATOM      9  C   UNL     1      -0.039  -6.488  -1.138  0.00  0.00    +0.031 C 
BRANCH   9  10
ATOM     10  C   UNL     1      -1.118  -5.831  -2.002  0.00  0.00    -0.036 C 
ATOM     11  C   UNL     1      -0.683  -4.410  -2.367  0.00  0.00    +0.010 C 
ATOM     12  C   UNL     1      -1.316  -6.649  -3.280  0.00  0.00    +0.010 C 
ATOM     13  C   UNL     1      -2.433  -5.777  -1.222  0.00  0.00    +0.010 C 
ENDBRANCH   9  10
ENDBRANCH   6   9
ENDBRANCH   4   6
ENDBRANCH   1   2
BRANCH   1  14
ATOM     14  N   UNL     1      -0.747  -2.177   3.150  0.00  0.00    -0.283 N 
ATOM     15  C   UNL     1      -0.722  -0.874   3.494  0.00  0.00    +0.234 C 
ATOM     16  O   UNL     1      -0.757  -0.019   2.635  0.00  0.00    -0.274 OA
BRANCH  14  17
ATOM     17  C   UNL     1      -0.849  -3.207   4.187  0.00  0.00    +0.030 C 
ATOM     18  C   UNL     1       0.482  -3.953   4.298  0.00  0.00    +0.031 C 
ATOM     19  C   UNL     1      -1.177  -2.548   5.529  0.00  0.00    +0.031 C 
ATOM     20  C   UNL     1      -1.958  -4.194   3.819  0.00  0.00    +0.031 C 
ENDBRANCH  14  17
BRANCH  15  21
ATOM     21  C   UNL     1      -0.651  -0.479   4.947  0.00  0.00    +0.200 C 
BRANCH  21  22
ATOM     22  N   UNL     1      -0.831   0.969   5.069  0.00  0.00    -0.303 N 
ATOM     23  C   UNL     1      -0.804   1.552   6.284  0.00  0.00    +0.244 C 
ATOM     24  O   UNL     1      -0.631   0.875   7.279  0.00  0.00    -0.270 OA
ATOM     25  H   UNL     1      -0.969   1.510   4.275  0.00  0.00    +0.150 HD
BRANCH  23  26
ATOM     26  C   UNL     1      -0.986   3.014   6.407  0.00  0.00    +0.037 A 
ATOM     27  C   UNL     1      -1.190   3.793   5.267  0.00  0.00    +0.013 A 
ATOM     28  C   UNL     1      -1.359   5.157   5.389  0.00  0.00    +0.001 A 
ATOM     29  C   UNL     1      -1.326   5.753   6.637  0.00  0.00    +0.000 A 
ATOM     30  C   UNL     1      -1.123   4.986   7.771  0.00  0.00    +0.001 A 
ATOM     31  C   UNL     1      -0.959   3.620   7.664  0.00  0.00    +0.013 A 
ENDBRANCH  23  26
ENDBRANCH  21  22
ENDBRANCH  15  21
ENDBRANCH   1  14
BRANCH   1  33
ATOM     32  C   UNL     1      -1.981  -0.599   0.922  0.00  0.00    +0.015 C 
ATOM     33  C   UNL     1      -1.950  -2.125   1.022  0.00  0.00    +0.045 C 
BRANCH  33  34
ATOM     34  C   UNL     1      -3.151  -2.603   1.798  0.00  0.00    -0.042 A 
ATOM     35  C   UNL     1      -3.406  -2.095   3.058  0.00  0.00    +0.004 A 
ATOM     36  C   UNL     1      -4.507  -2.533   3.769  0.00  0.00    +0.000 A 
ATOM     37  C   UNL     1      -5.353  -3.478   3.221  0.00  0.00    +0.000 A 
ATOM     38  C   UNL     1      -5.099  -3.985   1.960  0.00  0.00    +0.000 A 
ATOM     39  C   UNL     1      -4.000  -3.544   1.247  0.00  0.00    +0.004 A 
ENDBRANCH  33  34
ENDBRANCH   1  33
TORSDOF 11
