REMARK  Name = ZINC67411150
REMARK  8 active torsions:
REMARK  status: ('A' for Active; 'I' for Inactive)
REMARK    1  A    between atoms: C_1  and  C_2
REMARK    2  A    between atoms: C_2  and  C_3
REMARK    3  A    between atoms: C_2  and  N_4
REMARK    4  A    between atoms: C_7  and  N_10
REMARK    5  A    between atoms: N_13  and  N_14
REMARK    6  A    between atoms: C_15  and  C_17
REMARK    7  A    between atoms: C_17  and  C_18
REMARK    8  A    between atoms: C_18  and  C_19
REMARK                            x       y       z     vdW  Elec       q    Type
REMARK                         _______ _______ _______ _____ _____    ______ ____
ROOT
ATOM      1  N   UNL     1      -0.602  -1.292   4.452  0.00  0.00    -0.297 N 
ATOM      2  C   UNL     1      -0.334  -1.746   5.693  0.00  0.00    +0.316 C 
ATOM      3  O   UNL     1       0.818  -1.923   6.040  0.00  0.00    -0.251 OA
ATOM      4  N   UNL     1      -1.343  -2.003   6.549  0.00  0.00    -0.218 N 
ATOM      5  H   UNL     1      -1.521  -1.151   4.175  0.00  0.00    +0.150 HD
ATOM      6  H   UNL     1      -1.150  -2.329   7.441  0.00  0.00    +0.174 HD
ENDROOT
BRANCH   1  10
ATOM      7  N   UNL     1       0.713  -0.491   1.192  0.00  0.00    +0.382 N 
ATOM      8  C   UNL     1       0.638  -1.972   1.272  0.00  0.00    -0.077 C 
ATOM      9  C   UNL     1       0.891  -2.295   2.760  0.00  0.00    +0.002 C 
ATOM     10  C   UNL     1       0.495  -1.013   3.522  0.00  0.00    +0.056 C 
ATOM     11  C   UNL     1       0.035  -0.024   2.429  0.00  0.00    -0.056 C 
ATOM     12  H   UNL     1       1.674  -0.184   1.179  0.00  0.00    -0.081 HD
BRANCH   7  14
ATOM     13  C   UNL     1      -0.019   1.526   0.010  0.00  0.00    -0.014 C 
ATOM     14  C   UNL     1       0.002  -0.004   0.002  0.00  0.00    -0.075 C 
ATOM     15  C   UNL     1       0.718  -0.497  -1.257  0.00  0.00    -0.014 C 
ENDBRANCH   7  14
ENDBRANCH   1  10
BRANCH   4  16
ATOM     16  N   UNL     1      -2.670  -1.798   6.149  0.00  0.00    -0.233 N 
ATOM     17  C   UNL     1      -3.679  -2.056   7.005  0.00  0.00    +0.229 C 
ATOM     18  O   UNL     1      -3.438  -2.463   8.121  0.00  0.00    -0.274 OA
ATOM     19  H   UNL     1      -2.863  -1.472   5.256  0.00  0.00    +0.173 HD
BRANCH  17  20
ATOM     20  C   UNL     1      -5.106  -1.836   6.575  0.00  0.00    +0.097 C 
BRANCH  20  21
ATOM     21  C   UNL     1      -6.047  -2.201   7.725  0.00  0.00    +0.013 C 
BRANCH  21  22
ATOM     22  C   UNL     1      -7.497  -1.978   7.288  0.00  0.00    -0.011 C 
ATOM     23  C   UNL     1      -7.729  -0.487   7.032  0.00  0.00    +0.003 C 
ATOM     24  C   UNL     1      -9.178  -0.264   6.596  0.00  0.00    +0.000 C 
ATOM     25  C   UNL     1     -10.123  -0.746   7.699  0.00  0.00    +0.000 C 
ATOM     26  C   UNL     1      -9.890  -2.236   7.954  0.00  0.00    +0.000 C 
ATOM     27  C   UNL     1      -8.441  -2.459   8.391  0.00  0.00    +0.003 C 
ENDBRANCH  21  22
ENDBRANCH  20  21
ENDBRANCH  17  20
ENDBRANCH   4  16
TORSDOF 6
