REMARK  Name = ZINC39638543
REMARK  11 active torsions:
REMARK  status: ('A' for Active; 'I' for Inactive)
REMARK    1  A    between atoms: C_1  and  C_2
REMARK    2  A    between atoms: C_2  and  C_3
REMARK    3  A    between atoms: C_3  and  C_4
REMARK    4  A    between atoms: C_4  and  C_6
REMARK    5  A    between atoms: C_4  and  C_7
REMARK    6  A    between atoms: C_11  and  C_20
REMARK    7  A    between atoms: N_22  and  C_23
REMARK    8  A    between atoms: C_23  and  C_24
REMARK    9  A    between atoms: C_29  and  O_30
REMARK   10  A    between atoms: O_30  and  C_31
REMARK   11  A    between atoms: C_31  and  C_32
REMARK                            x       y       z     vdW  Elec       q    Type
REMARK                         _______ _______ _______ _____ _____    ______ ____
ROOT
ATOM      1  C   UNL     1       1.834  -2.099   2.119  0.00  0.00    +0.218 C 
ATOM      2  O   UNL     1       1.491  -1.500   1.121  0.00  0.00    -0.275 OA
ATOM      3  N   UNL     1       1.994  -3.436   2.080  0.00  0.00    -0.300 N 
ATOM      4  C   UNL     1       1.895  -4.329   0.902  0.00  0.00    +0.121 C 
ATOM      5  C   UNL     1       3.028  -5.361   1.098  0.00  0.00    +0.100 C 
ATOM      6  C   UNL     1       3.293  -5.369   2.613  0.00  0.00    -0.004 C 
ATOM      7  C   UNL     1       2.314  -4.346   3.206  0.00  0.00    +0.115 C 
ATOM      8  C   UNL     1       3.023  -6.756   3.189  0.00  0.00    -0.010 C 
ATOM      9  C   UNL     1       3.350  -6.754   4.686  0.00  0.00    -0.082 C 
ATOM     10  N   UNL     1       4.757  -6.386   4.881  0.00  0.00    +0.379 N 
ATOM     11  C   UNL     1       4.987  -5.016   4.408  0.00  0.00    -0.082 C 
ATOM     12  C   UNL     1       4.730  -4.944   2.900  0.00  0.00    -0.010 C 
ATOM     13  H   UNL     1       4.986  -6.445   5.862  0.00  0.00    -0.086 HD
ATOM     14  H   UNL     1       5.345  -7.023   4.363  0.00  0.00    -0.086 HD
ENDROOT
BRANCH   5  15
ATOM     15  C   UNL     1       4.264  -4.933   0.349  0.00  0.00    +0.218 C 
ATOM     16  O   UNL     1       4.479  -3.755   0.158  0.00  0.00    -0.275 OA
ATOM     17  N   UNL     1       5.130  -5.859  -0.108  0.00  0.00    -0.311 N 
ATOM     18  H   UNL     1       4.923  -6.802  -0.018  0.00  0.00    +0.149 HD
BRANCH  17  19
ATOM     19  C   UNL     1       6.383  -5.440  -0.742  0.00  0.00    +0.143 C 
BRANCH  19  20
ATOM     20  C   UNL     1       7.110  -6.652  -1.265  0.00  0.00    +0.011 A 
ATOM     21  C   UNL     1       8.191  -7.162  -0.572  0.00  0.00    +0.009 A 
ATOM     22  C   UNL     1       8.859  -8.273  -1.051  0.00  0.00    +0.001 A 
ATOM     23  C   UNL     1       8.447  -8.877  -2.225  0.00  0.00    +0.004 A 
ATOM     24  C   UNL     1       7.367  -8.371  -2.922  0.00  0.00    +0.046 A 
ATOM     25  C   UNL     1       6.691  -7.259  -2.439  0.00  0.00    +0.125 A 
BRANCH  25  26
ATOM     26  O   UNL     1       5.625  -6.763  -3.120  0.00  0.00    -0.492 OA
BRANCH  26  27
ATOM     27  C   UNL     1       5.181  -7.503  -4.259  0.00  0.00    +0.225 C 
ATOM     28  C   UNL     1       3.984  -6.791  -4.894  0.00  0.00    +0.048 C 
ENDBRANCH  26  27
ENDBRANCH  25  26
ENDBRANCH  19  20
ENDBRANCH  17  19
ENDBRANCH   5  15
BRANCH   1  29
ATOM     29  C   UNL     1       2.081  -1.347   3.401  0.00  0.00    +0.072 C 
ATOM     30  C   UNL     1       0.792  -1.306   4.224  0.00  0.00    +0.017 C 
BRANCH  29  31
ATOM     31  C   UNL     1       2.525   0.082   3.077  0.00  0.00    +0.012 C 
BRANCH  31  33
ATOM     32  C   UNL     1       3.294   2.248   4.055  0.00  0.00    +0.004 C 
ATOM     33  C   UNL     1       2.917   0.799   4.370  0.00  0.00    -0.003 C 
ENDBRANCH  31  33
ENDBRANCH  29  31
ENDBRANCH   1  29
TORSDOF 8
