REMARK  Name = ZINC04306082
REMARK  6 active torsions:
REMARK  status: ('A' for Active; 'I' for Inactive)
REMARK    1  A    between atoms: C_1  and  C_2
REMARK    2  A    between atoms: C_5  and  N_9
REMARK    3  A    between atoms: C_7  and  C_8
REMARK    4  A    between atoms: C_11  and  N_24
REMARK    5  A    between atoms: C_12  and  N_23
REMARK    6  A    between atoms: N_19  and  C_22
REMARK                            x       y       z     vdW  Elec       q    Type
REMARK                         _______ _______ _______ _____ _____    ______ ____
ROOT
ATOM      1  N   UNL     1       0.051  -4.168  -0.021  0.00  0.00    -0.297 N 
ATOM      2  C   UNL     1      -0.047  -4.856  -1.221  0.00  0.00    +0.160 A 
ATOM      3  C   UNL     1      -0.136  -6.245  -1.232  0.00  0.00    +0.205 A 
ATOM      4  C   UNL     1      -0.233  -6.893  -2.460  0.00  0.00    +0.154 A 
ATOM      5  N   UNL     1      -0.237  -6.168  -3.577  0.00  0.00    -0.197 NA
ATOM      6  C   UNL     1      -0.151  -4.847  -3.528  0.00  0.00    +0.221 A 
ATOM      7  N   UNL     1      -0.063  -4.197  -2.377  0.00  0.00    -0.197 NA
ATOM      8  N   UNL     1      -0.158  -4.127  -4.710  0.00  0.00    -0.303 N 
ATOM      9  C   UNL     1       0.055  -2.671  -4.710  0.00  0.00    +0.089 C 
ATOM     10  C   UNL     1       1.143  -2.340  -5.737  0.00  0.00    -0.060 C 
ATOM     11  N   UNL     1       0.768  -2.898  -7.043  0.00  0.00    +0.380 N 
ATOM     12  C   UNL     1       0.729  -4.364  -6.967  0.00  0.00    -0.060 C 
ATOM     13  C   UNL     1      -0.373  -4.796  -6.002  0.00  0.00    +0.089 C 
ATOM     14  C   UNL     1       1.755  -2.487  -8.050  0.00  0.00    -0.096 C 
ATOM     15  H   UNL     1       0.135  -4.657   0.813  0.00  0.00    +0.154 HD
ATOM     16  H   UNL     1      -0.142  -2.552  -7.306  0.00  0.00    -0.082 HD
ENDROOT
BRANCH   1  21
ATOM     17  C   UNL     1      -0.039   1.503   0.014  0.00  0.00    +0.044 C 
ATOM     18  C   UNL     1      -0.015  -0.004   0.005  0.00  0.00    -0.047 A 
ATOM     19  C   UNL     1      -0.739  -0.700  -0.947  0.00  0.00    +0.005 A 
ATOM     20  C   UNL     1      -0.719  -2.080  -0.958  0.00  0.00    +0.023 A 
ATOM     21  C   UNL     1       0.029  -2.770  -0.012  0.00  0.00    +0.033 A 
ATOM     22  C   UNL     1       0.755  -2.068   0.941  0.00  0.00    +0.027 A 
ATOM     23  C   UNL     1       0.735  -0.687   0.944  0.00  0.00    -0.046 A 
ATOM     24  C   UNL     1       1.526   0.075   1.975  0.00  0.00    +0.044 C 
ENDBRANCH   1  21
BRANCH   4  25
ATOM     25  N   UNL     1      -0.323  -8.275  -2.520  0.00  0.00    -0.341 N 
ATOM     26  H   UNL     1      -0.320  -8.797  -1.703  0.00  0.00    +0.144 HD
ATOM     27  H   UNL     1      -0.391  -8.720  -3.380  0.00  0.00    +0.144 HD
ENDBRANCH   4  25
BRANCH   3  28
ATOM     28  N   UNL     1      -0.128  -7.015   0.032  0.00  0.00    +0.063 N 
ATOM     29  O   UNL     1      -1.168  -7.263   0.596  0.00  0.00    -0.126 OA
ATOM     30  O   UNL     1       0.920  -7.396   0.500  0.00  0.00    -0.126 OA
ENDBRANCH   3  28
TORSDOF 3
