REMARK  Name = ZINC51145735
REMARK  6 active torsions:
REMARK  status: ('A' for Active; 'I' for Inactive)
REMARK    1  A    between atoms: C_1  and  C_2
REMARK    2  A    between atoms: C_8  and  N_10
REMARK    3  A    between atoms: N_10  and  C_11
REMARK    4  A    between atoms: N_10  and  C_12
REMARK    5  A    between atoms: C_12  and  C_13
REMARK    6  A    between atoms: N_22  and  N_23
REMARK                            x       y       z     vdW  Elec       q    Type
REMARK                         _______ _______ _______ _____ _____    ______ ____
ROOT
ATOM      1  C   UNL     1      -0.821   2.107   3.266  0.00  0.00    +0.116 A 
ATOM      2  N   UNL     1      -2.137   2.207   3.223  0.00  0.00    -0.218 NA
ATOM      3  C   UNL     1      -2.838   2.715   4.223  0.00  0.00    +0.144 A 
ATOM      4  C   UNL     1      -2.158   3.170   5.386  0.00  0.00    +0.049 A 
ATOM      5  C   UNL     1      -2.689   3.758   6.603  0.00  0.00    +0.021 A 
ATOM      6  C   UNL     1      -1.843   4.116   7.581  0.00  0.00    +0.048 A 
ATOM      7  S   UNL     1      -0.243   3.682   6.927  0.00  0.00    -0.077 S 
ATOM      8  C   UNL     1      -0.753   3.031   5.358  0.00  0.00    +0.113 A 
ATOM      9  N   UNL     1      -0.134   2.507   4.318  0.00  0.00    -0.227 NA
ATOM     10  N   UNL     1      -4.216   2.802   4.140  0.00  0.00    -0.267 N 
ATOM     11  H   UNL     1      -4.724   3.175   4.877  0.00  0.00    +0.167 HD
ENDROOT
BRANCH  10  12
ATOM     12  N   UNL     1      -4.861   2.362   3.019  0.00  0.00    -0.255 NA
ATOM     13  H   UNL     1      -5.859   2.490   3.102  0.00  0.00    +0.140 HD
ATOM     14  H   UNL     1      -4.506   2.821   2.193  0.00  0.00    +0.140 HD
ENDBRANCH  10  12
BRANCH   1  15
ATOM     15  C   UNL     1      -0.087   1.518   2.088  0.00  0.00    -0.001 C 
BRANCH  15  16
ATOM     16  N   UNL     1       0.032   0.064   2.264  0.00  0.00    +0.385 N 
ATOM     17  C   UNL     1       0.900  -0.221   3.413  0.00  0.00    -0.095 C 
ATOM     18  H   UNL     1      -0.882  -0.331   2.426  0.00  0.00    -0.081 HD
BRANCH  16  25
ATOM     19  C   UNL     1      -0.727  -2.605   1.426  0.00  0.00    +0.006 C 
ATOM     20  C   UNL     1       0.683  -2.049   1.211  0.00  0.00    -0.028 C 
ATOM     21  C   UNL     1       1.288  -2.667  -0.051  0.00  0.00    +0.002 C 
ATOM     22  C   UNL     1       2.697  -2.111  -0.266  0.00  0.00    +0.000 C 
ATOM     23  C   UNL     1       2.627  -0.591  -0.425  0.00  0.00    -0.002 C 
ATOM     24  C   UNL     1       2.022   0.027   0.837  0.00  0.00    -0.015 C 
ATOM     25  C   UNL     1       0.613  -0.529   1.052  0.00  0.00    -0.065 C 
ENDBRANCH  16  25
ENDBRANCH  15  16
ENDBRANCH   1  15
TORSDOF 4
