REMARK  Name = ZINC40318028
REMARK  9 active torsions:
REMARK  status: ('A' for Active; 'I' for Inactive)
REMARK    1  A    between atoms: C_3  and  C_9
REMARK    2  A    between atoms: C_9  and  N_10
REMARK    3  A    between atoms: N_10  and  C_11
REMARK    4  A    between atoms: N_10  and  C_25
REMARK    5  A    between atoms: C_11  and  C_12
REMARK    6  A    between atoms: C_12  and  C_14
REMARK    7  A    between atoms: C_12  and  O_24
REMARK    8  A    between atoms: C_14  and  O_15
REMARK    9  A    between atoms: O_15  and  C_16
REMARK                            x       y       z     vdW  Elec       q    Type
REMARK                         _______ _______ _______ _____ _____    ______ ____
ROOT
ATOM      1  N   UNL     1       4.354   1.893   1.166  0.00  0.00    +0.387 N 
ATOM      2  H   UNL     1       4.468   0.898   1.282  0.00  0.00    -0.081 HD
ENDROOT
BRANCH   1   3
ATOM      3  C   UNL     1       3.154   2.337   1.888  0.00  0.00    -0.045 C 
ATOM      4  C   UNL     1       2.038   1.292   1.731  0.00  0.00    +0.009 C 
ATOM      5  C   UNL     1       0.689   1.885   2.205  0.00  0.00    +0.164 C 
ATOM      6  S   UNL     1       0.907   3.684   1.893  0.00  0.00    -0.033 S 
ATOM      7  O   UNL     1       0.850   4.378   3.132  0.00  0.00    -0.174 OA
ATOM      8  O   UNL     1       0.049   4.077   0.831  0.00  0.00    -0.174 OA
ATOM      9  C   UNL     1       2.647   3.680   1.288  0.00  0.00    +0.151 C 
ENDBRANCH   1   3
BRANCH   1  10
ATOM     10  C   UNL     1       4.211   2.207  -0.262  0.00  0.00    -0.041 C 
BRANCH  10  13
ATOM     11  C   UNL     1       0.938   1.158  -1.823  0.00  0.00    +0.020 A 
ATOM     12  C   UNL     1       1.940   1.938  -1.278  0.00  0.00    +0.004 A 
ATOM     13  C   UNL     1       3.119   1.355  -0.856  0.00  0.00    -0.046 A 
ATOM     14  C   UNL     1       3.298  -0.012  -0.979  0.00  0.00    +0.044 A 
ATOM     15  C   UNL     1       2.296  -0.794  -1.525  0.00  0.00    +0.040 A 
ATOM     16  C   UNL     1       1.115  -0.209  -1.947  0.00  0.00    +0.042 A 
ATOM     17 CL   UNL     1      -0.143  -1.189  -2.632  0.00  0.00    -0.083 Cl
ATOM     18 CL   UNL     1       4.780  -0.745  -0.450  0.00  0.00    -0.083 Cl
ENDBRANCH  10  13
ENDBRANCH   1  10
BRANCH   1  19
ATOM     19  C   UNL     1       5.533   2.586   1.704  0.00  0.00    -0.043 C 
BRANCH  19  20
ATOM     20  C   UNL     1       5.873   2.020   3.084  0.00  0.00    +0.135 C 
BRANCH  20  21
ATOM     21  O   UNL     1       4.852   2.388   4.014  0.00  0.00    -0.390 OA
ATOM     22  H   UNL     1       4.711   3.342   4.086  0.00  0.00    +0.210 HD
ENDBRANCH  20  21
BRANCH  20  23
ATOM     23  C   UNL     1       7.216   2.584   3.550  0.00  0.00    +0.258 C 
BRANCH  23  24
ATOM     24  O   UNL     1       7.589   1.967   4.784  0.00  0.00    -0.488 OA
BRANCH  24  25
ATOM     25  C   UNL     1       8.766   2.359   5.339  0.00  0.00    +0.139 A 
ATOM     26  C   UNL     1       9.543   3.322   4.712  0.00  0.00    +0.048 A 
ATOM     27  C   UNL     1      10.739   3.719   5.277  0.00  0.00    +0.023 A 
ATOM     28  C   UNL     1      11.163   3.158   6.469  0.00  0.00    +0.043 A 
ATOM     29  C   UNL     1      10.391   2.198   7.097  0.00  0.00    +0.043 A 
ATOM     30  C   UNL     1       9.190   1.801   6.537  0.00  0.00    +0.084 A 
ATOM     31 CL   UNL     1       8.217   0.601   7.329  0.00  0.00    -0.080 Cl
ATOM     32 CL   UNL     1      12.667   3.659   7.176  0.00  0.00    -0.083 Cl
ENDBRANCH  24  25
ENDBRANCH  23  24
ENDBRANCH  20  23
ENDBRANCH  19  20
ENDBRANCH   1  19
TORSDOF 9
