REMARK  Name = ZINC41648930
REMARK  10 active torsions:
REMARK  status: ('A' for Active; 'I' for Inactive)
REMARK    1  A    between atoms: C_1  and  C_2
REMARK    2  A    between atoms: C_3  and  C_25
REMARK    3  A    between atoms: C_7  and  N_8
REMARK    4  A    between atoms: C_9  and  C_11
REMARK    5  A    between atoms: N_13  and  C_14
REMARK    6  A    between atoms: C_14  and  C_15
REMARK    7  A    between atoms: C_15  and  C_17
REMARK    8  A    between atoms: C_15  and  N_22
REMARK    9  A    between atoms: N_22  and  C_23
REMARK   10  A    between atoms: N_22  and  C_24
REMARK                            x       y       z     vdW  Elec       q    Type
REMARK                         _______ _______ _______ _____ _____    ______ ____
ROOT
ATOM      1  N   UNL     1       0.474   0.110   2.460  0.00  0.00    -0.277 N 
ATOM      2  C   UNL     1       0.672  -0.516   3.636  0.00  0.00    +0.303 C 
ATOM      3  O   UNL     1       0.861  -1.715   3.661  0.00  0.00    -0.265 OA
ATOM      4  H   UNL     1       0.250   1.054   2.445  0.00  0.00    +0.155 HD
ENDROOT
BRANCH   1  11
ATOM      5  C   UNL     1      -0.839   1.141   0.158  0.00  0.00    +0.046 C 
ATOM      6  C   UNL     1      -0.034  -0.132   0.115  0.00  0.00    -0.017 A 
ATOM      7  C   UNL     1       0.091  -0.841  -1.080  0.00  0.00    +0.041 A 
ATOM      8  C   UNL     1       0.839  -2.019  -1.112  0.00  0.00    +0.013 A 
ATOM      9  C   UNL     1       1.452  -2.480   0.036  0.00  0.00    +0.003 A 
ATOM     10  C   UNL     1       1.328  -1.778   1.220  0.00  0.00    +0.023 A 
ATOM     11  C   UNL     1       0.591  -0.600   1.261  0.00  0.00    +0.037 A 
BRANCH   7  12
ATOM     12  C   UNL     1      -0.567  -0.347  -2.308  0.00  0.00    +0.242 C 
ATOM     13  O   UNL     1      -1.114   0.739  -2.310  0.00  0.00    -0.270 OA
ATOM     14  N   UNL     1      -0.561  -1.100  -3.426  0.00  0.00    -0.325 N 
ATOM     15  H   UNL     1      -0.125  -1.966  -3.424  0.00  0.00    +0.145 HD
ATOM     16  H   UNL     1      -0.993  -0.775  -4.231  0.00  0.00    +0.145 HD
ENDBRANCH   7  12
ENDBRANCH   1  11
BRANCH   2  17
ATOM     17  C   UNL     1       0.660   0.264   4.909  0.00  0.00    +0.299 C 
ATOM     18  O   UNL     1       0.472   1.463   4.885  0.00  0.00    -0.265 OA
ATOM     19  N   UNL     1       0.859  -0.362   6.086  0.00  0.00    -0.309 N 
ATOM     20  H   UNL     1       1.010  -1.321   6.106  0.00  0.00    +0.149 HD
BRANCH  19  21
ATOM     21  C   UNL     1       0.847   0.403   7.335  0.00  0.00    +0.094 C 
BRANCH  21  22
ATOM     22  C   UNL     1       1.205  -0.519   8.502  0.00  0.00    -0.020 C 
BRANCH  22  23
ATOM     23  C   UNL     1       0.124  -1.554   8.674  0.00  0.00    -0.052 A 
ATOM     24  C   UNL     1       0.292  -2.834   8.180  0.00  0.00    +0.009 A 
ATOM     25  C   UNL     1      -0.701  -3.741   8.352  0.00  0.00    +0.045 A 
ATOM     26  S   UNL     1      -1.923  -2.787   9.236  0.00  0.00    -0.105 S 
ATOM     27  C   UNL     1      -1.027  -1.246   9.322  0.00  0.00    +0.047 A 
ENDBRANCH  22  23
BRANCH  22  28
ATOM     28  N   UNL     1       1.326   0.273   9.733  0.00  0.00    +0.382 N 
ATOM     29  C   UNL     1       1.725  -0.603  10.842  0.00  0.00    -0.096 C 
ATOM     30  C   UNL     1       2.340   1.319   9.545  0.00  0.00    -0.096 C 
ATOM     31  H   UNL     1       0.437   0.701   9.946  0.00  0.00    -0.082 HD
ENDBRANCH  22  28
ENDBRANCH  21  22
ENDBRANCH  19  21
ENDBRANCH   2  17
TORSDOF 7
