REMARK  Name = ZINC43406925
REMARK  4 active torsions:
REMARK  status: ('A' for Active; 'I' for Inactive)
REMARK    1  A    between atoms: C_1  and  C_2
REMARK    2  A    between atoms: C_7  and  O_8
REMARK    3  A    between atoms: O_8  and  C_9
REMARK    4  A    between atoms: C_10  and  C_18
REMARK                            x       y       z     vdW  Elec       q    Type
REMARK                         _______ _______ _______ _____ _____    ______ ____
ROOT
ATOM      1  C   UNL     1      -0.183  -0.758   3.521  0.00  0.00    +0.231 A 
ATOM      2  C   UNL     1      -0.170  -0.098   4.758  0.00  0.00    +0.074 A 
ATOM      3  C   UNL     1      -0.128  -0.864   5.927  0.00  0.00    +0.022 A 
ATOM      4  C   UNL     1      -0.102  -2.244   5.812  0.00  0.00    -0.025 A 
ATOM      5  C   UNL     1      -0.118  -2.827   4.558  0.00  0.00    +0.048 A 
ATOM      6  N   UNL     1      -0.163  -2.078   3.467  0.00  0.00    -0.217 NA
ATOM      7  C   UNL     1      -0.083  -4.335   4.699  0.00  0.00    +0.056 C 
ATOM      8  C   UNL     1       0.396  -4.596   6.143  0.00  0.00    +0.011 C 
ATOM      9  C   UNL     1      -0.054  -3.317   6.878  0.00  0.00    +0.037 C 
ENDROOT
BRANCH   2  10
ATOM     10  C   UNL     1      -0.198   1.377   4.825  0.00  0.00    +0.099 C 
ATOM     11  N   UNL     1      -1.152   1.995   5.521  0.00  0.00    -0.387 N 
ATOM     12  N   UNL     1       0.730   2.091   4.189  0.00  0.00    -0.344 N 
ATOM     13  H   UNL     1      -1.869   1.480   5.923  0.00  0.00    +0.157 HD
ATOM     14  H   UNL     1       1.424   1.642   3.682  0.00  0.00    +0.144 HD
ATOM     15  H   UNL     1       0.711   3.060   4.233  0.00  0.00    +0.144 HD
ATOM     16  H   UNL     1      -1.129   2.959   5.627  0.00  0.00    +0.157 HD
ENDBRANCH   2  10
BRANCH   1  17
ATOM     17  O   UNL     1      -0.224  -0.039   2.374  0.00  0.00    -0.437 OA
BRANCH  17  24
ATOM     18  C   UNL     1       2.155  -0.961   1.162  0.00  0.00    +0.047 C 
ATOM     19  C   UNL     1       0.793  -1.192   0.559  0.00  0.00    -0.007 A 
ATOM     20  C   UNL     1       0.673  -1.884  -0.631  0.00  0.00    +0.027 A 
ATOM     21  C   UNL     1      -0.577  -2.096  -1.185  0.00  0.00    +0.041 A 
ATOM     22  C   UNL     1      -1.708  -1.615  -0.549  0.00  0.00    +0.023 A 
ATOM     23  C   UNL     1      -1.592  -0.923   0.640  0.00  0.00    +0.048 A 
ATOM     24  C   UNL     1      -0.340  -0.715   1.201  0.00  0.00    +0.133 A 
ATOM     25 CL   UNL     1      -0.726  -2.965  -2.680  0.00  0.00    -0.084 Cl
ENDBRANCH  17  24
ENDBRANCH   1  17
TORSDOF 3
