REMARK  Name = ZINC34947067
REMARK  7 active torsions:
REMARK  status: ('A' for Active; 'I' for Inactive)
REMARK    1  A    between atoms: C_4  and  N_7
REMARK    2  A    between atoms: N_7  and  C_8
REMARK    3  A    between atoms: C_8  and  C_9
REMARK    4  A    between atoms: C_9  and  C_10
REMARK    5  A    between atoms: C_10  and  N_11
REMARK    6  A    between atoms: N_14  and  C_15
REMARK    7  A    between atoms: N_24  and  C_25
REMARK                            x       y       z     vdW  Elec       q    Type
REMARK                         _______ _______ _______ _____ _____    ______ ____
ROOT
ATOM      1  N   UNL     1       3.468  -0.500  -0.572  0.00  0.00    -0.255 N 
ATOM      2  C   UNL     1       4.742  -0.061  -0.604  0.00  0.00    +0.311 C 
ATOM      3  O   UNL     1       5.008   0.998  -1.139  0.00  0.00    -0.252 OA
ATOM      4  N   UNL     1       5.722  -0.796  -0.041  0.00  0.00    -0.269 N 
ATOM      5  H   UNL     1       5.529  -1.685   0.295  0.00  0.00    +0.156 HD
ENDROOT
BRANCH   4   6
ATOM      6  C   UNL     1       7.018  -0.276   0.058  0.00  0.00    +0.035 A 
ATOM      7  C   UNL     1       7.208   1.083   0.271  0.00  0.00    +0.025 A 
ATOM      8  C   UNL     1       8.488   1.593   0.369  0.00  0.00    +0.022 A 
ATOM      9  C   UNL     1       9.580   0.751   0.254  0.00  0.00    +0.041 A 
ATOM     10  C   UNL     1       9.393  -0.604   0.042  0.00  0.00    +0.022 A 
ATOM     11  C   UNL     1       8.116  -1.120  -0.051  0.00  0.00    +0.025 A 
ATOM     12 CL   UNL     1      11.187   1.396   0.377  0.00  0.00    -0.084 Cl
ENDBRANCH   4   6
BRANCH   1  16
ATOM     13  C   UNL     1       0.489   1.611  -2.580  0.00  0.00    +0.000 A 
ATOM     14  C   UNL     1       0.398   1.420  -1.213  0.00  0.00    +0.002 A 
ATOM     15  C   UNL     1       1.384   0.721  -0.545  0.00  0.00    +0.023 A 
ATOM     16  C   UNL     1       2.467   0.209  -1.246  0.00  0.00    +0.038 A 
ATOM     17  C   UNL     1       2.556   0.402  -2.619  0.00  0.00    +0.023 A 
ATOM     18  C   UNL     1       1.567   1.102  -3.281  0.00  0.00    +0.002 A 
ENDBRANCH   1  16
BRANCH   1  19
ATOM     19  C   UNL     1       3.131  -1.718   0.168  0.00  0.00    +0.117 C 
BRANCH  19  20
ATOM     20  C   UNL     1       3.255  -2.929  -0.759  0.00  0.00    +0.038 C 
BRANCH  20  21
ATOM     21  C   UNL     1       2.903  -4.201   0.014  0.00  0.00    +0.107 C 
BRANCH  21  22
ATOM     22  N   UNL     1       3.022  -5.361  -0.874  0.00  0.00    -0.299 N 
ATOM     23  C   UNL     1       2.758  -6.597  -0.406  0.00  0.00    +0.304 C 
ATOM     24  O   UNL     1       2.421  -6.750   0.752  0.00  0.00    -0.253 OA
ATOM     25  N   UNL     1       2.867  -7.664  -1.223  0.00  0.00    -0.268 N 
ATOM     26  H   UNL     1       3.290  -5.239  -1.798  0.00  0.00    +0.150 HD
ATOM     27  H   UNL     1       3.223  -7.554  -2.119  0.00  0.00    +0.156 HD
BRANCH  25  28
ATOM     28  C   UNL     1       2.468  -8.930  -0.778  0.00  0.00    +0.049 A 
ATOM     29  C   UNL     1       1.568  -9.046   0.273  0.00  0.00    +0.024 A 
ATOM     30  C   UNL     1       1.176 -10.296   0.709  0.00  0.00    +0.002 A 
ATOM     31  C   UNL     1       1.679 -11.432   0.100  0.00  0.00    +0.001 A 
ATOM     32  C   UNL     1       2.575 -11.320  -0.946  0.00  0.00    +0.017 A 
ATOM     33  C   UNL     1       2.967 -10.072  -1.391  0.00  0.00    +0.039 A 
ATOM     34 BR   UNL     1       4.188  -9.919  -2.828  0.00  0.00    -0.048 Br
ENDBRANCH  25  28
ENDBRANCH  21  22
ENDBRANCH  20  21
ENDBRANCH  19  20
ENDBRANCH   1  19
TORSDOF 7
