REMARK  Name = ZINC34677338
REMARK  14 active torsions:
REMARK  status: ('A' for Active; 'I' for Inactive)
REMARK    1  A    between atoms: C_1  and  C_2
REMARK    2  A    between atoms: C_6  and  N_8
REMARK    3  A    between atoms: C_9  and  C_11
REMARK    4  A    between atoms: C_14  and  C_16
REMARK    5  A    between atoms: C_16  and  N_17
REMARK    6  A    between atoms: N_20  and  C_23
REMARK    7  A    between atoms: C_23  and  C_24
REMARK    8  A    between atoms: C_24  and  C_26
REMARK    9  A    between atoms: C_24  and  O_32
REMARK   10  A    between atoms: C_26  and  O_27
REMARK   11  A    between atoms: O_27  and  C_28
REMARK   12  A    between atoms: C_28  and  C_29
REMARK   13  A    between atoms: C_28  and  C_30
REMARK   14  A    between atoms: C_28  and  C_31
REMARK                            x       y       z     vdW  Elec       q    Type
REMARK                         _______ _______ _______ _____ _____    ______ ____
ROOT
ATOM      1  C   UNL     1       0.492  -5.934   6.829  0.00  0.00    +0.019 C 
ENDROOT
BRANCH   1   2
ATOM      2  N   UNL     1       1.898  -6.355   6.895  0.00  0.00    +0.387 N 
ATOM      3  C   UNL     1       2.446  -6.445   5.535  0.00  0.00    -0.063 C 
ATOM      4  C   UNL     1       3.916  -6.865   5.604  0.00  0.00    +0.066 C 
ATOM      5  N   UNL     1       4.019  -8.166   6.280  0.00  0.00    -0.303 NA
ATOM      6  C   UNL     1       3.452  -8.098   7.634  0.00  0.00    +0.066 C 
ATOM      7  C   UNL     1       1.986  -7.668   7.548  0.00  0.00    -0.063 C 
ATOM      8  H   UNL     1       2.427  -5.679   7.426  0.00  0.00    -0.081 HD
BRANCH   5   9
ATOM      9  C   UNL     1       5.412  -8.632   6.316  0.00  0.00    +0.117 C 
BRANCH   9  10
ATOM     10  C   UNL     1       5.889  -8.923   4.892  0.00  0.00    +0.154 C 
BRANCH  10  11
ATOM     11  O   UNL     1       5.137 -10.010   4.350  0.00  0.00    -0.388 OA
ATOM     12  H   UNL     1       5.217 -10.833   4.852  0.00  0.00    +0.210 HD
ENDBRANCH  10  11
BRANCH  10  13
ATOM     13  C   UNL     1       7.374  -9.293   4.917  0.00  0.00    +0.193 C 
BRANCH  13  14
ATOM     14  O   UNL     1       7.848  -9.452   3.579  0.00  0.00    -0.372 OA
BRANCH  14  15
ATOM     15  C   UNL     1       9.231  -9.800   3.489  0.00  0.00    +0.061 C 
ATOM     16  C   UNL     1       9.471 -11.127   4.213  0.00  0.00    +0.041 C 
ATOM     17  C   UNL     1       9.627  -9.943   2.018  0.00  0.00    +0.041 C 
ATOM     18  C   UNL     1      10.076  -8.704   4.141  0.00  0.00    +0.041 C 
ENDBRANCH  14  15
ENDBRANCH  13  14
ENDBRANCH  10  13
ENDBRANCH   9  10
ENDBRANCH   5   9
ENDBRANCH   1   2
BRANCH   1  22
ATOM     19  C   UNL     1       0.258  -2.878   4.898  0.00  0.00    +0.164 A 
ATOM     20  C   UNL     1       0.351  -2.366   6.155  0.00  0.00    +0.230 A 
ATOM     21  O   UNL     1       0.446  -3.409   6.996  0.00  0.00    -0.449 OA
ATOM     22  C   UNL     1       0.412  -4.536   6.272  0.00  0.00    +0.179 A 
ATOM     23  N   UNL     1       0.294  -4.234   5.014  0.00  0.00    -0.210 NA
BRANCH  19  25
ATOM     24  N   UNL     1       0.045  -2.754   2.466  0.00  0.00    -0.278 N 
ATOM     25  C   UNL     1       0.135  -2.110   3.646  0.00  0.00    +0.270 C 
ATOM     26  O   UNL     1       0.115  -0.894   3.679  0.00  0.00    -0.268 OA
ATOM     27  H   UNL     1       0.003  -3.722   2.444  0.00  0.00    +0.155 HD
BRANCH  24  33
ATOM     28  C   UNL     1      -1.339   1.266  -0.004  0.00  0.00    +0.044 C 
ATOM     29  C   UNL     1      -0.651  -0.073   0.045  0.00  0.00    -0.049 A 
ATOM     30  C   UNL     1      -0.050  -0.583  -1.091  0.00  0.00    +0.006 A 
ATOM     31  C   UNL     1       0.583  -1.811  -1.052  0.00  0.00    +0.040 A 
ATOM     32  C   UNL     1       0.617  -2.535   0.127  0.00  0.00    +0.145 A 
ATOM     33  C   UNL     1       0.014  -2.024   1.271  0.00  0.00    +0.070 A 
ATOM     34  C   UNL     1      -0.615  -0.788   1.227  0.00  0.00    +0.029 A 
ATOM     35  F   UNL     1       1.234  -3.736   0.166  0.00  0.00    -0.204 F 
ENDBRANCH  24  33
ENDBRANCH  19  25
ENDBRANCH   1  22
TORSDOF 10
