REMARK  Name = ZINC33161943
REMARK  9 active torsions:
REMARK  status: ('A' for Active; 'I' for Inactive)
REMARK    1  A    between atoms: C_1  and  C_2
REMARK    2  A    between atoms: C_2  and  O_3
REMARK    3  A    between atoms: O_3  and  C_4
REMARK    4  A    between atoms: C_6  and  C_20
REMARK    5  A    between atoms: C_9  and  O_10
REMARK    6  A    between atoms: O_10  and  C_11
REMARK    7  A    between atoms: C_11  and  C_13
REMARK    8  A    between atoms: N_29  and  C_32
REMARK    9  A    between atoms: C_33  and  O_35
REMARK                            x       y       z     vdW  Elec       q    Type
REMARK                         _______ _______ _______ _____ _____    ______ ____
ROOT
ATOM      1  C   UNL     1      -1.235   1.745  -0.012  0.00  0.00    +0.163 A 
ATOM      2  C   UNL     1      -0.030   1.061  -0.023  0.00  0.00    +0.056 A 
ATOM      3  C   UNL     1       1.162   1.761  -0.004  0.00  0.00    -0.002 A 
ATOM      4  C   UNL     1       1.156   3.143   0.032  0.00  0.00    +0.011 A 
ATOM      5  C   UNL     1      -0.042   3.832   0.048  0.00  0.00    +0.050 A 
ATOM      6  C   UNL     1      -1.241   3.137   0.029  0.00  0.00    +0.173 A 
ENDROOT
BRANCH   3   7
ATOM      7  C   UNL     1       2.471   1.015  -0.022  0.00  0.00    +0.224 C 
ATOM      8  N   UNL     1       3.486   1.808   0.697  0.00  0.00    -0.313 N 
ATOM      9  C   UNL     1       3.522   1.659   2.062  0.00  0.00    +0.080 A 
ATOM     10  C   UNL     1       3.051   0.506   2.704  0.00  0.00    +0.067 A 
ATOM     11  C   UNL     1       3.167   0.496   4.150  0.00  0.00    -0.027 A 
ATOM     12  C   UNL     1       3.710   1.607   4.703  0.00  0.00    -0.021 A 
ATOM     13  S   UNL     1       4.074   2.667   3.330  0.00  0.00    -0.080 S 
ATOM     14  C   UNL     1       3.938   1.855   6.160  0.00  0.00    -0.036 C 
ATOM     15  N   UNL     1       3.160   0.862   6.925  0.00  0.00    +0.381 N 
ATOM     16  C   UNL     1       3.395  -0.493   6.407  0.00  0.00    -0.074 C 
ATOM     17  C   UNL     1       2.723  -0.658   5.041  0.00  0.00    +0.018 C 
ATOM     18  C   UNL     1       3.472   0.940   8.358  0.00  0.00    -0.096 C 
ATOM     19  C   UNL     1       2.486  -0.568   1.846  0.00  0.00    +0.220 C 
ATOM     20  N   UNL     1       2.281  -0.295   0.587  0.00  0.00    -0.223 NA
ATOM     21  H   UNL     1       4.161   2.473   0.138  0.00  0.00    +0.149 HD
ATOM     22  H   UNL     1       2.091   1.092   6.803  0.00  0.00    -0.082 HD
BRANCH  19  23
ATOM     23  O   UNL     1       2.193  -1.787   2.355  0.00  0.00    -0.492 OA
ATOM     24  H   UNL     1       1.775  -2.568   1.703  0.00  0.00    +0.294 HD
ENDBRANCH  19  23
ENDBRANCH   3   7
BRANCH   1  25
ATOM     25  O   UNL     1      -2.409   1.059  -0.037  0.00  0.00    -0.489 OA
BRANCH  25  27
ATOM     26  C   UNL     1      -3.736  -0.960  -0.097  0.00  0.00    +0.048 C 
ATOM     27  C   UNL     1      -2.325  -0.367  -0.073  0.00  0.00    +0.226 C 
ENDBRANCH  25  27
ENDBRANCH   1  25
BRANCH   6  28
ATOM     28  O   UNL     1      -2.421   3.812   0.045  0.00  0.00    -0.419 OA
BRANCH  28  29
ATOM     29  C   UNL     1      -3.045   3.926   1.234  0.00  0.00    +0.346 C 
ATOM     30  O   UNL     1      -2.505   3.522   2.244  0.00  0.00    -0.244 OA
BRANCH  29  31
ATOM     31  C   UNL     1      -4.385   4.540   1.308  0.00  0.00    +0.078 A 
ATOM     32  C   UNL     1      -5.007   5.011   0.149  0.00  0.00    +0.016 A 
ATOM     33  C   UNL     1      -6.261   5.579   0.225  0.00  0.00    +0.001 A 
ATOM     34  C   UNL     1      -6.900   5.694   1.448  0.00  0.00    +0.001 A 
ATOM     35  C   UNL     1      -6.290   5.236   2.601  0.00  0.00    +0.021 A 
ATOM     36  C   UNL     1      -5.036   4.660   2.539  0.00  0.00    +0.055 A 
ATOM     37 CL   UNL     1      -4.270   4.085   3.987  0.00  0.00    -0.083 Cl
ENDBRANCH  29  31
ENDBRANCH  28  29
ENDBRANCH   6  28
TORSDOF 7
