REMARK  Name = ZINC33938521
REMARK  8 active torsions:
REMARK  status: ('A' for Active; 'I' for Inactive)
REMARK    1  A    between atoms: C_1  and  C_2
REMARK    2  A    between atoms: C_7  and  C_31
REMARK    3  A    between atoms: N_12  and  C_13
REMARK    4  A    between atoms: C_13  and  C_14
REMARK    5  A    between atoms: C_14  and  N_15
REMARK    6  A    between atoms: C_16  and  C_18
REMARK    7  A    between atoms: C_19  and  C_30
REMARK    8  A    between atoms: N_21  and  C_24
REMARK                            x       y       z     vdW  Elec       q    Type
REMARK                         _______ _______ _______ _____ _____    ______ ____
ROOT
ATOM      1  C   UNL     1       0.099  -4.983   5.983  0.00  0.00    +0.123 C 
ENDROOT
BRANCH   1   2
ATOM      2  N   UNL     1       0.094  -4.229   7.239  0.00  0.00    -0.310 N 
ATOM      3  C   UNL     1       0.109  -4.882   8.418  0.00  0.00    +0.249 C 
ATOM      4  O   UNL     1       0.125  -6.098   8.439  0.00  0.00    -0.270 OA
ATOM      5  H   UNL     1       0.081  -3.259   7.222  0.00  0.00    +0.149 HD
BRANCH   3   6
ATOM      6  C   UNL     1       0.104  -4.123   9.680  0.00  0.00    +0.096 A 
ATOM      7  C   UNL     1      -1.036  -3.711  10.408  0.00  0.00    +0.074 A 
ATOM      8  N   UNL     1      -0.629  -3.066  11.466  0.00  0.00    -0.170 NA
ATOM      9  N   UNL     1       0.770  -3.033  11.470  0.00  0.00    -0.220 N 
ATOM     10  C   UNL     1       1.214  -3.685  10.379  0.00  0.00    +0.145 A 
ATOM     11 CL   UNL     1       2.874  -3.929   9.931  0.00  0.00    -0.061 Cl
ATOM     12  C   UNL     1      -2.470  -3.971  10.027  0.00  0.00    +0.068 C 
BRANCH   9  13
ATOM     13  C   UNL     1       1.572  -2.427  12.446  0.00  0.00    +0.067 A 
ATOM     14  C   UNL     1       2.793  -2.991  12.790  0.00  0.00    +0.028 A 
ATOM     15  C   UNL     1       3.582  -2.393  13.753  0.00  0.00    +0.002 A 
ATOM     16  C   UNL     1       3.157  -1.232  14.373  0.00  0.00    +0.000 A 
ATOM     17  C   UNL     1       1.942  -0.668  14.033  0.00  0.00    +0.002 A 
ATOM     18  C   UNL     1       1.151  -1.259  13.067  0.00  0.00    +0.028 A 
ENDBRANCH   9  13
ENDBRANCH   3   6
ENDBRANCH   1   2
BRANCH   1  19
ATOM     19  C   UNL     1       0.080  -4.010   4.803  0.00  0.00    +0.121 C 
BRANCH  19  31
ATOM     20  C   UNL     1      -0.018   1.503   0.010  0.00  0.00    +0.044 C 
ATOM     21  C   UNL     1       0.002  -0.004   0.002  0.00  0.00    -0.048 A 
ATOM     22  C   UNL     1       0.005  -0.683  -1.214  0.00  0.00    +0.004 A 
ATOM     23  C   UNL     1       0.024  -2.044  -1.254  0.00  0.00    +0.010 A 
ATOM     24  C   UNL     1       0.040  -2.774  -0.055  0.00  0.00    -0.001 A 
ATOM     25  C   UNL     1       0.059  -4.184  -0.057  0.00  0.00    +0.016 A 
ATOM     26  C   UNL     1       0.074  -4.830   1.142  0.00  0.00    -0.012 A 
ATOM     27  C   UNL     1       0.070  -4.092   2.334  0.00  0.00    +0.100 A 
ATOM     28  N   UNL     1       0.051  -2.775   2.329  0.00  0.00    -0.343 N 
ATOM     29  C   UNL     1       0.036  -2.086   1.182  0.00  0.00    +0.048 A 
ATOM     30  C   UNL     1       0.022  -0.680   1.183  0.00  0.00    +0.029 A 
ATOM     31  N   UNL     1       0.084  -4.764   3.547  0.00  0.00    -0.329 N 
ATOM     32  C   UNL     1       0.095  -6.337   1.187  0.00  0.00    +0.047 C 
ATOM     33  H   UNL     1       0.098  -5.734   3.564  0.00  0.00    +0.147 HD
ATOM     34  H   UNL     1       0.048  -2.296   3.172  0.00  0.00    +0.167 HD
ENDBRANCH  19  31
ENDBRANCH   1  19
TORSDOF 5
