REMARK  Name = ZINC05887179
REMARK  11 active torsions:
REMARK  status: ('A' for Active; 'I' for Inactive)
REMARK    1  A    between atoms: C_1  and  N_2
REMARK    2  A    between atoms: C_5  and  N_12
REMARK    3  A    between atoms: C_6  and  N_11
REMARK    4  A    between atoms: C_8  and  O_9
REMARK    5  A    between atoms: O_9  and  C_10
REMARK    6  A    between atoms: N_12  and  C_13
REMARK    7  A    between atoms: C_15  and  O_28
REMARK    8  A    between atoms: C_17  and  O_27
REMARK    9  A    between atoms: C_19  and  O_26
REMARK   10  A    between atoms: C_21  and  C_24
REMARK   11  A    between atoms: C_24  and  O_25
REMARK                            x       y       z     vdW  Elec       q    Type
REMARK                         _______ _______ _______ _____ _____    ______ ____
ROOT
ATOM      1  N   UNL     1      -0.071  -0.121  -2.361  0.00  0.00    -0.310 N 
ATOM      2  H   UNL     1      -0.549   0.756  -2.219  0.00  0.00    +0.149 HD
ENDROOT
BRANCH   1   7
ATOM      3  C   UNL     1      -3.940  -3.022  -1.691  0.00  0.00    +0.157 C 
ATOM      4  N   UNL     1      -2.835  -2.522  -2.513  0.00  0.00    -0.264 N 
ATOM      5  C   UNL     1      -2.006  -1.577  -2.022  0.00  0.00    +0.279 A 
ATOM      6  O   UNL     1      -2.167  -1.131  -0.896  0.00  0.00    -0.265 OA
ATOM      7  C   UNL     1      -0.959  -1.111  -2.831  0.00  0.00    +0.135 A 
ATOM      8  C   UNL     1      -0.810  -1.651  -4.102  0.00  0.00    +0.148 A 
ATOM      9  N   UNL     1      -1.665  -2.590  -4.528  0.00  0.00    -0.180 NA
ATOM     10  C   UNL     1      -2.645  -3.015  -3.765  0.00  0.00    +0.302 A 
BRANCH   8  11
ATOM     11  N   UNL     1       0.215  -1.219  -4.926  0.00  0.00    -0.341 N 
ATOM     12  H   UNL     1       0.875  -0.592  -4.590  0.00  0.00    +0.144 HD
ATOM     13  H   UNL     1       0.274  -1.543  -5.838  0.00  0.00    +0.144 HD
ENDBRANCH   8  11
BRANCH  10  14
ATOM     14  O   UNL     1      -3.483  -3.964  -4.234  0.00  0.00    -0.467 OA
ATOM     15  C   UNL     1      -3.238  -4.449  -5.556  0.00  0.00    +0.280 C 
ENDBRANCH  10  14
ENDBRANCH   1   7
BRANCH   1  16
ATOM     16  C   UNL     1       0.602  -0.559  -1.130  0.00  0.00    +0.235 C 
ATOM     17  C   UNL     1       2.072  -0.131  -1.173  0.00  0.00    +0.192 C 
ATOM     18  C   UNL     1       2.149   1.398  -1.226  0.00  0.00    +0.178 C 
ATOM     19  C   UNL     1       1.409   1.978  -0.017  0.00  0.00    +0.177 C 
ATOM     20  C   UNL     1      -0.035   1.469  -0.019  0.00  0.00    +0.177 C 
ATOM     21  O   UNL     1      -0.034   0.040   0.000  0.00  0.00    -0.348 OA
BRANCH  19  22
ATOM     22  O   UNL     1       2.060   1.563   1.186  0.00  0.00    -0.386 OA
ATOM     23  H   UNL     1       2.980   1.851   1.255  0.00  0.00    +0.210 HD
ENDBRANCH  19  22
BRANCH  18  24
ATOM     24  O   UNL     1       3.517   1.809  -1.191  0.00  0.00    -0.386 OA
ATOM     25  H   UNL     1       4.048   1.472  -1.926  0.00  0.00    +0.210 HD
ENDBRANCH  18  24
BRANCH  17  26
ATOM     26  O   UNL     1       2.696  -0.681  -2.334  0.00  0.00    -0.385 OA
ATOM     27  H   UNL     1       2.680  -1.647  -2.369  0.00  0.00    +0.210 HD
ENDBRANCH  17  26
BRANCH  20  28
ATOM     28  C   UNL     1      -0.764   1.996   1.218  0.00  0.00    +0.190 C 
BRANCH  28  29
ATOM     29  O   UNL     1      -2.140   1.617   1.158  0.00  0.00    -0.392 OA
ATOM     30  H   UNL     1      -2.665   1.918   1.912  0.00  0.00    +0.210 HD
ENDBRANCH  28  29
ENDBRANCH  20  28
ENDBRANCH   1  16
TORSDOF 9
