REMARK  Name = ZINC66954957
REMARK  12 active torsions:
REMARK  status: ('A' for Active; 'I' for Inactive)
REMARK    1  A    between atoms: C_1  and  C_2
REMARK    2  A    between atoms: C_2  and  C_4
REMARK    3  A    between atoms: C_2  and  S_7
REMARK    4  A    between atoms: C_4  and  C_5
REMARK    5  A    between atoms: S_7  and  C_8
REMARK    6  A    between atoms: C_13  and  N_14
REMARK    7  A    between atoms: N_17  and  C_18
REMARK    8  A    between atoms: C_18  and  C_19
REMARK    9  A    between atoms: C_19  and  C_21
REMARK   10  A    between atoms: C_19  and  N_26
REMARK   11  A    between atoms: N_26  and  C_27
REMARK   12  A    between atoms: N_26  and  C_28
REMARK                            x       y       z     vdW  Elec       q    Type
REMARK                         _______ _______ _______ _____ _____    ______ ____
ROOT
ATOM      1  N   UNL     1       1.878  -0.921   4.095  0.00  0.00    -0.268 N 
ATOM      2  C   UNL     1       2.426  -1.208   5.292  0.00  0.00    +0.304 C 
ATOM      3  O   UNL     1       1.794  -1.012   6.313  0.00  0.00    -0.253 OA
ATOM      4  N   UNL     1       3.675  -1.711   5.359  0.00  0.00    -0.300 N 
ATOM      5  H   UNL     1       2.350  -1.149   3.279  0.00  0.00    +0.156 HD
ATOM      6  H   UNL     1       4.178  -1.868   4.545  0.00  0.00    +0.150 HD
ENDROOT
BRANCH   1  12
ATOM      7  C   UNL     1      -0.166  -0.430   2.890  0.00  0.00    +0.029 A 
ATOM      8  C   UNL     1      -1.407   0.190   2.834  0.00  0.00    +0.016 A 
ATOM      9  C   UNL     1      -1.850   0.946   3.902  0.00  0.00    +0.001 A 
ATOM     10  C   UNL     1      -1.060   1.088   5.029  0.00  0.00    +0.002 A 
ATOM     11  C   UNL     1       0.177   0.474   5.093  0.00  0.00    +0.024 A 
ATOM     12  C   UNL     1       0.627  -0.292   4.029  0.00  0.00    +0.048 A 
BRANCH   7  13
ATOM     13  S   UNL     1       0.401  -1.396   1.530  0.00  0.00    -0.119 S 
BRANCH  13  15
ATOM     14  C   UNL     1      -0.772   0.294  -0.273  0.00  0.00    +0.020 C 
ATOM     15  C   UNL     1      -0.862  -1.140   0.253  0.00  0.00    +0.062 C 
BRANCH  15  16
ATOM     16  C   UNL     1      -0.629  -2.121  -0.898  0.00  0.00    +0.132 C 
BRANCH  16  17
ATOM     17  C   UNL     1      -0.833  -3.497  -0.419  0.00  0.00    +0.064 C 
ATOM     18  N   UNL     1      -0.991  -4.560  -0.049  0.00  0.00    -0.197 NA
ENDBRANCH  16  17
ENDBRANCH  15  16
ENDBRANCH  13  15
ENDBRANCH   7  13
ENDBRANCH   1  12
BRANCH   4  19
ATOM     19  C   UNL     1       4.270  -2.023   6.661  0.00  0.00    +0.095 C 
BRANCH  19  20
ATOM     20  C   UNL     1       5.724  -2.458   6.465  0.00  0.00    -0.020 C 
BRANCH  20  21
ATOM     21  C   UNL     1       6.528  -1.299   5.936  0.00  0.00    -0.052 A 
ATOM     22  C   UNL     1       6.821  -1.206   4.588  0.00  0.00    +0.009 A 
ATOM     23  C   UNL     1       7.547  -0.151   4.144  0.00  0.00    +0.045 A 
ATOM     24  S   UNL     1       7.840   0.757   5.653  0.00  0.00    -0.105 S 
ATOM     25  C   UNL     1       6.971  -0.329   6.773  0.00  0.00    +0.047 A 
ENDBRANCH  20  21
BRANCH  20  26
ATOM     26  N   UNL     1       6.282  -2.894   7.753  0.00  0.00    +0.382 N 
ATOM     27  C   UNL     1       5.572  -4.094   8.213  0.00  0.00    -0.096 C 
ATOM     28  C   UNL     1       7.709  -3.202   7.589  0.00  0.00    -0.096 C 
ATOM     29  H   UNL     1       6.173  -2.157   8.433  0.00  0.00    -0.082 HD
ENDBRANCH  20  26
ENDBRANCH  19  20
ENDBRANCH   4  19
TORSDOF 9
