REMARK  Name = ZINC62788902
REMARK  7 active torsions:
REMARK  status: ('A' for Active; 'I' for Inactive)
REMARK    1  A    between atoms: C_1  and  C_2
REMARK    2  A    between atoms: C_2  and  C_3
REMARK    3  A    between atoms: C_2  and  N_4
REMARK    4  A    between atoms: N_4  and  C_5
REMARK    5  A    between atoms: N_4  and  C_11
REMARK    6  A    between atoms: C_5  and  C_6
REMARK    7  A    between atoms: C_16  and  C_17
REMARK                            x       y       z     vdW  Elec       q    Type
REMARK                         _______ _______ _______ _____ _____    ______ ____
ROOT
ATOM      1  C   UNL     1      -2.139  -0.442   1.074  0.00  0.00    +0.042 A 
ATOM      2  C   UNL     1      -2.331  -1.157   2.249  0.00  0.00    +0.043 A 
ATOM      3  C   UNL     1      -3.286  -0.749   3.159  0.00  0.00    +0.043 A 
ATOM      4  C   UNL     1      -4.060   0.375   2.908  0.00  0.00    +0.021 A 
ATOM      5  C   UNL     1      -3.883   1.096   1.748  0.00  0.00    +0.014 A 
ATOM      6  C   UNL     1      -2.917   0.698   0.820  0.00  0.00    +0.033 A 
ATOM      7 CL   UNL     1      -3.520  -1.647   4.626  0.00  0.00    -0.083 Cl
ENDROOT
BRANCH   6   8
ATOM      8  C   UNL     1      -2.719   1.470  -0.422  0.00  0.00    +0.096 C 
ATOM      9  N   UNL     1      -2.844   0.871  -1.606  0.00  0.00    -0.387 N 
ATOM     10  N   UNL     1      -2.416   2.767  -0.359  0.00  0.00    -0.345 N 
ATOM     11  H   UNL     1      -3.155  -0.047  -1.655  0.00  0.00    +0.157 HD
ATOM     12  H   UNL     1      -2.325   3.203   0.502  0.00  0.00    +0.144 HD
ATOM     13  H   UNL     1      -2.286   3.274  -1.176  0.00  0.00    +0.144 HD
ATOM     14  H   UNL     1      -2.625   1.352  -2.419  0.00  0.00    +0.157 HD
ENDBRANCH   6   8
BRANCH   1  15
ATOM     15  N   UNL     1      -1.179  -0.850   0.157  0.00  0.00    -0.322 N 
BRANCH  15  17
ATOM     16  C   UNL     1       0.175   1.185   0.241  0.00  0.00    +0.027 C 
ATOM     17  C   UNL     1       0.193  -0.344   0.259  0.00  0.00    +0.068 C 
ATOM     18  C   UNL     1       0.820  -0.832   1.566  0.00  0.00    +0.027 C 
ENDBRANCH  15  17
BRANCH  15  19
ATOM     19  C   UNL     1      -1.537  -1.785  -0.912  0.00  0.00    +0.147 C 
BRANCH  19  20
ATOM     20  C   UNL     1      -1.393  -3.199  -0.412  0.00  0.00    +0.007 A 
ATOM     21  C   UNL     1      -2.315  -3.989   0.192  0.00  0.00    +0.013 A 
ATOM     22  C   UNL     1      -1.956  -5.269   0.570  0.00  0.00    +0.008 A 
ATOM     23  C   UNL     1      -0.693  -5.697   0.327  0.00  0.00    +0.045 A 
ATOM     24  S   UNL     1       0.033  -4.271  -0.466  0.00  0.00    -0.100 S 
ENDBRANCH  19  20
ENDBRANCH  15  19
ENDBRANCH   1  15
TORSDOF 5
