REMARK  Name = ZINC63363080
REMARK  10 active torsions:
REMARK  status: ('A' for Active; 'I' for Inactive)
REMARK    1  A    between atoms: C_1  and  C_2
REMARK    2  A    between atoms: C_5  and  C_8
REMARK    3  A    between atoms: N_15  and  C_30
REMARK    4  A    between atoms: C_18  and  C_29
REMARK    5  A    between atoms: C_30  and  C_31
REMARK    6  A    between atoms: C_31  and  C_32
REMARK    7  A    between atoms: C_35  and  O_40
REMARK    8  A    between atoms: C_36  and  O_38
REMARK    9  A    between atoms: O_38  and  C_39
REMARK   10  A    between atoms: O_40  and  C_41
REMARK                            x       y       z     vdW  Elec       q    Type
REMARK                         _______ _______ _______ _____ _____    ______ ____
ROOT
ATOM      1  C   UNL     1       0.059  -4.275  -0.021  0.00  0.00    +0.065 C 
ATOM      2  C   UNL     1      -1.165  -4.822   0.734  0.00  0.00    +0.121 C 
ATOM      3  N   UNL     1      -0.980  -4.604   2.182  0.00  0.00    -0.283 N 
ATOM      4  C   UNL     1      -1.893  -3.871   2.829  0.00  0.00    +0.234 C 
ATOM      5  O   UNL     1      -2.805  -3.407   2.178  0.00  0.00    -0.274 OA
ATOM      6  C   UNL     1      -1.872  -3.581   4.293  0.00  0.00    +0.203 C 
ATOM      7  N   UNL     1      -0.738  -4.200   4.959  0.00  0.00    -0.291 N 
ATOM      8  C   UNL     1       0.184  -4.922   4.324  0.00  0.00    +0.242 C 
ATOM      9  O   UNL     1       1.087  -5.393   4.983  0.00  0.00    -0.273 OA
ATOM     10  C   UNL     1       0.180  -5.190   2.856  0.00  0.00    +0.135 C 
ATOM     11  C   UNL     1       1.447  -4.616   2.215  0.00  0.00    +0.139 C 
ATOM     12  C   UNL     1       1.281  -4.780   0.706  0.00  0.00    -0.027 C 
ATOM     13  C   UNL     1       2.359  -5.423   0.277  0.00  0.00    -0.000 A 
ATOM     14  C   UNL     1       2.816  -5.776  -1.077  0.00  0.00    +0.010 A 
ATOM     15  C   UNL     1       3.980  -6.473  -1.154  0.00  0.00    +0.001 A 
ATOM     16  C   UNL     1       4.727  -6.850  -0.033  0.00  0.00    +0.002 A 
ATOM     17  C   UNL     1       4.387  -6.559   1.248  0.00  0.00    +0.026 A 
ATOM     18  C   UNL     1       3.187  -5.820   1.457  0.00  0.00    +0.043 A 
ATOM     19  N   UNL     1       2.644  -5.373   2.581  0.00  0.00    -0.375 N 
ATOM     20  C   UNL     1       0.172  -6.703   2.629  0.00  0.00    +0.044 C 
ATOM     21  H   UNL     1       2.969  -5.520   3.483  0.00  0.00    +0.160 HD
ENDROOT
BRANCH   1  26
ATOM     22  C   UNL     1      -0.018   1.503   0.010  0.00  0.00    +0.044 C 
ATOM     23  C   UNL     1       0.002  -0.004   0.002  0.00  0.00    -0.050 A 
ATOM     24  C   UNL     1       0.006  -0.689  -1.199  0.00  0.00    +0.003 A 
ATOM     25  C   UNL     1       0.025  -2.071  -1.206  0.00  0.00    +0.004 A 
ATOM     26  C   UNL     1       0.040  -2.768  -0.013  0.00  0.00    -0.039 A 
ATOM     27  C   UNL     1       0.037  -2.084   1.188  0.00  0.00    +0.004 A 
ATOM     28  C   UNL     1       0.023  -0.702   1.195  0.00  0.00    +0.003 A 
ENDBRANCH   1  26
BRANCH   7  29
ATOM     29  C   UNL     1      -0.601  -4.020   6.406  0.00  0.00    +0.113 C 
BRANCH  29  30
ATOM     30  C   UNL     1      -1.334  -5.149   7.133  0.00  0.00    +0.054 C 
BRANCH  30  31
ATOM     31  C   UNL     1      -1.194  -4.964   8.621  0.00  0.00    -0.042 A 
ATOM     32  C   UNL     1      -0.125  -5.532   9.289  0.00  0.00    +0.007 A 
ATOM     33  C   UNL     1       0.008  -5.365  10.655  0.00  0.00    +0.049 A 
ATOM     34  C   UNL     1      -0.930  -4.626  11.358  0.00  0.00    +0.161 A 
ATOM     35  C   UNL     1      -2.005  -4.053  10.685  0.00  0.00    +0.162 A 
ATOM     36  C   UNL     1      -2.130  -4.221   9.315  0.00  0.00    +0.053 A 
BRANCH  35  37
ATOM     37  O   UNL     1      -2.929  -3.327  11.370  0.00  0.00    -0.491 OA
ATOM     38  C   UNL     1      -4.005  -2.768  10.615  0.00  0.00    +0.277 C 
ENDBRANCH  35  37
BRANCH  34  39
ATOM     39  O   UNL     1      -0.800  -4.460  12.701  0.00  0.00    -0.491 OA
ATOM     40  C   UNL     1       0.328  -5.077  13.325  0.00  0.00    +0.277 C 
ENDBRANCH  34  39
ENDBRANCH  30  31
ENDBRANCH  29  30
ENDBRANCH   7  29
TORSDOF 6
