REMARK  Name = ZINC19866151
REMARK  3 active torsions:
REMARK  status: ('A' for Active; 'I' for Inactive)
REMARK    1  A    between atoms: C_3  and  O_10
REMARK    2  A    between atoms: C_6  and  C_7
REMARK    3  A    between atoms: O_10  and  C_11
REMARK                            x       y       z     vdW  Elec       q    Type
REMARK                         _______ _______ _______ _____ _____    ______ ____
ROOT
ATOM      1  C   UNL     1      -5.947   2.607   0.365  0.00  0.00    +0.015 A 
ATOM      2  C   UNL     1      -4.771   1.898   0.249  0.00  0.00    +0.047 A 
ATOM      3  C   UNL     1      -3.560   2.572   0.138  0.00  0.00    +0.129 A 
ATOM      4  C   UNL     1      -3.531   3.961   0.148  0.00  0.00    +0.047 A 
ATOM      5  C   UNL     1      -4.704   4.676   0.259  0.00  0.00    +0.015 A 
ATOM      6  C   UNL     1      -5.922   4.002   0.370  0.00  0.00    +0.012 A 
ENDROOT
BRANCH   6   7
ATOM      7  C   UNL     1      -7.183   4.766   0.494  0.00  0.00    +0.094 C 
ATOM      8  N   UNL     1      -8.319   4.136   0.597  0.00  0.00    -0.387 N 
ATOM      9  N   UNL     1      -7.156   6.144   0.499  0.00  0.00    -0.345 N 
ATOM     10  H   UNL     1      -9.256   4.703   0.689  0.00  0.00    +0.157 HD
ATOM     11  H   UNL     1      -8.094   6.712   0.591  0.00  0.00    +0.144 HD
ATOM     12  H   UNL     1      -6.197   6.676   0.412  0.00  0.00    +0.144 HD
ATOM     13  H   UNL     1      -8.340   3.036   0.593  0.00  0.00    +0.157 HD
ENDBRANCH   6   7
BRANCH   3  14
ATOM     14  O   UNL     1      -2.403   1.871   0.024  0.00  0.00    -0.455 OA
BRANCH  14  15
ATOM     15  C   UNL     1      -1.234   2.564   0.037  0.00  0.00    +0.142 A 
ATOM     16  C   UNL     1      -0.597   2.874  -1.155  0.00  0.00    +0.049 A 
ATOM     17  C   UNL     1       0.595   3.572  -1.139  0.00  0.00    +0.023 A 
ATOM     18  C   UNL     1       1.150   3.969   0.065  0.00  0.00    +0.042 A 
ATOM     19  C   UNL     1       0.514   3.666   1.255  0.00  0.00    +0.039 A 
ATOM     20  C   UNL     1      -0.678   2.967   1.244  0.00  0.00    +0.061 A 
ATOM     21 BR   UNL     1      -1.548   2.552   2.871  0.00  0.00    -0.046 Br
ATOM     22 CL   UNL     1       2.648   4.847   0.082  0.00  0.00    -0.084 Cl
ENDBRANCH  14  15
ENDBRANCH   3  14
TORSDOF 3
