REMARK  Name = ZINC22932171
REMARK  8 active torsions:
REMARK  status: ('A' for Active; 'I' for Inactive)
REMARK    1  A    between atoms: C_1  and  C_2
REMARK    2  A    between atoms: C_6  and  C_31
REMARK    3  A    between atoms: C_7  and  N_8
REMARK    4  A    between atoms: C_9  and  C_11
REMARK    5  A    between atoms: C_11  and  N_12
REMARK    6  A    between atoms: N_15  and  C_18
REMARK    7  A    between atoms: C_18  and  C_19
REMARK    8  A    between atoms: C_22  and  C_24
REMARK                            x       y       z     vdW  Elec       q    Type
REMARK                         _______ _______ _______ _____ _____    ______ ____
ROOT
ATOM      1  N   UNL     1      -0.618  -0.974   5.969  0.00  0.00    +0.387 N 
ATOM      2  C   UNL     1      -1.960  -1.555   5.835  0.00  0.00    -0.063 C 
ATOM      3  C   UNL     1      -2.188  -2.577   6.952  0.00  0.00    +0.066 C 
ATOM      4  N   UNL     1      -2.050  -1.912   8.255  0.00  0.00    -0.300 NA
ATOM      5  C   UNL     1      -0.720  -1.303   8.393  0.00  0.00    +0.066 C 
ATOM      6  C   UNL     1      -0.505  -0.292   7.265  0.00  0.00    -0.063 C 
ATOM      7  H   UNL     1       0.073  -1.707   5.913  0.00  0.00    -0.081 HD
ENDROOT
BRANCH   1   8
ATOM      8  C   UNL     1      -0.394  -0.007   4.886  0.00  0.00    +0.019 C 
BRANCH   8  10
ATOM      9  N   UNL     1      -0.198  -0.037   2.420  0.00  0.00    -0.287 N 
ATOM     10  C   UNL     1      -0.388  -0.727   3.562  0.00  0.00    +0.201 C 
ATOM     11  O   UNL     1      -0.555  -1.928   3.524  0.00  0.00    -0.278 OA
ATOM     12  H   UNL     1      -0.117   0.929   2.445  0.00  0.00    +0.155 HD
BRANCH   9  19
ATOM     13  C   UNL     1       1.718  -2.126   2.165  0.00  0.00    +0.045 C 
ATOM     14  C   UNL     1       0.803  -1.740   1.031  0.00  0.00    -0.029 A 
ATOM     15  C   UNL     1       0.876  -2.411  -0.174  0.00  0.00    +0.005 A 
ATOM     16  C   UNL     1       0.037  -2.058  -1.215  0.00  0.00    +0.001 A 
ATOM     17  C   UNL     1      -0.877  -1.033  -1.054  0.00  0.00    +0.005 A 
ATOM     18  C   UNL     1      -0.955  -0.359   0.149  0.00  0.00    -0.029 A 
ATOM     19  C   UNL     1      -0.118  -0.715   1.198  0.00  0.00    +0.039 A 
ATOM     20  C   UNL     1      -1.951   0.759   0.324  0.00  0.00    +0.045 C 
ENDBRANCH   9  19
ENDBRANCH   8  10
ENDBRANCH   1   8
BRANCH   4  21
ATOM     21  C   UNL     1      -2.318  -2.848   9.355  0.00  0.00    +0.140 C 
BRANCH  21  22
ATOM     22  C   UNL     1      -2.411  -2.087  10.652  0.00  0.00    +0.063 A 
ATOM     23  C   UNL     1      -3.623  -1.698  11.128  0.00  0.00    +0.071 A 
ATOM     24  S   UNL     1      -3.135  -0.868  12.635  0.00  0.00    -0.075 S 
ATOM     25  C   UNL     1      -1.375  -1.130  12.468  0.00  0.00    +0.109 A 
ATOM     26  N   UNL     1      -1.322  -1.803  11.327  0.00  0.00    -0.243 NA
BRANCH  25  27
ATOM     27  C   UNL     1      -0.274  -0.713  13.363  0.00  0.00    +0.008 A 
ATOM     28  C   UNL     1       1.048  -1.018  13.037  0.00  0.00    +0.010 A 
ATOM     29  C   UNL     1       2.071  -0.626  13.876  0.00  0.00    +0.002 A 
ATOM     30  C   UNL     1       1.788   0.069  15.039  0.00  0.00    +0.015 A 
ATOM     31  C   UNL     1       0.479   0.375  15.368  0.00  0.00    +0.019 A 
ATOM     32  C   UNL     1      -0.553  -0.007  14.534  0.00  0.00    +0.025 A 
ATOM     33 BR   UNL     1       0.103   1.325  16.959  0.00  0.00    -0.050 Br
ENDBRANCH  25  27
ENDBRANCH  21  22
ENDBRANCH   4  21
TORSDOF 6
