REMARK  Name = ZINC36660264
REMARK  12 active torsions:
REMARK  status: ('A' for Active; 'I' for Inactive)
REMARK    1  A    between atoms: C_1  and  C_2
REMARK    2  A    between atoms: C_2  and  N_3
REMARK    3  A    between atoms: N_3  and  C_4
REMARK    4  A    between atoms: N_3  and  C_6
REMARK    5  A    between atoms: C_4  and  C_5
REMARK    6  A    between atoms: C_6  and  C_7
REMARK    7  A    between atoms: C_7  and  N_8
REMARK    8  A    between atoms: C_14  and  C_18
REMARK    9  A    between atoms: C_19  and  C_21
REMARK   10  A    between atoms: N_26  and  S_27
REMARK   11  A    between atoms: S_27  and  C_30
REMARK   12  A    between atoms: C_33  and  C_36
REMARK                            x       y       z     vdW  Elec       q    Type
REMARK                         _______ _______ _______ _____ _____    ______ ____
ROOT
ATOM      1  N   UNL     1       2.638  -3.296  -0.502  0.00  0.00    -0.251 N 
ATOM      2  C   UNL     1       1.913  -4.098  -1.369  0.00  0.00    +0.168 A 
ATOM      3  N   UNL     1       0.859  -3.790  -2.088  0.00  0.00    -0.224 NA
ATOM      4  C   UNL     1       0.247  -4.681  -2.898  0.00  0.00    +0.080 A 
ATOM      5  C   UNL     1      -0.887  -4.480  -3.719  0.00  0.00    +0.029 A 
ATOM      6  C   UNL     1      -1.385  -5.500  -4.487  0.00  0.00    +0.005 A 
ATOM      7  C   UNL     1      -0.801  -6.759  -4.488  0.00  0.00    -0.049 A 
ATOM      8  C   UNL     1       0.309  -6.991  -3.697  0.00  0.00    +0.020 A 
ATOM      9  C   UNL     1       0.815  -5.975  -2.925  0.00  0.00    +0.041 A 
ATOM     10  S   UNL     1       2.180  -5.812  -1.798  0.00  0.00    -0.052 S 
ATOM     11  C   UNL     1      -1.371  -7.862  -5.342  0.00  0.00    +0.044 C 
ATOM     12  C   UNL     1       3.706  -3.800   0.147  0.00  0.00    +0.240 C 
ATOM     13  O   UNL     1       4.088  -4.924  -0.096  0.00  0.00    -0.273 OA
ENDROOT
BRANCH  12  14
ATOM     14  C   UNL     1       4.424  -2.965   1.176  0.00  0.00    +0.166 C 
ATOM     15  C   UNL     1       5.571  -2.179   0.506  0.00  0.00    +0.031 C 
ATOM     16  C   UNL     1       6.699  -2.236   1.570  0.00  0.00    +0.019 C 
ATOM     17  C   UNL     1       6.491  -3.649   2.169  0.00  0.00    +0.110 C 
ATOM     18  N   UNL     1       5.025  -3.837   2.196  0.00  0.00    -0.165 NA
BRANCH  18  19
ATOM     19  S   UNL     1       4.197  -4.856   3.204  0.00  0.00    +0.062 S 
ATOM     20  O   UNL     1       4.953  -4.944   4.403  0.00  0.00    -0.153 OA
ATOM     21  O   UNL     1       2.841  -4.431   3.187  0.00  0.00    -0.153 OA
BRANCH  19  22
ATOM     22  C   UNL     1       4.231  -6.457   2.468  0.00  0.00    +0.106 A 
ATOM     23  C   UNL     1       3.172  -6.883   1.690  0.00  0.00    +0.029 A 
ATOM     24  C   UNL     1       3.199  -8.139   1.113  0.00  0.00    +0.005 A 
ATOM     25  C   UNL     1       4.286  -8.969   1.314  0.00  0.00    -0.050 A 
ATOM     26  C   UNL     1       5.346  -8.543   2.091  0.00  0.00    +0.005 A 
ATOM     27  C   UNL     1       5.321  -7.285   2.665  0.00  0.00    +0.029 A 
ATOM     28  C   UNL     1       4.315 -10.338   0.686  0.00  0.00    +0.044 C 
ENDBRANCH  19  22
ENDBRANCH  18  19
ENDBRANCH  12  14
BRANCH   1  29
ATOM     29  C   UNL     1       2.243  -1.901  -0.292  0.00  0.00    +0.097 C 
BRANCH  29  30
ATOM     30  C   UNL     1       1.270  -1.818   0.886  0.00  0.00    -0.059 C 
BRANCH  30  31
ATOM     31  N   UNL     1       0.874  -0.419   1.097  0.00  0.00    +0.380 N 
ATOM     32  H   UNL     1       1.699   0.149   1.216  0.00  0.00    -0.082 HD
BRANCH  31  34
ATOM     33  C   UNL     1      -0.170   1.551   0.085  0.00  0.00    -0.017 C 
ATOM     34  C   UNL     1       0.116   0.056  -0.068  0.00  0.00    -0.082 C 
ENDBRANCH  31  34
BRANCH  31  35
ATOM     35  C   UNL     1       0.036  -0.324   2.299  0.00  0.00    -0.082 C 
ATOM     36  C   UNL     1       0.871  -0.677   3.532  0.00  0.00    -0.017 C 
ENDBRANCH  31  35
ENDBRANCH  30  31
ENDBRANCH  29  30
ENDBRANCH   1  29
TORSDOF 8
