REMARK  Name = ZINC20104162
REMARK  11 active torsions:
REMARK  status: ('A' for Active; 'I' for Inactive)
REMARK    1  A    between atoms: C_1  and  C_2
REMARK    2  A    between atoms: C_2  and  N_3
REMARK    3  A    between atoms: N_6  and  C_9
REMARK    4  A    between atoms: C_9  and  C_10
REMARK    5  A    between atoms: C_10  and  C_11
REMARK    6  A    between atoms: C_11  and  N_12
REMARK    7  A    between atoms: C_13  and  C_15
REMARK    8  A    between atoms: N_25  and  C_36
REMARK    9  A    between atoms: C_26  and  C_28
REMARK   10  A    between atoms: C_31  and  O_34
REMARK   11  A    between atoms: O_34  and  C_35
REMARK                            x       y       z     vdW  Elec       q    Type
REMARK                         _______ _______ _______ _____ _____    ______ ____
ROOT
ATOM      1  C   UNL     1      -2.554   3.872   0.029  0.00  0.00    +0.130 C 
ATOM      2  C   UNL     1      -1.330   3.034  -0.230  0.00  0.00    -0.021 A 
ATOM      3  C   UNL     1      -1.439   1.676  -0.439  0.00  0.00    +0.005 A 
ATOM      4  C   UNL     1      -0.305   0.921  -0.688  0.00  0.00    +0.000 A 
ATOM      5  C   UNL     1       0.939   1.524  -0.743  0.00  0.00    +0.001 A 
ATOM      6  C   UNL     1       1.061   2.884  -0.536  0.00  0.00    +0.013 A 
ATOM      7  C   UNL     1      -0.074   3.644  -0.268  0.00  0.00    +0.041 A 
ATOM      8  C   UNL     1       0.020   5.101  -0.036  0.00  0.00    +0.248 C 
ATOM      9  O   UNL     1       1.043   5.701  -0.307  0.00  0.00    -0.270 OA
ATOM     10  N   UNL     1      -1.037   5.757   0.478  0.00  0.00    -0.286 N 
ATOM     11  C   UNL     1      -2.210   5.032   0.961  0.00  0.00    +0.123 C 
ENDROOT
BRANCH  11  12
ATOM     12  C   UNL     1      -1.927   4.493   2.339  0.00  0.00    -0.026 A 
ATOM     13  C   UNL     1      -0.685   3.960   2.630  0.00  0.00    +0.009 A 
ATOM     14  C   UNL     1      -0.421   3.470   3.895  0.00  0.00    +0.046 A 
ATOM     15  C   UNL     1      -1.407   3.503   4.870  0.00  0.00    +0.120 A 
ATOM     16  C   UNL     1      -2.655   4.033   4.574  0.00  0.00    +0.046 A 
ATOM     17  C   UNL     1      -2.912   4.527   3.309  0.00  0.00    +0.009 A 
BRANCH  15  18
ATOM     18  O   UNL     1      -1.152   3.018   6.113  0.00  0.00    -0.495 OA
ATOM     19  C   UNL     1       0.154   2.487   6.346  0.00  0.00    +0.277 C 
ENDBRANCH  15  18
ENDBRANCH  11  12
BRANCH  10  20
ATOM     20  C   UNL     1      -1.011   7.220   0.556  0.00  0.00    +0.077 C 
ATOM     21  C   UNL     1      -0.854   7.803  -0.850  0.00  0.00    +0.022 C 
ATOM     22  C   UNL     1      -0.826   9.330  -0.769  0.00  0.00    +0.002 C 
ATOM     23  C   UNL     1       0.351   9.774   0.102  0.00  0.00    +0.000 C 
ATOM     24  C   UNL     1       0.195   9.191   1.508  0.00  0.00    +0.002 C 
ATOM     25  C   UNL     1       0.167   7.663   1.426  0.00  0.00    +0.022 C 
ENDBRANCH  10  20
BRANCH   1  27
ATOM     26  N   UNL     1      -4.914   3.199   0.342  0.00  0.00    -0.315 N 
ATOM     27  C   UNL     1      -3.619   3.017   0.668  0.00  0.00    +0.223 C 
ATOM     28  O   UNL     1      -3.310   2.166   1.474  0.00  0.00    -0.275 OA
ATOM     29  H   UNL     1      -5.187   3.913  -0.449  0.00  0.00    +0.149 HD
BRANCH  26  30
ATOM     30  C   UNL     1      -5.958   2.446   1.042  0.00  0.00    +0.105 C 
BRANCH  30  31
ATOM     31  C   UNL     1      -7.329   2.837   0.485  0.00  0.00    +0.034 C 
BRANCH  31  32
ATOM     32  C   UNL     1      -8.419   2.050   1.216  0.00  0.00    +0.086 C 
BRANCH  32  36
ATOM     33  N   UNL     1     -12.438   3.302   0.858  0.00  0.00    +0.381 N 
ATOM     34  C   UNL     1     -12.122   1.901   0.546  0.00  0.00    -0.063 C 
ATOM     35  C   UNL     1     -10.783   1.528   1.186  0.00  0.00    +0.066 C 
ATOM     36  N   UNL     1      -9.735   2.425   0.682  0.00  0.00    -0.306 NA
ATOM     37  C   UNL     1     -10.050   3.826   0.994  0.00  0.00    +0.066 C 
ATOM     38  C   UNL     1     -11.389   4.200   0.354  0.00  0.00    -0.063 C 
ATOM     39  H   UNL     1     -12.476   3.406   1.952  0.00  0.00    -0.082 HD
BRANCH  33  41
ATOM     40  C   UNL     1     -13.941   5.191   0.445  0.00  0.00    -0.017 C 
ATOM     41  C   UNL     1     -13.754   3.677   0.324  0.00  0.00    -0.082 C 
ENDBRANCH  33  41
ENDBRANCH  32  36
ENDBRANCH  31  32
ENDBRANCH  30  31
ENDBRANCH  26  30
ENDBRANCH   1  27
TORSDOF 9
