REMARK  Name = ZINC35091966
REMARK  10 active torsions:
REMARK  status: ('A' for Active; 'I' for Inactive)
REMARK    1  A    between atoms: C_1  and  C_2
REMARK    2  A    between atoms: C_2  and  O_3
REMARK    3  A    between atoms: O_3  and  C_4
REMARK    4  A    between atoms: C_7  and  N_10
REMARK    5  A    between atoms: C_20  and  C_21
REMARK    6  A    between atoms: C_21  and  C_23
REMARK    7  A    between atoms: C_21  and  N_24
REMARK    8  A    between atoms: C_28  and  C_31
REMARK    9  A    between atoms: N_34  and  C_35
REMARK   10  A    between atoms: C_40  and  C_41
REMARK                            x       y       z     vdW  Elec       q    Type
REMARK                         _______ _______ _______ _____ _____    ______ ____
ROOT
ATOM      1  C   UNL     1       1.691  -5.332  -4.442  0.00  0.00    -0.003 C 
ATOM      2  C   UNL     1       0.340  -4.622  -4.551  0.00  0.00    -0.005 C 
ENDROOT
BRANCH   1   3
ATOM      3  N   UNL     1       1.908  -6.158  -5.637  0.00  0.00    +0.388 N 
ATOM      4  C   UNL     1       3.215  -6.819  -5.542  0.00  0.00    -0.058 C 
ATOM      5  C   UNL     1       3.394  -7.769  -6.731  0.00  0.00    +0.091 C 
ATOM      6  N   UNL     1       3.188  -7.007  -7.972  0.00  0.00    -0.286 N 
ATOM      7  C   UNL     1       1.975  -6.183  -8.086  0.00  0.00    +0.058 C 
ATOM      8  C   UNL     1       1.863  -5.307  -6.833  0.00  0.00    -0.055 C 
ATOM      9  C   UNL     1       2.070  -5.297  -9.330  0.00  0.00    +0.026 C 
ATOM     10  C   UNL     1       4.085  -7.063  -8.976  0.00  0.00    +0.307 C 
ATOM     11  O   UNL     1       3.948  -6.353  -9.954  0.00  0.00    -0.252 OA
ATOM     12  N   UNL     1       5.134  -7.905  -8.897  0.00  0.00    -0.269 N 
ATOM     13  H   UNL     1       5.192  -8.539  -8.165  0.00  0.00    +0.156 HD
ATOM     14  H   UNL     1       1.183  -6.858  -5.697  0.00  0.00    -0.081 HD
BRANCH  12  15
ATOM     15  C   UNL     1       6.139  -7.865  -9.870  0.00  0.00    +0.038 A 
ATOM     16  C   UNL     1       6.255  -6.761 -10.705  0.00  0.00    +0.023 A 
ATOM     17  C   UNL     1       7.248  -6.725 -11.665  0.00  0.00    +0.002 A 
ATOM     18  C   UNL     1       8.125  -7.786 -11.795  0.00  0.00    +0.000 A 
ATOM     19  C   UNL     1       8.012  -8.886 -10.965  0.00  0.00    +0.005 A 
ATOM     20  C   UNL     1       7.025  -8.926 -10.000  0.00  0.00    -0.029 A 
ATOM     21  C   UNL     1       6.906 -10.123  -9.092  0.00  0.00    +0.045 C 
ENDBRANCH  12  15
ENDBRANCH   1   3
BRANCH   1  32
ATOM     22  N   UNL     1       2.198  -5.695  -2.060  0.00  0.00    -0.266 N 
ATOM     23  C   UNL     1       2.223  -6.441  -0.930  0.00  0.00    +0.266 A 
ATOM     24  O   UNL     1       2.661  -5.992   0.114  0.00  0.00    -0.267 OA
ATOM     25  C   UNL     1       1.700  -7.812  -1.013  0.00  0.00    +0.065 A 
ATOM     26  C   UNL     1       1.680  -8.661   0.093  0.00  0.00    +0.015 A 
ATOM     27  C   UNL     1       1.178  -9.936  -0.040  0.00  0.00    +0.001 A 
ATOM     28  C   UNL     1       0.694 -10.381  -1.264  0.00  0.00    +0.002 A 
ATOM     29  C   UNL     1       0.704  -9.559  -2.368  0.00  0.00    +0.028 A 
ATOM     30  C   UNL     1       1.208  -8.261  -2.258  0.00  0.00    +0.078 A 
ATOM     31  N   UNL     1       1.237  -7.417  -3.320  0.00  0.00    -0.235 NA
ATOM     32  C   UNL     1       1.700  -6.208  -3.217  0.00  0.00    +0.104 A 
BRANCH  22  36
ATOM     33  C   UNL     1       3.648  -1.785  -1.987  0.00  0.00    +0.121 A 
ATOM     34  C   UNL     1       2.443  -2.090  -1.369  0.00  0.00    +0.047 A 
ATOM     35  C   UNL     1       1.963  -3.384  -1.393  0.00  0.00    +0.030 A 
ATOM     36  C   UNL     1       2.685  -4.381  -2.035  0.00  0.00    +0.051 A 
ATOM     37  C   UNL     1       3.891  -4.075  -2.654  0.00  0.00    +0.030 A 
ATOM     38  C   UNL     1       4.367  -2.780  -2.633  0.00  0.00    +0.047 A 
BRANCH  33  39
ATOM     39  O   UNL     1       4.120  -0.511  -1.963  0.00  0.00    -0.492 OA
BRANCH  39  41
ATOM     40  C   UNL     1       4.015   1.827  -1.359  0.00  0.00    +0.048 C 
ATOM     41  C   UNL     1       3.328   0.462  -1.279  0.00  0.00    +0.225 C 
ENDBRANCH  39  41
ENDBRANCH  33  39
ENDBRANCH  22  36
ENDBRANCH   1  32
TORSDOF 6
