REMARK  Name = ZINC49106360
REMARK  7 active torsions:
REMARK  status: ('A' for Active; 'I' for Inactive)
REMARK    1  A    between atoms: C_1  and  C_2
REMARK    2  A    between atoms: C_3  and  C_21
REMARK    3  A    between atoms: N_7  and  S_8
REMARK    4  A    between atoms: S_8  and  C_11
REMARK    5  A    between atoms: C_14  and  C_17
REMARK    6  A    between atoms: C_18  and  C_19
REMARK    7  A    between atoms: C_19  and  N_20
REMARK                            x       y       z     vdW  Elec       q    Type
REMARK                         _______ _______ _______ _____ _____    ______ ____
ROOT
ATOM      1  C   UNL     1       4.804  -3.724  -0.045  0.00  0.00    +0.113 A 
ATOM      2  C   UNL     1       5.223  -4.283   1.150  0.00  0.00    +0.030 A 
ATOM      3  C   UNL     1       6.057  -5.382   1.146  0.00  0.00    +0.019 A 
ATOM      4  C   UNL     1       6.479  -5.929  -0.067  0.00  0.00    +0.025 A 
ATOM      5  C   UNL     1       6.053  -5.360  -1.268  0.00  0.00    +0.019 A 
ATOM      6  C   UNL     1       5.215  -4.265  -1.250  0.00  0.00    +0.030 A 
ENDROOT
BRANCH   1   7
ATOM      7  S   UNL     1       3.739  -2.321  -0.031  0.00  0.00    +0.101 S 
ATOM      8  O   UNL     1       3.925  -1.656  -1.273  0.00  0.00    -0.146 OA
ATOM      9  O   UNL     1       3.938  -1.671   1.218  0.00  0.00    -0.146 OA
BRANCH   7  16
ATOM     10  C   UNL     1      -0.018   1.503   0.010  0.00  0.00    +0.064 C 
ATOM     11  C   UNL     1       0.002  -0.004   0.002  0.00  0.00    +0.025 A 
ATOM     12  C   UNL     1      -1.144  -0.684   0.004  0.00  0.00    +0.009 A 
ATOM     13  S   UNL     1      -0.577  -2.377  -0.009  0.00  0.00    -0.053 S 
ATOM     14  C   UNL     1       1.179  -2.046  -0.016  0.00  0.00    +0.192 A 
ATOM     15  N   UNL     1       1.194  -0.668  -0.013  0.00  0.00    -0.336 N 
ATOM     16  N   UNL     1       2.183  -2.888  -0.026  0.00  0.00    -0.103 NA
ATOM     17  C   UNL     1      -2.557  -0.159   0.016  0.00  0.00    +0.053 C 
ATOM     18  H   UNL     1       2.033  -0.181  -0.019  0.00  0.00    +0.168 HD
ENDBRANCH   7  16
ENDBRANCH   1   7
BRANCH   4  19
ATOM     19  C   UNL     1       7.345  -7.069  -0.078  0.00  0.00    -0.068 C 
ATOM     20  C   UNL     1       8.055  -8.004  -0.087  0.00  0.00    -0.117 C 
BRANCH  20  21
ATOM     21  C   UNL     1       8.945  -9.176  -0.099  0.00  0.00    +0.005 C 
BRANCH  21  22
ATOM     22  N   UNL     1       9.239  -9.554  -1.488  0.00  0.00    +0.385 N 
ATOM     23  H   UNL     1       8.379  -9.780  -1.964  0.00  0.00    -0.089 HD
ATOM     24  H   UNL     1       9.691  -8.784  -1.957  0.00  0.00    -0.089 HD
ATOM     25  H   UNL     1       9.850 -10.357  -1.496  0.00  0.00    -0.089 HD
ENDBRANCH  21  22
ENDBRANCH  20  21
ENDBRANCH   4  19
TORSDOF 5
