REMARK  Name = ZINC09123777
REMARK  6 active torsions:
REMARK  status: ('A' for Active; 'I' for Inactive)
REMARK    1  A    between atoms: C_1  and  C_2
REMARK    2  A    between atoms: C_5  and  C_8
REMARK    3  A    between atoms: C_8  and  C_10
REMARK    4  A    between atoms: C_12  and  C_30
REMARK    5  A    between atoms: C_22  and  C_29
REMARK    6  A    between atoms: C_33  and  N_36
REMARK                            x       y       z     vdW  Elec       q    Type
REMARK                         _______ _______ _______ _____ _____    ______ ____
ROOT
ATOM      1  C   UNL     1       0.603   3.758   0.904  0.00  0.00    +0.069 C 
ATOM      2  C   UNL     1       1.607   4.717   0.203  0.00  0.00    +0.016 C 
ATOM      3  C   UNL     1       1.417   4.378  -1.292  0.00  0.00    -0.047 C 
ATOM      4  C   UNL     1       0.552   5.478  -1.949  0.00  0.00    +0.052 C 
ATOM      5  S   UNL     1      -0.451   4.447  -3.110  0.00  0.00    -0.181 S 
ATOM      6  C   UNL     1      -0.457   2.916  -2.078  0.00  0.00    -0.005 C 
ATOM      7  C   UNL     1       0.704   2.513   0.001  0.00  0.00    +0.052 C 
ATOM      8  C   UNL     1      -0.505   1.635   0.147  0.00  0.00    -0.027 A 
ATOM      9  C   UNL     1      -1.852   1.833  -0.057  0.00  0.00    +0.008 A 
ATOM     10  C   UNL     1      -2.745   0.801   0.168  0.00  0.00    -0.050 A 
ATOM     11  C   UNL     1      -2.282  -0.430   0.596  0.00  0.00    +0.005 A 
ATOM     12  C   UNL     1      -0.933  -0.633   0.802  0.00  0.00    +0.024 A 
ATOM     13  C   UNL     1      -0.026   0.401   0.579  0.00  0.00    +0.036 A 
ATOM     14  N   UNL     1       1.363   0.442   0.713  0.00  0.00    -0.286 N 
ATOM     15  C   UNL     1       1.869   1.649   0.393  0.00  0.00    +0.212 C 
ATOM     16  O   UNL     1       3.038   1.974   0.415  0.00  0.00    -0.277 OA
ATOM     17  C   UNL     1      -4.220   1.017  -0.054  0.00  0.00    +0.044 C 
ATOM     18  H   UNL     1       1.901  -0.311   1.004  0.00  0.00    +0.155 HD
ATOM     19  N   UNL     1       0.871   2.997  -1.361  0.00  0.00    +0.401 N 
ATOM     20  H   UNL     1       1.545   2.402  -1.856  0.00  0.00    -0.078 HD
ENDROOT
BRANCH   2  21
ATOM     21  C   UNL     1       1.248   6.155   0.474  0.00  0.00    -0.045 A 
ATOM     22  C   UNL     1       2.149   7.160   0.175  0.00  0.00    +0.006 A 
ATOM     23  C   UNL     1       1.818   8.480   0.419  0.00  0.00    +0.033 A 
ATOM     24  C   UNL     1       0.591   8.794   0.972  0.00  0.00    +0.126 A 
ATOM     25  C   UNL     1      -0.308   7.789   1.275  0.00  0.00    +0.033 A 
ATOM     26  C   UNL     1       0.021   6.470   1.026  0.00  0.00    +0.006 A 
BRANCH  24  27
ATOM     27  N   UNL     1       0.239  10.207   1.239  0.00  0.00    +0.056 N 
ATOM     28  O   UNL     1      -0.843  10.484   1.726  0.00  0.00    -0.126 OA
ATOM     29  O   UNL     1       1.031  11.093   0.971  0.00  0.00    -0.126 OA
ENDBRANCH  24  27
ENDBRANCH   2  21
BRANCH   1  30
ATOM     30  C   UNL     1       1.044   3.445   2.310  0.00  0.00    +0.166 C 
ATOM     31  O   UNL     1       2.212   3.550   2.617  0.00  0.00    -0.292 OA
BRANCH  30  36
ATOM     32  C   UNL     1      -2.815   1.754   6.222  0.00  0.00    +0.044 C 
ATOM     33  C   UNL     1      -1.804   2.197   5.197  0.00  0.00    -0.050 A 
ATOM     34  C   UNL     1      -0.455   2.182   5.508  0.00  0.00    +0.004 A 
ATOM     35  C   UNL     1       0.477   2.586   4.575  0.00  0.00    +0.011 A 
ATOM     36  C   UNL     1       0.056   3.011   3.312  0.00  0.00    +0.018 A 
ATOM     37  C   UNL     1      -1.309   3.029   3.006  0.00  0.00    +0.011 A 
ATOM     38  C   UNL     1      -2.228   2.617   3.948  0.00  0.00    +0.004 A 
ENDBRANCH  30  36
ENDBRANCH   1  30
TORSDOF 4
