REMARK  Name = ZINC45766035
REMARK  11 active torsions:
REMARK  status: ('A' for Active; 'I' for Inactive)
REMARK    1  A    between atoms: C_1  and  C_2
REMARK    2  A    between atoms: N_16  and  C_17
REMARK    3  A    between atoms: C_17  and  C_18
REMARK    4  A    between atoms: N_20  and  C_21
REMARK    5  A    between atoms: C_21  and  C_22
REMARK    6  A    between atoms: C_24  and  O_32
REMARK    7  A    between atoms: C_25  and  O_30
REMARK    8  A    between atoms: C_27  and  O_28
REMARK    9  A    between atoms: O_28  and  C_29
REMARK   10  A    between atoms: O_30  and  C_31
REMARK   11  A    between atoms: O_32  and  C_33
REMARK                            x       y       z     vdW  Elec       q    Type
REMARK                         _______ _______ _______ _____ _____    ______ ____
ROOT
ATOM      1  C   UNL     1      -0.199   1.371   0.248  0.00  0.00    -0.008 C 
ATOM      2  C   UNL     1       0.023  -0.113  -0.052  0.00  0.00    -0.040 C 
ATOM      3  C   UNL     1      -1.308  -0.816  -0.089  0.00  0.00    -0.054 A 
ATOM      4  C   UNL     1      -2.379  -0.177  -0.695  0.00  0.00    +0.051 A 
ATOM      5  C   UNL     1      -3.619  -0.790  -0.755  0.00  0.00    +0.162 A 
ATOM      6  C   UNL     1      -3.790  -2.055  -0.205  0.00  0.00    +0.162 A 
ATOM      7  C   UNL     1      -2.718  -2.688   0.403  0.00  0.00    +0.053 A 
ATOM      8  C   UNL     1      -1.480  -2.069   0.463  0.00  0.00    -0.038 A 
ATOM      9  C   UNL     1      -0.342  -2.784   1.141  0.00  0.00    -0.019 C 
ATOM     10  C   UNL     1      -0.341  -4.267   0.728  0.00  0.00    +0.010 C 
ATOM     11  C   UNL     1       0.073  -5.019   2.018  0.00  0.00    +0.001 C 
ATOM     12  C   UNL     1      -0.644  -4.213   3.130  0.00  0.00    +0.001 C 
ATOM     13  C   UNL     1      -0.534  -2.745   2.665  0.00  0.00    +0.010 C 
ATOM     14  C   UNL     1       0.991  -2.142   0.766  0.00  0.00    -0.066 C 
ATOM     15  N   UNL     1       0.887  -0.690   0.982  0.00  0.00    +0.390 N 
ATOM     16  O   UNL     1      -4.996  -2.683  -0.262  0.00  0.00    -0.485 OA
ATOM     17  C   UNL     1      -6.135  -1.863  -0.547  0.00  0.00    +0.270 C 
ATOM     18  C   UNL     1      -5.784  -0.946  -1.726  0.00  0.00    +0.270 C 
ATOM     19  O   UNL     1      -4.659  -0.145  -1.352  0.00  0.00    -0.485 OA
ATOM     20  H   UNL     1       0.489  -0.511   1.892  0.00  0.00    -0.080 HD
ENDROOT
BRANCH  15  21
ATOM     21  C   UNL     1       2.223  -0.085   0.900  0.00  0.00    +0.019 C 
BRANCH  21  22
ATOM     22  C   UNL     1       3.068  -0.577   2.047  0.00  0.00    +0.197 C 
ATOM     23  O   UNL     1       2.575  -1.273   2.909  0.00  0.00    -0.278 OA
ATOM     24  N   UNL     1       4.372  -0.243   2.115  0.00  0.00    -0.313 N 
ATOM     25  H   UNL     1       4.766   0.314   1.426  0.00  0.00    +0.149 HD
BRANCH  24  26
ATOM     26  C   UNL     1       5.193  -0.721   3.230  0.00  0.00    +0.143 C 
BRANCH  26  27
ATOM     27  C   UNL     1       6.602  -0.210   3.071  0.00  0.00    +0.015 A 
ATOM     28  C   UNL     1       7.581  -1.036   2.549  0.00  0.00    +0.058 A 
ATOM     29  C   UNL     1       8.876  -0.569   2.401  0.00  0.00    +0.162 A 
ATOM     30  C   UNL     1       9.193   0.733   2.778  0.00  0.00    +0.165 A 
ATOM     31  C   UNL     1       8.212   1.559   3.301  0.00  0.00    +0.095 A 
ATOM     32  C   UNL     1       6.914   1.089   3.442  0.00  0.00    +0.128 A 
BRANCH  32  33
ATOM     33  O   UNL     1       5.949   1.901   3.950  0.00  0.00    -0.495 OA
ATOM     34  C   UNL     1       6.341   3.226   4.312  0.00  0.00    +0.277 C 
ENDBRANCH  32  33
BRANCH  30  35
ATOM     35  O   UNL     1      10.464   1.193   2.635  0.00  0.00    -0.491 OA
ATOM     36  C   UNL     1      10.717   2.539   3.043  0.00  0.00    +0.277 C 
ENDBRANCH  30  35
BRANCH  29  37
ATOM     37  O   UNL     1       9.839  -1.382   1.888  0.00  0.00    -0.491 OA
ATOM     38  C   UNL     1       9.443  -2.706   1.522  0.00  0.00    +0.277 C 
ENDBRANCH  29  37
ENDBRANCH  26  27
ENDBRANCH  24  26
ENDBRANCH  21  22
ENDBRANCH  15  21
TORSDOF 7
