REMARK  Name = ZINC39965212
REMARK  12 active torsions:
REMARK  status: ('A' for Active; 'I' for Inactive)
REMARK    1  A    between atoms: C_1  and  C_2
REMARK    2  A    between atoms: C_2  and  C_3
REMARK    3  A    between atoms: C_4  and  C_31
REMARK    4  A    between atoms: C_6  and  N_13
REMARK    5  A    between atoms: C_7  and  C_8
REMARK    6  A    between atoms: C_8  and  O_10
REMARK    7  A    between atoms: O_10  and  C_11
REMARK    8  A    between atoms: C_11  and  C_12
REMARK    9  A    between atoms: C_14  and  C_16
REMARK   10  A    between atoms: C_16  and  N_17
REMARK   11  A    between atoms: N_20  and  C_23
REMARK   12  A    between atoms: C_23  and  C_24
REMARK                            x       y       z     vdW  Elec       q    Type
REMARK                         _______ _______ _______ _____ _____    ______ ____
ROOT
ATOM      1  N   UNL     1       3.984  -1.480  -2.758  0.00  0.00    -0.278 N 
ATOM      2  C   UNL     1       4.324  -1.903  -3.991  0.00  0.00    +0.232 C 
ATOM      3  O   UNL     1       3.474  -2.019  -4.848  0.00  0.00    -0.274 OA
ATOM      4  H   UNL     1       4.664  -1.388  -2.072  0.00  0.00    +0.155 HD
ENDROOT
BRANCH   1   8
ATOM      5  C   UNL     1       0.707  -0.490  -1.238  0.00  0.00    -0.022 A 
ATOM      6  C   UNL     1       0.050  -0.725  -2.388  0.00  0.00    -0.008 A 
ATOM      7  S   UNL     1       1.336  -1.266  -3.493  0.00  0.00    -0.078 S 
ATOM      8  C   UNL     1       2.662  -1.178  -2.469  0.00  0.00    +0.086 A 
ATOM      9  C   UNL     1       2.133  -0.727  -1.267  0.00  0.00    +0.091 A 
ATOM     10  C   UNL     1      -1.422  -0.569  -2.672  0.00  0.00    +0.052 C 
BRANCH   5  12
ATOM     11  C   UNL     1      -0.019   1.526   0.010  0.00  0.00    +0.009 C 
ATOM     12  C   UNL     1       0.002  -0.004   0.002  0.00  0.00    +0.033 C 
ENDBRANCH   5  12
BRANCH   9  13
ATOM     13  C   UNL     1       2.975  -0.506  -0.089  0.00  0.00    +0.342 C 
ATOM     14  O   UNL     1       3.165  -1.412   0.700  0.00  0.00    -0.245 OA
BRANCH  13  15
ATOM     15  O   UNL     1       3.539   0.701   0.120  0.00  0.00    -0.461 OA
BRANCH  15  16
ATOM     16  C   UNL     1       4.348   0.845   1.290  0.00  0.00    +0.229 C 
ATOM     17  C   UNL     1       4.898   2.271   1.357  0.00  0.00    +0.048 C 
ENDBRANCH  15  16
ENDBRANCH  13  15
ENDBRANCH   9  13
ENDBRANCH   1   8
BRANCH   2  18
ATOM     18  C   UNL     1       5.760  -2.233  -4.306  0.00  0.00    +0.180 C 
BRANCH  18  19
ATOM     19  N   UNL     1       5.869  -2.667  -5.705  0.00  0.00    -0.298 NA
ATOM     20  C   UNL     1       5.559  -1.563  -6.624  0.00  0.00    +0.066 C 
ATOM     21  C   UNL     1       5.624  -2.071  -8.066  0.00  0.00    -0.063 C 
ATOM     22  N   UNL     1       6.968  -2.597  -8.340  0.00  0.00    +0.384 N 
ATOM     23  C   UNL     1       7.253  -3.715  -7.430  0.00  0.00    -0.063 C 
ATOM     24  C   UNL     1       7.202  -3.220  -5.983  0.00  0.00    +0.066 C 
ATOM     25  H   UNL     1       7.650  -1.867  -8.199  0.00  0.00    -0.081 HD
BRANCH  22  26
ATOM     26  C   UNL     1       7.036  -3.068  -9.730  0.00  0.00    -0.043 C 
BRANCH  26  27
ATOM     27  C   UNL     1       8.446  -3.494 -10.048  0.00  0.00    -0.063 A 
ATOM     28  C   UNL     1       9.348  -2.575 -10.553  0.00  0.00    +0.002 A 
ATOM     29  C   UNL     1      10.642  -2.965 -10.845  0.00  0.00    +0.001 A 
ATOM     30  C   UNL     1      11.034  -4.273 -10.632  0.00  0.00    +0.015 A 
ATOM     31  C   UNL     1      10.133  -5.192 -10.126  0.00  0.00    +0.018 A 
ATOM     32  C   UNL     1       8.839  -4.800  -9.829  0.00  0.00    +0.017 A 
ATOM     33 BR   UNL     1      10.669  -6.982  -9.835  0.00  0.00    -0.050 Br
ENDBRANCH  26  27
ENDBRANCH  22  26
ENDBRANCH  18  19
ENDBRANCH   2  18
TORSDOF 9
