REMARK  Name = ZINC21043708
REMARK  6 active torsions:
REMARK  status: ('A' for Active; 'I' for Inactive)
REMARK    1  A    between atoms: C_1  and  C_2
REMARK    2  A    between atoms: N_5  and  C_8
REMARK    3  A    between atoms: C_8  and  C_10
REMARK    4  A    between atoms: C_8  and  C_11
REMARK    5  A    between atoms: N_13  and  C_14
REMARK    6  A    between atoms: C_15  and  N_22
REMARK                            x       y       z     vdW  Elec       q    Type
REMARK                         _______ _______ _______ _____ _____    ______ ____
ROOT
ATOM      1  C   UNL     1      -1.148   6.566  -0.571  0.00  0.00    +0.203 C 
ATOM      2  O   UNL     1      -2.180   5.929  -0.583  0.00  0.00    -0.277 OA
ATOM      3  N   UNL     1       0.037   5.931  -0.668  0.00  0.00    -0.284 N 
ATOM      4  H   UNL     1       0.975   6.497  -0.561  0.00  0.00    +0.155 HD
ENDROOT
BRANCH   3   5
ATOM      5  C   UNL     1       0.075   4.549  -0.904  0.00  0.00    +0.073 A 
ATOM      6  C   UNL     1       0.831   4.041  -1.960  0.00  0.00    +0.049 A 
ATOM      7  C   UNL     1       0.865   2.674  -2.189  0.00  0.00    +0.044 A 
ATOM      8  C   UNL     1       0.150   1.817  -1.371  0.00  0.00    +0.044 A 
ATOM      9  C   UNL     1      -0.605   2.322  -0.327  0.00  0.00    +0.042 A 
ATOM     10  C   UNL     1      -0.639   3.684  -0.088  0.00  0.00    +0.065 A 
ATOM     11 CL   UNL     1      -1.582   4.312   1.227  0.00  0.00    -0.082 Cl
ATOM     12 CL   UNL     1       0.194   0.106  -1.659  0.00  0.00    -0.083 Cl
BRANCH   6  13
ATOM     13  N   UNL     1       1.554   4.908  -2.786  0.00  0.00    -0.356 N 
ATOM     14  H   UNL     1       2.150   4.506  -3.619  0.00  0.00    +0.142 HD
ATOM     15  H   UNL     1       1.526   5.993  -2.603  0.00  0.00    +0.142 HD
ENDBRANCH   6  13
ENDBRANCH   3   5
BRANCH   1  16
ATOM     16  C   UNL     1      -1.190   8.068  -0.449  0.00  0.00    +0.016 C 
ATOM     17  C   UNL     1      -0.830   8.473   0.982  0.00  0.00    -0.004 C 
BRANCH  16  22
ATOM     18  C   UNL     1      -6.341  10.498  -0.932  0.00  0.00    +0.007 C 
ATOM     19  C   UNL     1      -4.938  10.125  -0.448  0.00  0.00    -0.018 C 
ATOM     20  C   UNL     1      -4.896   8.634  -0.100  0.00  0.00    -0.015 C 
ATOM     21  C   UNL     1      -3.476   8.255   0.325  0.00  0.00    -0.078 C 
ATOM     22  N   UNL     1      -2.541   8.547  -0.769  0.00  0.00    +0.387 N 
ATOM     23  C   UNL     1      -2.529   9.980  -1.088  0.00  0.00    -0.078 C 
ATOM     24  C   UNL     1      -3.921  10.412  -1.556  0.00  0.00    -0.015 C 
ATOM     25  H   UNL     1      -2.891   8.008  -1.662  0.00  0.00    -0.081 HD
ENDBRANCH  16  22
ENDBRANCH   1  16
TORSDOF 4
