REMARK  Name = ZINC59460851
REMARK  6 active torsions:
REMARK  status: ('A' for Active; 'I' for Inactive)
REMARK    1  A    between atoms: C_3  and  S_17
REMARK    2  A    between atoms: C_6  and  N_7
REMARK    3  A    between atoms: C_8  and  C_9
REMARK    4  A    between atoms: C_12  and  O_16
REMARK    5  A    between atoms: C_13  and  O_15
REMARK    6  A    between atoms: S_17  and  N_20
REMARK                            x       y       z     vdW  Elec       q    Type
REMARK                         _______ _______ _______ _____ _____    ______ ____
ROOT
ATOM      1  C   UNL     1      -0.017   1.393   0.010  0.00  0.00    +0.029 A 
ATOM      2  C   UNL     1       1.170   2.095   0.002  0.00  0.00    +0.031 A 
ATOM      3  C   UNL     1       2.378   1.419  -0.013  0.00  0.00    +0.113 A 
ATOM      4  C   UNL     1       2.404   0.036  -0.021  0.00  0.00    +0.031 A 
ATOM      5  C   UNL     1       1.225  -0.679  -0.013  0.00  0.00    +0.029 A 
ATOM      6  C   UNL     1       0.002  -0.004   0.002  0.00  0.00    +0.064 A 
ENDROOT
BRANCH   3   7
ATOM      7  S   UNL     1       3.889   2.325  -0.024  0.00  0.00    +0.102 S 
ATOM      8  O   UNL     1       4.872   1.469  -0.589  0.00  0.00    -0.146 OA
ATOM      9  O   UNL     1       3.592   3.605  -0.566  0.00  0.00    -0.146 OA
BRANCH   7  10
ATOM     10  N   UNL     1       4.325   2.569   1.555  0.00  0.00    -0.093 NA
ATOM     11  C   UNL     1       5.418   3.221   1.836  0.00  0.00    +0.212 C 
ATOM     12  N   UNL     1       6.209   3.706   0.821  0.00  0.00    -0.369 N 
ATOM     13  N   UNL     1       5.780   3.423   3.147  0.00  0.00    -0.369 N 
ATOM     14  H   UNL     1       5.954   3.563  -0.103  0.00  0.00    +0.159 HD
ATOM     15  H   UNL     1       5.222   3.081   3.862  0.00  0.00    +0.159 HD
ATOM     16  H   UNL     1       6.594   3.908   3.356  0.00  0.00    +0.159 HD
ATOM     17  H   UNL     1       7.023   4.191   1.031  0.00  0.00    +0.159 HD
ENDBRANCH   7  10
ENDBRANCH   3   7
BRANCH   6  18
ATOM     18  N   UNL     1      -1.172  -0.708   0.009  0.00  0.00    -0.255 NA
ATOM     19  C   UNL     1      -1.328  -1.723  -0.793  0.00  0.00    +0.119 C 
BRANCH  19  20
ATOM     20  C   UNL     1      -2.590  -2.479  -0.785  0.00  0.00    -0.003 A 
ATOM     21  C   UNL     1      -3.625  -2.107   0.079  0.00  0.00    +0.013 A 
ATOM     22  C   UNL     1      -4.806  -2.816   0.084  0.00  0.00    +0.050 A 
ATOM     23  C   UNL     1      -4.972  -3.901  -0.766  0.00  0.00    +0.158 A 
ATOM     24  C   UNL     1      -3.945  -4.279  -1.629  0.00  0.00    +0.159 A 
ATOM     25  C   UNL     1      -2.760  -3.569  -1.645  0.00  0.00    +0.058 A 
BRANCH  24  26
ATOM     26  O   UNL     1      -4.111  -5.343  -2.460  0.00  0.00    -0.503 OA
ATOM     27  H   UNL     1      -4.485  -5.114  -3.322  0.00  0.00    +0.292 HD
ENDBRANCH  24  26
BRANCH  23  28
ATOM     28  O   UNL     1      -6.139  -4.598  -0.756  0.00  0.00    -0.503 OA
ATOM     29  H   UNL     1      -6.802  -4.263  -1.375  0.00  0.00    +0.292 HD
ENDBRANCH  23  28
ENDBRANCH  19  20
ENDBRANCH   6  18
TORSDOF 6
