REMARK  Name = ZINC01624591
REMARK  10 active torsions:
REMARK  status: ('A' for Active; 'I' for Inactive)
REMARK    1  A    between atoms: C_1  and  N_50
REMARK    2  A    between atoms: C_2  and  N_50
REMARK    3  A    between atoms: C_3  and  C_4
REMARK    4  A    between atoms: C_3  and  N_50
REMARK    5  A    between atoms: C_6  and  C_11
REMARK    6  A    between atoms: C_9  and  O_10
REMARK    7  A    between atoms: C_11  and  C_21
REMARK    8  A    between atoms: C_12  and  C_13
REMARK    9  A    between atoms: C_12  and  C_15
REMARK   10  A    between atoms: C_24  and  O_27
REMARK                            x       y       z     vdW  Elec       q    Type
REMARK                         _______ _______ _______ _____ _____    ______ ____
ROOT
ATOM      1  C   UNL     1      -3.798   4.049  -1.254  0.00  0.00    +0.007 C 
ATOM      2  C   UNL     1      -2.909   3.922  -0.199  0.00  0.00    +0.067 C 
ENDROOT
BRANCH   1   5
ATOM      3  C   UNL     1      -7.055   5.503  -0.089  0.00  0.00    -0.022 A 
ATOM      4  C   UNL     1      -5.970   4.662  -0.203  0.00  0.00    +0.014 A 
ATOM      5  C   UNL     1      -4.965   4.944  -1.132  0.00  0.00    -0.016 A 
ATOM      6  C   UNL     1      -5.071   6.074  -1.950  0.00  0.00    +0.012 A 
ATOM      7  C   UNL     1      -6.161   6.906  -1.832  0.00  0.00    +0.046 A 
ATOM      8  C   UNL     1      -7.156   6.625  -0.903  0.00  0.00    +0.118 A 
BRANCH   8   9
ATOM      9  O   UNL     1      -8.230   7.448  -0.790  0.00  0.00    -0.507 OA
ATOM     10  H   UNL     1      -8.971   7.208  -1.363  0.00  0.00    +0.292 HD
ENDBRANCH   8   9
BRANCH   3  11
ATOM     11  C   UNL     1      -8.137   5.203   0.916  0.00  0.00    -0.040 C 
BRANCH  11  14
ATOM     12  C   UNL     1      -9.109   3.312  -0.242  0.00  0.00    -0.096 C 
ATOM     13  C   UNL     1     -10.516   4.778   1.074  0.00  0.00    -0.096 C 
ATOM     14  N   UNL     1      -9.329   4.706   0.196  0.00  0.00    +0.379 N 
ATOM     15  H   UNL     1      -9.489   5.295  -0.630  0.00  0.00    -0.082 HD
ENDBRANCH  11  14
ENDBRANCH   3  11
ENDBRANCH   1   5
BRANCH   2  16
ATOM     16  C   UNL     1      -1.680   3.115  -0.361  0.00  0.00    -0.007 A 
ATOM     17  C   UNL     1      -0.671   3.540  -1.228  0.00  0.00    +0.009 A 
ATOM     18  C   UNL     1       0.470   2.779  -1.378  0.00  0.00    +0.001 A 
ATOM     19  C   UNL     1       0.621   1.604  -0.664  0.00  0.00    +0.000 A 
ATOM     20  C   UNL     1      -0.372   1.181   0.202  0.00  0.00    +0.001 A 
ATOM     21  C   UNL     1      -1.521   1.929   0.357  0.00  0.00    +0.009 A 
ENDBRANCH   2  16
BRANCH   1  22
ATOM     22  C   UNL     1      -3.579   3.289  -2.499  0.00  0.00    -0.016 A 
ATOM     23  C   UNL     1      -3.261   3.961  -3.684  0.00  0.00    +0.012 A 
ATOM     24  C   UNL     1      -3.051   3.247  -4.843  0.00  0.00    +0.046 A 
ATOM     25  C   UNL     1      -3.166   1.862  -4.839  0.00  0.00    +0.117 A 
ATOM     26  C   UNL     1      -3.487   1.190  -3.665  0.00  0.00    +0.046 A 
ATOM     27  C   UNL     1      -3.693   1.896  -2.500  0.00  0.00    +0.012 A 
BRANCH  25  28
ATOM     28  O   UNL     1      -2.965   1.162  -5.985  0.00  0.00    -0.507 OA
ATOM     29  H   UNL     1      -3.765   1.030  -6.511  0.00  0.00    +0.292 HD
ENDBRANCH  25  28
ENDBRANCH   1  22
BRANCH   2  30
ATOM     30  C   UNL     1      -3.179   4.573   1.047  0.00  0.00    +0.100 C 
ATOM     31  N   UNL     1      -3.394   5.089   2.036  0.00  0.00    -0.191 NA
ENDBRANCH   2  30
TORSDOF 8
