REMARK  Name = ZINC40852934
REMARK  9 active torsions:
REMARK  status: ('A' for Active; 'I' for Inactive)
REMARK    1  A    between atoms: C_1  and  C_2
REMARK    2  A    between atoms: C_9  and  N_13
REMARK    3  A    between atoms: C_10  and  C_11
REMARK    4  A    between atoms: C_14  and  C_16
REMARK    5  A    between atoms: C_16  and  C_18
REMARK    6  A    between atoms: C_16  and  N_22
REMARK    7  A    between atoms: C_18  and  C_19
REMARK    8  A    between atoms: C_19  and  C_20
REMARK    9  A    between atoms: C_19  and  C_21
REMARK                            x       y       z     vdW  Elec       q    Type
REMARK                         _______ _______ _______ _____ _____    ______ ____
ROOT
ATOM      1  N   UNL     1       0.034  -6.298   2.445  0.00  0.00    -0.280 N 
ATOM      2  C   UNL     1       1.090  -6.276   3.283  0.00  0.00    +0.203 C 
ATOM      3  O   UNL     1       1.519  -5.217   3.690  0.00  0.00    -0.277 OA
ATOM      4  H   UNL     1      -0.309  -7.144   2.120  0.00  0.00    +0.155 HD
ENDROOT
BRANCH   1  12
ATOM      5  C   UNL     1      -2.925   0.617   0.395  0.00  0.00    +0.008 C 
ATOM      6  C   UNL     1      -2.458  -0.839   0.316  0.00  0.00    -0.009 C 
ATOM      7  C   UNL     1      -3.673  -1.770   0.363  0.00  0.00    +0.008 C 
ATOM      8  C   UNL     1      -3.245  -3.202   0.039  0.00  0.00    +0.037 C 
ATOM      9  C   UNL     1      -2.078  -3.579   0.940  0.00  0.00    -0.018 A 
ATOM     10  C   UNL     1      -1.349  -2.635   1.576  0.00  0.00    -0.004 A 
ATOM     11  S   UNL     1      -0.134  -3.544   2.484  0.00  0.00    -0.077 S 
ATOM     12  C   UNL     1      -0.561  -5.108   2.048  0.00  0.00    +0.090 A 
ATOM     13  C   UNL     1      -1.644  -4.939   1.200  0.00  0.00    +0.084 A 
ATOM     14  C   UNL     1      -1.542  -1.151   1.508  0.00  0.00    +0.046 C 
BRANCH  13  15
ATOM     15  C   UNL     1      -2.307  -6.061   0.606  0.00  0.00    +0.102 C 
ATOM     16  N   UNL     1      -2.833  -6.950   0.134  0.00  0.00    -0.191 NA
ENDBRANCH  13  15
ENDBRANCH   1  12
BRANCH   2  17
ATOM     17  C   UNL     1       1.736  -7.567   3.714  0.00  0.00    +0.013 C 
BRANCH  17  18
ATOM     18  N   UNL     1       2.507  -7.342   4.944  0.00  0.00    +0.386 N 
ATOM     19  H   UNL     1       3.285  -6.730   4.747  0.00  0.00    -0.089 HD
ATOM     20  H   UNL     1       1.913  -6.916   5.640  0.00  0.00    -0.089 HD
ATOM     21  H   UNL     1       2.852  -8.224   5.291  0.00  0.00    -0.089 HD
ENDBRANCH  17  18
BRANCH  17  22
ATOM     22  C   UNL     1       2.671  -8.063   2.610  0.00  0.00    -0.004 C 
BRANCH  22  23
ATOM     23  C   UNL     1       3.225  -9.438   2.989  0.00  0.00    -0.018 C 
ATOM     24  C   UNL     1       2.083 -10.456   3.022  0.00  0.00    +0.007 C 
ATOM     25  C   UNL     1       4.266  -9.872   1.956  0.00  0.00    +0.007 C 
ENDBRANCH  22  23
ENDBRANCH  17  22
ENDBRANCH   2  17
TORSDOF 6
