REMARK  Name = ZINC47054574
REMARK  3 active torsions:
REMARK  status: ('A' for Active; 'I' for Inactive)
REMARK    1  A    between atoms: C_5  and  C_7
REMARK    2  A    between atoms: N_9  and  N_10
REMARK    3  A    between atoms: C_11  and  C_13
REMARK                            x       y       z     vdW  Elec       q    Type
REMARK                         _______ _______ _______ _____ _____    ______ ____
ROOT
ATOM      1  N   UNL     1       0.121  -4.256  -0.022  0.00  0.00    -0.230 N 
ATOM      2  C   UNL     1      -1.033  -4.952  -0.015  0.00  0.00    +0.260 C 
ATOM      3  O   UNL     1      -2.096  -4.364  -0.001  0.00  0.00    -0.269 OA
ATOM      4  H   UNL     1       0.970  -4.725  -0.034  0.00  0.00    +0.173 HD
ENDROOT
BRANCH   2   5
ATOM      5  C   UNL     1      -1.005  -6.433  -0.023  0.00  0.00    +0.040 A 
ATOM      6  C   UNL     1       0.227  -7.105  -0.034  0.00  0.00    +0.014 A 
ATOM      7  C   UNL     1       0.278  -8.466  -0.042  0.00  0.00    +0.016 A 
ATOM      8  C   UNL     1      -0.910  -9.210  -0.039  0.00  0.00    +0.065 A 
ATOM      9  C   UNL     1      -2.163  -8.543  -0.028  0.00  0.00    +0.080 A 
ATOM     10  C   UNL     1      -2.196  -7.141  -0.015  0.00  0.00    +0.041 A 
ATOM     11  N   UNL     1      -3.290  -9.269  -0.025  0.00  0.00    -0.223 NA
ATOM     12  C   UNL     1      -3.243 -10.593  -0.033  0.00  0.00    +0.180 A 
ATOM     13  N   UNL     1      -2.083 -11.271  -0.043  0.00  0.00    -0.301 N 
ATOM     14  H   UNL     1      -2.096 -12.241  -0.049  0.00  0.00    +0.171 HD
ATOM     15  C   UNL     1      -0.899 -10.621  -0.047  0.00  0.00    +0.260 A 
ATOM     16  O   UNL     1       0.261 -11.301  -0.057  0.00  0.00    -0.267 OA
ATOM     17  S   UNL     1      -4.712 -11.471  -0.028  0.00  0.00    -0.011 S 
ENDBRANCH   2   5
BRANCH   1  20
ATOM     18  C   UNL     1       1.250  -2.160  -0.022  0.00  0.00    +0.263 C 
ATOM     19  O   UNL     1       2.314  -2.748  -0.036  0.00  0.00    -0.269 OA
ATOM     20  N   UNL     1       0.095  -2.855  -0.014  0.00  0.00    -0.230 N 
ATOM     21  H   UNL     1      -0.753  -2.386  -0.003  0.00  0.00    +0.173 HD
BRANCH  18  26
ATOM     22  C   UNL     1      -0.017   1.374   0.010  0.00  0.00    +0.001 A 
ATOM     23  C   UNL     1       1.170   2.087   0.002  0.00  0.00    +0.003 A 
ATOM     24  C   UNL     1       2.383   1.425  -0.013  0.00  0.00    +0.039 A 
ATOM     25  C   UNL     1       2.418   0.042  -0.021  0.00  0.00    +0.136 A 
ATOM     26  C   UNL     1       1.222  -0.683  -0.013  0.00  0.00    +0.073 A 
ATOM     27  C   UNL     1       0.002  -0.004   0.002  0.00  0.00    +0.016 A 
ATOM     28  F   UNL     1       3.603  -0.606  -0.037  0.00  0.00    -0.205 F 
ENDBRANCH  18  26
ENDBRANCH   1  20
TORSDOF 3
