REMARK  Name = ZINC40917136
REMARK  9 active torsions:
REMARK  status: ('A' for Active; 'I' for Inactive)
REMARK    1  A    between atoms: C_1  and  C_2
REMARK    2  A    between atoms: C_5  and  C_8
REMARK    3  A    between atoms: C_8  and  O_9
REMARK    4  A    between atoms: O_9  and  C_10
REMARK    5  A    between atoms: C_11  and  O_34
REMARK    6  A    between atoms: C_13  and  C_17
REMARK    7  A    between atoms: C_22  and  C_26
REMARK    8  A    between atoms: C_22  and  C_27
REMARK    9  A    between atoms: O_34  and  C_35
REMARK                            x       y       z     vdW  Elec       q    Type
REMARK                         _______ _______ _______ _____ _____    ______ ____
ROOT
ATOM      1  C   UNL     1       1.608  -6.080  -0.040  0.00  0.00    +0.176 A 
ATOM      2  C   UNL     1       1.710  -6.778   1.160  0.00  0.00    +0.163 A 
ATOM      3  C   UNL     1       1.909  -8.149   1.146  0.00  0.00    +0.055 A 
ATOM      4  C   UNL     1       2.007  -8.821  -0.058  0.00  0.00    -0.014 A 
ATOM      5  C   UNL     1       1.907  -8.129  -1.250  0.00  0.00    +0.025 A 
ATOM      6  C   UNL     1       1.702  -6.761  -1.244  0.00  0.00    +0.063 A 
ATOM      7 BR   UNL     1       1.557  -5.819  -2.877  0.00  0.00    -0.046 Br
ENDROOT
BRANCH   4   8
ATOM      8  C   UNL     1       2.224 -10.313  -0.070  0.00  0.00    +0.177 C 
ATOM      9  C   UNL     1       3.521 -10.626  -0.784  0.00  0.00    +0.041 C 
ATOM     10  C   UNL     1       3.549 -11.165  -2.021  0.00  0.00    +0.020 C 
ATOM     11  C   UNL     1       4.860 -11.468  -2.707  0.00  0.00    +0.058 C 
ATOM     12  C   UNL     1       5.924 -10.470  -2.248  0.00  0.00    -0.023 C 
ATOM     13  C   UNL     1       6.058 -10.574  -0.725  0.00  0.00    +0.086 C 
ATOM     14  C   UNL     1       4.714 -10.328  -0.099  0.00  0.00    +0.164 C 
ATOM     15  O   UNL     1       4.655  -9.862   1.022  0.00  0.00    -0.292 OA
ATOM     16  C   UNL     1       7.264 -10.804  -2.907  0.00  0.00    +0.011 C 
ATOM     17  C   UNL     1       5.500  -9.051  -2.632  0.00  0.00    +0.011 C 
ATOM     18  N   UNL     1       2.396 -11.468  -2.707  0.00  0.00    -0.286 N 
ATOM     19  C   UNL     1       1.206 -11.492  -1.999  0.00  0.00    +0.240 A 
ATOM     20  N   UNL     1       1.113 -10.956  -0.756  0.00  0.00    -0.201 N 
ATOM     21  N   UNL     1      -0.205 -11.169  -0.359  0.00  0.00    -0.042 NA
ATOM     22  N   UNL     1      -0.790 -11.780  -1.339  0.00  0.00    -0.021 NA
ATOM     23  N   UNL     1       0.035 -11.971  -2.304  0.00  0.00    -0.092 NA
ATOM     24  H   UNL     1       2.416 -11.659  -3.657  0.00  0.00    +0.155 HD
ENDBRANCH   4   8
BRANCH   2  25
ATOM     25  O   UNL     1       1.614  -6.115   2.344  0.00  0.00    -0.491 OA
ATOM     26  C   UNL     1       1.727  -6.895   3.535  0.00  0.00    +0.277 C 
ENDBRANCH   2  25
BRANCH   1  27
ATOM     27  O   UNL     1       1.413  -4.734  -0.032  0.00  0.00    -0.483 OA
BRANCH  27  28
ATOM     28  C   UNL     1       0.059  -4.275  -0.021  0.00  0.00    +0.264 C 
BRANCH  28  33
ATOM     29  C   UNL     1      -0.018   1.503   0.010  0.00  0.00    +0.044 C 
ATOM     30  C   UNL     1       0.002  -0.004   0.002  0.00  0.00    -0.050 A 
ATOM     31  C   UNL     1       0.006  -0.689  -1.199  0.00  0.00    +0.004 A 
ATOM     32  C   UNL     1       0.025  -2.071  -1.206  0.00  0.00    +0.007 A 
ATOM     33  C   UNL     1       0.040  -2.768  -0.013  0.00  0.00    -0.010 A 
ATOM     34  C   UNL     1       0.037  -2.084   1.188  0.00  0.00    +0.007 A 
ATOM     35  C   UNL     1       0.023  -0.702   1.195  0.00  0.00    +0.004 A 
ENDBRANCH  28  33
ENDBRANCH  27  28
ENDBRANCH   1  27
TORSDOF 5
