REMARK  Name = ZINC40811509
REMARK  7 active torsions:
REMARK  status: ('A' for Active; 'I' for Inactive)
REMARK    1  A    between atoms: C_1  and  C_2
REMARK    2  A    between atoms: C_2  and  N_3
REMARK    3  A    between atoms: C_9  and  C_11
REMARK    4  A    between atoms: C_12  and  C_31
REMARK    5  A    between atoms: N_20  and  N_21
REMARK    6  A    between atoms: C_22  and  C_24
REMARK    7  A    between atoms: C_29  and  C_30
REMARK                            x       y       z     vdW  Elec       q    Type
REMARK                         _______ _______ _______ _____ _____    ______ ____
ROOT
ATOM      1  C   UNL     1       0.729  -4.252   4.331  0.00  0.00    +0.193 A 
ATOM      2  C   UNL     1       0.448  -5.209   5.266  0.00  0.00    +0.009 A 
ATOM      3  C   UNL     1       0.855  -6.429   4.712  0.00  0.00    +0.042 A 
ATOM      4  C   UNL     1       1.367  -6.165   3.464  0.00  0.00    +0.115 A 
ATOM      5  O   UNL     1       1.276  -4.854   3.251  0.00  0.00    -0.454 OA
ATOM      6  C   UNL     1       1.915  -7.239   2.558  0.00  0.00    +0.075 C 
ATOM      7  C   UNL     1       2.279  -8.470   3.391  0.00  0.00    +0.014 C 
ATOM      8  C   UNL     1       1.092  -8.909   4.254  0.00  0.00    +0.058 C 
ATOM      9  C   UNL     1       0.797  -7.803   5.258  0.00  0.00    +0.070 C 
ATOM     10  N   UNL     1       0.517  -8.048   6.501  0.00  0.00    -0.184 NA
ATOM     11  C   UNL     1      -0.173  -4.994   6.622  0.00  0.00    +0.048 C 
ENDROOT
BRANCH   1  18
ATOM     12  N   UNL     1       0.119  -0.564   1.079  0.00  0.00    +0.382 N 
ATOM     13  C   UNL     1      -0.550  -0.176   2.327  0.00  0.00    -0.060 C 
ATOM     14  C   UNL     1       0.334  -0.558   3.519  0.00  0.00    +0.089 C 
ATOM     15  N   UNL     1       0.655  -1.991   3.421  0.00  0.00    -0.299 N 
ATOM     16  C   UNL     1       1.179  -2.499   2.144  0.00  0.00    +0.089 C 
ATOM     17  C   UNL     1       0.255  -2.025   1.017  0.00  0.00    -0.060 C 
ATOM     18  C   UNL     1       0.473  -2.814   4.473  0.00  0.00    +0.282 C 
ATOM     19  O   UNL     1       0.098  -2.365   5.540  0.00  0.00    -0.267 OA
ATOM     20  H   UNL     1       1.034  -0.141   1.044  0.00  0.00    -0.082 HD
BRANCH  12  22
ATOM     21  C   UNL     1      -0.715   1.430  -0.073  0.00  0.00    -0.017 C 
ATOM     22  C   UNL     1      -0.677  -0.100  -0.066  0.00  0.00    -0.082 C 
ENDBRANCH  12  22
ENDBRANCH   1  18
BRANCH  10  23
ATOM     23  N   UNL     1       0.476  -9.370   6.963  0.00  0.00    -0.203 N 
ATOM     24  C   UNL     1       0.185  -9.623   8.254  0.00  0.00    +0.264 C 
ATOM     25  O   UNL     1      -0.043  -8.705   9.018  0.00  0.00    -0.268 OA
ATOM     26  H   UNL     1       0.658 -10.102   6.354  0.00  0.00    +0.178 HD
BRANCH  24  27
ATOM     27  C   UNL     1       0.142 -11.018   8.742  0.00  0.00    +0.041 A 
ATOM     28  C   UNL     1       0.485 -12.069   7.889  0.00  0.00    +0.013 A 
ATOM     29  C   UNL     1       0.443 -13.369   8.351  0.00  0.00    +0.001 A 
ATOM     30  C   UNL     1       0.062 -13.631   9.655  0.00  0.00    +0.000 A 
ATOM     31  C   UNL     1      -0.279 -12.594  10.505  0.00  0.00    +0.004 A 
ATOM     32  C   UNL     1      -0.236 -11.289  10.058  0.00  0.00    -0.038 A 
ATOM     33  C   UNL     1      -0.601 -10.160  10.986  0.00  0.00    +0.044 C 
ENDBRANCH  24  27
ENDBRANCH  10  23
TORSDOF 4
