REMARK  Name = ZINC17052434
REMARK  11 active torsions:
REMARK  status: ('A' for Active; 'I' for Inactive)
REMARK    1  A    between atoms: C_1  and  C_2
REMARK    2  A    between atoms: C_2  and  O_3
REMARK    3  A    between atoms: O_3  and  C_4
REMARK    4  A    between atoms: C_4  and  C_6
REMARK    5  A    between atoms: C_7  and  C_20
REMARK    6  A    between atoms: C_8  and  C_17
REMARK    7  A    between atoms: C_10  and  N_11
REMARK    8  A    between atoms: C_12  and  C_14
REMARK    9  A    between atoms: C_14  and  N_40
REMARK   10  A    between atoms: C_15  and  N_40
REMARK   11  A    between atoms: C_16  and  N_40
REMARK                            x       y       z     vdW  Elec       q    Type
REMARK                         _______ _______ _______ _____ _____    ______ ____
ROOT
ATOM      1  C   UNL     1      -0.554   1.463   4.941  0.00  0.00    +0.091 A 
ATOM      2  C   UNL     1      -1.368   2.025   5.914  0.00  0.00    -0.015 A 
ATOM      3  C   UNL     1      -2.441   2.762   5.496  0.00  0.00    +0.079 A 
ATOM      4  S   UNL     1      -2.309   2.677   3.720  0.00  0.00    -0.068 S 
ATOM      5  C   UNL     1      -0.888   1.691   3.602  0.00  0.00    +0.087 A 
ATOM      6  C   UNL     1      -1.080   1.828   7.380  0.00  0.00    +0.046 C 
ENDROOT
BRANCH   3   7
ATOM      7  C   UNL     1      -3.446   3.455   6.306  0.00  0.00    +0.248 C 
ATOM      8  O   UNL     1      -3.383   3.413   7.521  0.00  0.00    -0.270 OA
ATOM      9  N   UNL     1      -4.441   4.138   5.706  0.00  0.00    -0.325 N 
ATOM     10  H   UNL     1      -4.491   4.171   4.738  0.00  0.00    +0.145 HD
ATOM     11  H   UNL     1      -5.106   4.597   6.242  0.00  0.00    +0.145 HD
ENDBRANCH   3   7
BRANCH   5  12
ATOM     12  N   UNL     1      -0.242   1.246   2.466  0.00  0.00    -0.281 N 
ATOM     13  C   UNL     1      -0.718   1.572   1.248  0.00  0.00    +0.201 C 
ATOM     14  O   UNL     1      -1.714   2.256   1.150  0.00  0.00    -0.278 OA
ATOM     15  H   UNL     1       0.555   0.699   2.544  0.00  0.00    +0.155 HD
BRANCH  13  16
ATOM     16  C   UNL     1      -0.013   1.086   0.008  0.00  0.00    +0.018 C 
BRANCH  16  19
ATOM     17  C   UNL     1       0.059   1.323  -2.401  0.00  0.00    -0.096 C 
ATOM     18  C   UNL     1      -2.059   0.969  -1.281  0.00  0.00    -0.096 C 
ATOM     19  N   UNL     1      -0.727   1.601  -1.179  0.00  0.00    +0.382 N 
ATOM     20  H   UNL     1      -0.845   2.616  -1.083  0.00  0.00    -0.082 HD
ENDBRANCH  16  19
ENDBRANCH  13  16
ENDBRANCH   5  12
BRANCH   1  21
ATOM     21  C   UNL     1       0.617   0.658   5.304  0.00  0.00    +0.342 C 
ATOM     22  O   UNL     1       1.700   1.191   5.454  0.00  0.00    -0.245 OA
BRANCH  21  23
ATOM     23  O   UNL     1       0.494  -0.674   5.472  0.00  0.00    -0.461 OA
BRANCH  23  25
ATOM     24  C   UNL     1       1.360  -2.894   5.977  0.00  0.00    +0.048 C 
ATOM     25  C   UNL     1       1.694  -1.408   5.831  0.00  0.00    +0.229 C 
ENDBRANCH  23  25
ENDBRANCH  21  23
ENDBRANCH   1  21
TORSDOF 7
