REMARK  Name = ZINC12042688
REMARK  11 active torsions:
REMARK  status: ('A' for Active; 'I' for Inactive)
REMARK    1  A    between atoms: C_1  and  C_2
REMARK    2  A    between atoms: C_2  and  O_3
REMARK    3  A    between atoms: O_3  and  C_4
REMARK    4  A    between atoms: C_7  and  C_10
REMARK    5  A    between atoms: C_10  and  C_12
REMARK    6  A    between atoms: C_10  and  N_70
REMARK    7  A    between atoms: C_13  and  C_26
REMARK    8  A    between atoms: C_14  and  C_25
REMARK    9  A    between atoms: C_16  and  N_17
REMARK   10  A    between atoms: C_18  and  C_20
REMARK   11  A    between atoms: N_29  and  C_32
REMARK                            x       y       z     vdW  Elec       q    Type
REMARK                         _______ _______ _______ _____ _____    ______ ____
ROOT
ATOM      1  C   UNL     1      -0.847   2.017  -1.093  0.00  0.00    -0.004 C 
ENDROOT
BRANCH   1   2
ATOM      2  C   UNL     1      -0.810   3.505  -1.328  0.00  0.00    -0.025 A 
ATOM      3  C   UNL     1      -0.471   4.013  -2.568  0.00  0.00    -0.037 A 
ATOM      4  C   UNL     1      -0.448   5.356  -2.745  0.00  0.00    -0.008 A 
ATOM      5  S   UNL     1      -0.915   5.954  -1.129  0.00  0.00    -0.078 S 
ATOM      6  C   UNL     1      -1.115   4.373  -0.323  0.00  0.00    +0.074 A 
ATOM      7  C   UNL     1      -0.113   6.143  -3.986  0.00  0.00    +0.052 C 
ATOM      8  C   UNL     1      -0.131   3.087  -3.707  0.00  0.00    +0.045 C 
BRANCH   6   9
ATOM      9  N   UNL     1      -1.488   4.098   0.994  0.00  0.00    -0.273 N 
ATOM     10  C   UNL     1      -1.868   5.101   1.810  0.00  0.00    +0.284 C 
ATOM     11  O   UNL     1      -1.887   6.247   1.399  0.00  0.00    -0.266 OA
ATOM     12  H   UNL     1      -1.473   3.186   1.322  0.00  0.00    +0.156 HD
BRANCH  10  13
ATOM     13  C   UNL     1      -2.259   4.813   3.193  0.00  0.00    +0.189 A 
ATOM     14  C   UNL     1      -2.663   5.730   4.121  0.00  0.00    +0.054 A 
ATOM     15  C   UNL     1      -2.937   5.019   5.300  0.00  0.00    +0.042 A 
ATOM     16  C   UNL     1      -2.691   3.715   5.043  0.00  0.00    +0.196 A 
ATOM     17  O   UNL     1      -2.288   3.594   3.771  0.00  0.00    -0.458 OA
ENDBRANCH  10  13
ENDBRANCH   6   9
ENDBRANCH   1   2
BRANCH   1  23
ATOM     18  C   UNL     1       1.138   2.238   0.277  0.00  0.00    -0.058 C 
ATOM     19  C   UNL     1       1.713   1.969   1.669  0.00  0.00    +0.086 C 
ATOM     20  N   UNL     1       1.695   0.523   1.933  0.00  0.00    -0.333 N 
ATOM     21  C   UNL     1       0.325  -0.005   1.861  0.00  0.00    +0.086 C 
ATOM     22  C   UNL     1      -0.250   0.264   0.469  0.00  0.00    -0.058 C 
ATOM     23  N   UNL     1      -0.247   1.722   0.226  0.00  0.00    +0.389 N 
ATOM     24  H   UNL     1      -0.802   2.184   0.956  0.00  0.00    -0.080 HD
BRANCH  20  25
ATOM     25  C   UNL     1       2.280   0.232   3.167  0.00  0.00    +0.030 A 
ATOM     26  C   UNL     1       1.562  -0.467   4.130  0.00  0.00    +0.023 A 
ATOM     27  C   UNL     1       2.145  -0.758   5.348  0.00  0.00    +0.002 A 
ATOM     28  C   UNL     1       3.438  -0.345   5.613  0.00  0.00    +0.000 A 
ATOM     29  C   UNL     1       4.153   0.356   4.659  0.00  0.00    +0.002 A 
ATOM     30  C   UNL     1       3.578   0.646   3.438  0.00  0.00    +0.023 A 
ENDBRANCH  20  25
ENDBRANCH   1  23
BRANCH   1  34
ATOM     31  C   UNL     1      -4.904   0.673  -1.099  0.00  0.00    +0.121 A 
ATOM     32  C   UNL     1      -4.154   0.623  -2.265  0.00  0.00    +0.046 A 
ATOM     33  C   UNL     1      -2.842   1.058  -2.261  0.00  0.00    +0.006 A 
ATOM     34  C   UNL     1      -2.278   1.543  -1.095  0.00  0.00    -0.056 A 
ATOM     35  C   UNL     1      -3.022   1.589   0.069  0.00  0.00    +0.006 A 
ATOM     36  C   UNL     1      -4.335   1.161   0.068  0.00  0.00    +0.046 A 
BRANCH  31  37
ATOM     37  O   UNL     1      -6.194   0.246  -1.101  0.00  0.00    -0.492 OA
BRANCH  37  39
ATOM     38  C   UNL     1      -8.330  -0.196  -0.062  0.00  0.00    +0.048 C 
ATOM     39  C   UNL     1      -6.906   0.326   0.135  0.00  0.00    +0.225 C 
ENDBRANCH  37  39
ENDBRANCH  31  37
ENDBRANCH   1  34
TORSDOF 8
