REMARK  Name = ZINC16564653
REMARK  8 active torsions:
REMARK  status: ('A' for Active; 'I' for Inactive)
REMARK    1  A    between atoms: C_1  and  C_2
REMARK    2  A    between atoms: C_2  and  C_4
REMARK    3  A    between atoms: C_2  and  N_53
REMARK    4  A    between atoms: N_6  and  C_7
REMARK    5  A    between atoms: C_10  and  S_13
REMARK    6  A    between atoms: S_13  and  N_16
REMARK    7  A    between atoms: N_19  and  C_22
REMARK    8  A    between atoms: C_27  and  N_28
REMARK                            x       y       z     vdW  Elec       q    Type
REMARK                         _______ _______ _______ _____ _____    ______ ____
ROOT
ATOM      1  C   UNL     1      -3.680  -4.530   1.387  0.00  0.00    -0.004 C 
ATOM      2  C   UNL     1      -4.053  -3.842   0.072  0.00  0.00    +0.017 C 
ENDROOT
BRANCH   2   8
ATOM      3  C   UNL     1      -3.445  -2.052  -1.441  0.00  0.00    -0.059 C 
ATOM      4  C   UNL     1      -2.369  -1.009  -1.750  0.00  0.00    +0.086 C 
ATOM      5  N   UNL     1      -2.242  -0.088  -0.612  0.00  0.00    -0.332 N 
ATOM      6  C   UNL     1      -1.879  -0.815   0.612  0.00  0.00    +0.086 C 
ATOM      7  C   UNL     1      -2.955  -1.858   0.921  0.00  0.00    -0.059 C 
ATOM      8  N   UNL     1      -3.056  -2.790  -0.221  0.00  0.00    +0.389 N 
ATOM      9  H   UNL     1      -2.142  -3.231  -0.374  0.00  0.00    -0.081 HD
BRANCH   5  10
ATOM     10  C   UNL     1      -1.318   0.923  -0.887  0.00  0.00    +0.060 A 
ATOM     11  C   UNL     1       0.002   0.600  -1.175  0.00  0.00    +0.025 A 
ATOM     12  C   UNL     1       0.913   1.602  -1.447  0.00  0.00    +0.002 A 
ATOM     13  C   UNL     1       0.512   2.926  -1.432  0.00  0.00    +0.002 A 
ATOM     14  C   UNL     1      -0.801   3.251  -1.145  0.00  0.00    +0.034 A 
ATOM     15  C   UNL     1      -1.717   2.253  -0.873  0.00  0.00    +0.147 A 
BRANCH  15  16
ATOM     16  N   UNL     1      -3.124   2.602  -0.572  0.00  0.00    +0.058 N 
ATOM     17  O   UNL     1      -3.473   3.769  -0.560  0.00  0.00    -0.126 OA
ATOM     18  O   UNL     1      -3.932   1.722  -0.337  0.00  0.00    -0.126 OA
ENDBRANCH  15  16
ENDBRANCH   5  10
ENDBRANCH   2   8
BRANCH   2  19
ATOM     19  C   UNL     1      -4.039  -4.853  -1.045  0.00  0.00    +0.203 C 
ATOM     20  O   UNL     1      -3.037  -5.008  -1.710  0.00  0.00    -0.277 OA
ATOM     21  N   UNL     1      -5.140  -5.586  -1.305  0.00  0.00    -0.287 N 
ATOM     22  H   UNL     1      -5.964  -5.409  -0.825  0.00  0.00    +0.155 HD
BRANCH  21  23
ATOM     23  C   UNL     1      -5.094  -6.600  -2.268  0.00  0.00    +0.033 A 
ATOM     24  C   UNL     1      -4.325  -6.439  -3.413  0.00  0.00    +0.025 A 
ATOM     25  C   UNL     1      -4.277  -7.445  -4.358  0.00  0.00    +0.030 A 
ATOM     26  C   UNL     1      -5.003  -8.607  -4.171  0.00  0.00    +0.105 A 
ATOM     27  C   UNL     1      -5.774  -8.768  -3.034  0.00  0.00    +0.030 A 
ATOM     28  C   UNL     1      -5.822  -7.769  -2.082  0.00  0.00    +0.025 A 
BRANCH  26  29
ATOM     29  S   UNL     1      -4.945  -9.885  -5.382  0.00  0.00    +0.056 S 
ATOM     30  O   UNL     1      -3.724  -9.718  -6.090  0.00  0.00    -0.153 OA
ATOM     31  O   UNL     1      -5.279 -11.093  -4.714  0.00  0.00    -0.153 OA
BRANCH  29  32
ATOM     32  N   UNL     1      -6.163  -9.590  -6.464  0.00  0.00    -0.204 NA
ATOM     33  H   UNL     1      -6.067  -9.864  -7.390  0.00  0.00    +0.144 HD
ATOM     34  H   UNL     1      -6.973  -9.143  -6.173  0.00  0.00    +0.144 HD
ENDBRANCH  29  32
ENDBRANCH  26  29
ENDBRANCH  21  23
ENDBRANCH   2  19
TORSDOF 7
