REMARK  Name = ZINC12290236
REMARK  11 active torsions:
REMARK  status: ('A' for Active; 'I' for Inactive)
REMARK    1  A    between atoms: C_1  and  C_2
REMARK    2  A    between atoms: C_2  and  C_3
REMARK    3  A    between atoms: C_5  and  C_17
REMARK    4  A    between atoms: C_6  and  N_8
REMARK    5  A    between atoms: C_9  and  C_11
REMARK    6  A    between atoms: C_17  and  C_19
REMARK    7  A    between atoms: C_17  and  N_66
REMARK    8  A    between atoms: C_28  and  C_31
REMARK    9  A    between atoms: C_31  and  O_33
REMARK   10  A    between atoms: O_33  and  C_34
REMARK   11  A    between atoms: C_34  and  C_35
REMARK                            x       y       z     vdW  Elec       q    Type
REMARK                         _______ _______ _______ _____ _____    ______ ____
ROOT
ATOM      1  C   UNL     1       7.564   1.327  -0.077  0.00  0.00    -0.004 C 
ENDROOT
BRANCH   1   2
ATOM      2  C   UNL     1       7.542   1.848   1.337  0.00  0.00    -0.056 A 
ATOM      3  C   UNL     1       8.678   1.771   2.120  0.00  0.00    +0.005 A 
ATOM      4  C   UNL     1       8.660   2.252   3.415  0.00  0.00    +0.038 A 
ATOM      5  C   UNL     1       7.499   2.803   3.932  0.00  0.00    +0.123 A 
ATOM      6  C   UNL     1       6.360   2.876   3.148  0.00  0.00    +0.038 A 
ATOM      7  C   UNL     1       6.382   2.398   1.851  0.00  0.00    +0.005 A 
ATOM      8  F   UNL     1       7.479   3.270   5.199  0.00  0.00    -0.205 F 
ENDBRANCH   1   2
BRANCH   1  14
ATOM      9  C   UNL     1       8.868   3.283  -0.655  0.00  0.00    -0.077 C 
ATOM     10  C   UNL     1      10.200   3.748  -1.250  0.00  0.00    -0.004 C 
ATOM     11  C   UNL     1      10.274   3.318  -2.718  0.00  0.00    +0.094 C 
ATOM     12  C   UNL     1      10.117   1.798  -2.805  0.00  0.00    -0.004 C 
ATOM     13  C   UNL     1       8.788   1.390  -2.165  0.00  0.00    -0.077 C 
ATOM     14  N   UNL     1       8.789   1.810  -0.748  0.00  0.00    +0.387 N 
ATOM     15  H   UNL     1       9.608   1.403  -0.281  0.00  0.00    -0.080 HD
BRANCH  11  16
ATOM     16  C   UNL     1      11.608   3.720  -3.295  0.00  0.00    +0.310 C 
ATOM     17  O   UNL     1      12.356   2.878  -3.731  0.00  0.00    -0.251 OA
BRANCH  16  18
ATOM     18  O   UNL     1      11.964   5.014  -3.323  0.00  0.00    -0.465 OA
BRANCH  18  19
ATOM     19  C   UNL     1      13.262   5.328  -3.893  0.00  0.00    +0.229 C 
ATOM     20  C   UNL     1      13.490   6.840  -3.839  0.00  0.00    +0.048 C 
ENDBRANCH  18  19
ENDBRANCH  16  18
ENDBRANCH  11  16
ENDBRANCH   1  14
BRANCH   1  23
ATOM     21  C   UNL     1       8.760  -2.224  -0.083  0.00  0.00    -0.008 A 
ATOM     22  C   UNL     1       8.780  -0.870  -0.095  0.00  0.00    +0.015 A 
ATOM     23  C   UNL     1       7.583  -0.179  -0.057  0.00  0.00    -0.028 A 
ATOM     24  C   UNL     1       6.419  -0.886   0.002  0.00  0.00    +0.074 A 
ATOM     25  S   UNL     1       7.011  -2.571  -0.008  0.00  0.00    -0.078 S 
BRANCH  24  26
ATOM     26  N   UNL     1       5.106  -0.416   0.052  0.00  0.00    -0.276 N 
ATOM     27  C   UNL     1       4.079  -1.288   0.102  0.00  0.00    +0.249 C 
ATOM     28  O   UNL     1       4.296  -2.484   0.103  0.00  0.00    -0.270 OA
ATOM     29  H   UNL     1       4.932   0.538   0.051  0.00  0.00    +0.156 HD
BRANCH  27  30
ATOM     30  C   UNL     1       2.688  -0.789   0.154  0.00  0.00    +0.037 A 
ATOM     31  C   UNL     1       1.623  -1.690   0.206  0.00  0.00    +0.013 A 
ATOM     32  C   UNL     1       0.327  -1.218   0.255  0.00  0.00    +0.001 A 
ATOM     33  C   UNL     1       0.083   0.144   0.254  0.00  0.00    +0.000 A 
ATOM     34  C   UNL     1       1.135   1.042   0.203  0.00  0.00    +0.001 A 
ATOM     35  C   UNL     1       2.435   0.583   0.153  0.00  0.00    +0.013 A 
ENDBRANCH  27  30
ENDBRANCH  24  26
BRANCH  21  37
ATOM     36  C   UNL     1      10.367  -3.505   1.306  0.00  0.00    +0.009 C 
ATOM     37  C   UNL     1       9.917  -3.189  -0.122  0.00  0.00    +0.039 C 
ENDBRANCH  21  37
ENDBRANCH   1  23
TORSDOF 9
