REMARK  Name = ZINC19962535
REMARK  4 active torsions:
REMARK  status: ('A' for Active; 'I' for Inactive)
REMARK    1  A    between atoms: C_1  and  C_2
REMARK    2  A    between atoms: C_7  and  C_15
REMARK    3  A    between atoms: CA_10  and  C_12
REMARK    4  A    between atoms: C_24  and  O_25
REMARK                            x       y       z     vdW  Elec       q    Type
REMARK                         _______ _______ _______ _____ _____    ______ ____
ROOT
ATOM      1  C   UNL     1      -0.123   1.484  -0.046  0.00  0.00    +0.090 C 
ATOM      2  C   UNL     1      -0.071  -0.022  -0.037  0.00  0.00    +0.150 A 
ATOM      3  N   UNL     1      -0.052  -0.796  -1.117  0.00  0.00    -0.195 NA
ATOM      4  C   UNL     1      -0.007  -2.057  -0.761  0.00  0.00    +0.250 A 
ATOM      5  N   UNL     1       0.010  -2.095   0.609  0.00  0.00    -0.221 N 
ATOM      6  N   UNL     1      -0.032  -0.775   1.043  0.00  0.00    -0.153 NA
ATOM      7  C   UNL     1       0.076  -3.347   1.363  0.00  0.00    +0.151 C 
ATOM      8  C   UNL     1      -0.594  -4.440   0.520  0.00  0.00    +0.095 C 
ATOM      9  CA  UNL     1      -0.192  -4.329  -0.923  0.00  0.00    +0.135 C 
ATOM     10  N   UNL     1       0.042  -3.185  -1.502  0.00  0.00    -0.209 NA
ENDROOT
BRANCH   7  11
ATOM     11  C   UNL     1      -0.654  -3.192   2.672  0.00  0.00    +0.026 A 
ATOM     12  C   UNL     1      -0.008  -3.496   3.881  0.00  0.00    -0.009 A 
ATOM     13  C   UNL     1       1.323  -3.948   3.902  0.00  0.00    +0.009 A 
ATOM     14  C   UNL     1       1.919  -4.233   5.093  0.00  0.00    +0.001 A 
ATOM     15  C   UNL     1       1.228  -4.084   6.294  0.00  0.00    +0.001 A 
ATOM     16  C   UNL     1      -0.061  -3.649   6.312  0.00  0.00    +0.008 A 
ATOM     17  C   UNL     1      -0.710  -3.344   5.103  0.00  0.00    -0.017 A 
ATOM     18  C   UNL     1      -2.041  -2.892   5.084  0.00  0.00    +0.012 A 
ATOM     19  C   UNL     1      -2.639  -2.606   3.897  0.00  0.00    +0.046 A 
ATOM     20  C   UNL     1      -1.946  -2.750   2.690  0.00  0.00    +0.123 A 
BRANCH  20  21
ATOM     21  O   UNL     1      -2.569  -2.451   1.520  0.00  0.00    -0.506 OA
ATOM     22  H   UNL     1      -3.035  -3.198   1.120  0.00  0.00    +0.292 HD
ENDBRANCH  20  21
ENDBRANCH   7  11
BRANCH   9  23
ATOM     23  C   UNL     1      -0.057  -5.563  -1.716  0.00  0.00    +0.401 C 
ATOM     24  O   UNL     1       0.269  -5.500  -2.894  0.00  0.00    -0.239 OA
ATOM     25  OXT UNL     1      -0.270  -6.650  -1.197  0.00  0.00    -0.239 OA
ENDBRANCH   9  23
TORSDOF 3
