REMARK  Name = ZINC12469505
REMARK  5 active torsions:
REMARK  status: ('A' for Active; 'I' for Inactive)
REMARK    1  A    between atoms: C_3  and  C_6
REMARK    2  A    between atoms: C_9  and  C_31
REMARK    3  A    between atoms: C_14  and  C_16
REMARK    4  A    between atoms: N_18  and  C_19
REMARK    5  A    between atoms: C_19  and  C_20
REMARK                            x       y       z     vdW  Elec       q    Type
REMARK                         _______ _______ _______ _____ _____    ______ ____
ROOT
ATOM      1  C   UNL     1       3.599   0.625  -0.029  0.00  0.00    +0.140 C 
ATOM      2  C   UNL     1       4.121   0.346   1.384  0.00  0.00    +0.066 C 
ATOM      3  C   UNL     1       5.654   0.377   1.390  0.00  0.00    +0.215 C 
ATOM      4  N   UNL     1       6.150  -0.473   0.304  0.00  0.00    -0.238 N 
ATOM      5  C   UNL     1       5.391  -0.854  -0.767  0.00  0.00    +0.119 A 
ATOM      6  C   UNL     1       6.152  -1.629  -1.566  0.00  0.00    +0.078 A 
ATOM      7  C   UNL     1       7.430  -1.730  -0.970  0.00  0.00    +0.149 A 
ATOM      8  N   UNL     1       7.418  -1.032   0.152  0.00  0.00    -0.164 NA
ATOM      9  N   UNL     1       4.061  -0.453  -0.926  0.00  0.00    -0.319 N 
ATOM     10  H   UNL     1       3.476  -0.860  -1.584  0.00  0.00    +0.148 HD
ENDROOT
BRANCH   1  13
ATOM     11  C   UNL     1      -0.016   1.341   0.009  0.00  0.00    +0.041 A 
ATOM     12  C   UNL     1       1.331   1.769  -0.001  0.00  0.00    +0.046 A 
ATOM     13  C   UNL     1       2.092   0.660  -0.014  0.00  0.00    +0.125 A 
ATOM     14  O   UNL     1       1.282  -0.411  -0.012  0.00  0.00    -0.466 OA
ATOM     15  C   UNL     1       0.002  -0.004   0.002  0.00  0.00    +0.195 A 
ENDBRANCH   1  13
BRANCH   7  16
ATOM     16  C   UNL     1       8.579  -2.486  -1.509  0.00  0.00    +0.264 C 
ATOM     17  O   UNL     1       8.471  -3.093  -2.557  0.00  0.00    -0.268 OA
ATOM     18  N   UNL     1       9.749  -2.502  -0.839  0.00  0.00    -0.310 N 
ATOM     19  H   UNL     1       9.836  -2.017  -0.003  0.00  0.00    +0.149 HD
BRANCH  18  20
ATOM     20  C   UNL     1      10.889  -3.251  -1.373  0.00  0.00    +0.111 C 
BRANCH  20  21
ATOM     21  C   UNL     1      12.083  -3.105  -0.428  0.00  0.00    -0.013 C 
ATOM     22  C   UNL     1      12.457  -1.627  -0.303  0.00  0.00    +0.012 C 
ATOM     23  C   UNL     1      13.652  -1.482   0.642  0.00  0.00    -0.010 C 
ATOM     24  C   UNL     1      14.842  -2.264   0.085  0.00  0.00    +0.007 C 
ATOM     25  C   UNL     1      14.468  -3.742  -0.040  0.00  0.00    -0.010 C 
ATOM     26  C   UNL     1      13.274  -3.888  -0.986  0.00  0.00    +0.012 C 
ATOM     27  C   UNL     1      14.097  -4.292   1.338  0.00  0.00    +0.007 C 
ATOM     28  C   UNL     1      12.906  -3.510   1.896  0.00  0.00    -0.010 C 
ATOM     29  C   UNL     1      13.280  -2.032   2.021  0.00  0.00    +0.007 C 
ATOM     30  C   UNL     1      11.712  -3.655   0.951  0.00  0.00    +0.012 C 
ENDBRANCH  20  21
ENDBRANCH  18  20
ENDBRANCH   7  16
BRANCH   3  31
ATOM     31  C   UNL     1       6.172  -0.146   2.731  0.00  0.00    +0.412 C 
ATOM     32  F   UNL     1       5.733  -1.461   2.920  0.00  0.00    -0.168 F 
ATOM     33  F   UNL     1       7.571  -0.117   2.734  0.00  0.00    -0.168 F 
ATOM     34  F   UNL     1       5.687   0.661   3.765  0.00  0.00    -0.168 F 
ENDBRANCH   3  31
TORSDOF 5
