REMARK  Name = ZINC63416401
REMARK  8 active torsions:
REMARK  status: ('A' for Active; 'I' for Inactive)
REMARK    1  A    between atoms: C_1  and  O_2
REMARK    2  A    between atoms: O_2  and  C_3
REMARK    3  A    between atoms: C_5  and  N_12
REMARK    4  A    between atoms: C_6  and  O_10
REMARK    5  A    between atoms: O_10  and  C_11
REMARK    6  A    between atoms: C_13  and  C_15
REMARK    7  A    between atoms: C_17  and  N_29
REMARK    8  A    between atoms: C_20  and  C_26
REMARK                            x       y       z     vdW  Elec       q    Type
REMARK                         _______ _______ _______ _____ _____    ______ ____
ROOT
ATOM      1  C   UNL     1       2.744   2.485  -5.292  0.00  0.00    +0.183 C 
ATOM      2  C   UNL     1       1.968   3.773  -5.425  0.00  0.00    +0.033 C 
ATOM      3  C   UNL     1       2.677   4.957  -5.267  0.00  0.00    +0.024 C 
ATOM      4  C   UNL     1       2.147   6.279  -5.352  0.00  0.00    +0.032 C 
ATOM      5  C   UNL     1       2.992   7.359  -5.170  0.00  0.00    +0.127 C 
ATOM      6  C   UNL     1       4.416   7.135  -4.894  0.00  0.00    +0.275 C 
ATOM      7  O   UNL     1       5.165   8.086  -4.733  0.00  0.00    -0.268 OA
ATOM      8  N   UNL     1       4.889   5.888  -4.820  0.00  0.00    -0.169 NA
ATOM      9  C   UNL     1       4.113   4.844  -4.987  0.00  0.00    +0.100 C 
ATOM     10  S   UNL     1       4.442   3.095  -4.950  0.00  0.00    -0.089 S 
ENDROOT
BRANCH   1  12
ATOM     11  N   UNL     1       2.362   0.320  -4.158  0.00  0.00    -0.281 N 
ATOM     12  C   UNL     1       2.227   1.661  -4.141  0.00  0.00    +0.236 C 
ATOM     13  O   UNL     1       1.688   2.204  -3.199  0.00  0.00    -0.274 OA
ATOM     14  H   UNL     1       2.862  -0.108  -4.870  0.00  0.00    +0.155 HD
BRANCH  11  17
ATOM     15  C   UNL     1       0.107  -0.745  -1.448  0.00  0.00    +0.140 A 
ATOM     16  C   UNL     1       0.682   0.024  -2.448  0.00  0.00    +0.074 A 
ATOM     17  C   UNL     1       1.779  -0.456  -3.146  0.00  0.00    +0.079 A 
ATOM     18  C   UNL     1       2.302  -1.710  -2.841  0.00  0.00    +0.143 A 
ATOM     19  C   UNL     1       1.725  -2.475  -1.842  0.00  0.00    +0.071 A 
ATOM     20  C   UNL     1       0.633  -1.993  -1.143  0.00  0.00    +0.086 A 
ATOM     21 CL   UNL     1      -0.084  -2.951   0.114  0.00  0.00    -0.080 Cl
BRANCH  15  23
ATOM     22  C   UNL     1      -1.458   1.016  -1.129  0.00  0.00    +0.277 C 
ATOM     23  O   UNL     1      -0.969  -0.275  -0.762  0.00  0.00    -0.494 OA
ENDBRANCH  15  23
BRANCH  18  24
ATOM     24  O   UNL     1       3.379  -2.184  -3.525  0.00  0.00    -0.493 OA
ATOM     25  C   UNL     1       3.862  -3.478  -3.160  0.00  0.00    +0.277 C 
ENDBRANCH  18  24
ENDBRANCH  11  17
ENDBRANCH   1  12
BRANCH   5  26
ATOM     26  C   UNL     1       2.467   8.725  -5.254  0.00  0.00    +0.392 C 
ATOM     27  O   UNL     1       1.279   8.910  -5.485  0.00  0.00    -0.240 OA
ATOM     28  O   UNL     1       3.215   9.680  -5.093  0.00  0.00    -0.240 OA
ENDBRANCH   5  26
BRANCH   2  29
ATOM     29  N   UNL     1       0.652   3.773  -5.683  0.00  0.00    -0.359 N 
ATOM     30  H   UNL     1       0.178   2.934  -5.789  0.00  0.00    +0.142 HD
ATOM     31  H   UNL     1       0.174   4.614  -5.764  0.00  0.00    +0.142 HD
ENDBRANCH   2  29
TORSDOF 6
