REMARK  Name = ZINC44166575
REMARK  7 active torsions:
REMARK  status: ('A' for Active; 'I' for Inactive)
REMARK    1  A    between atoms: C_1  and  C_2
REMARK    2  A    between atoms: C_2  and  C_4
REMARK    3  A    between atoms: C_2  and  N_14
REMARK    4  A    between atoms: C_15  and  C_17
REMARK    5  A    between atoms: C_22  and  C_25
REMARK    6  A    between atoms: C_30  and  O_31
REMARK    7  A    between atoms: O_31  and  C_32
REMARK                            x       y       z     vdW  Elec       q    Type
REMARK                         _______ _______ _______ _____ _____    ______ ____
ROOT
ATOM      1  N   UNL     1       0.754  -0.619   1.099  0.00  0.00    -0.310 N 
ATOM      2  C   UNL     1       2.101  -0.643   1.062  0.00  0.00    +0.200 C 
ATOM      3  O   UNL     1       2.691  -0.156   0.121  0.00  0.00    -0.278 OA
ATOM      4  H   UNL     1       0.282  -1.009   1.851  0.00  0.00    +0.149 HD
ENDROOT
BRANCH   2   5
ATOM      5  C   UNL     1       2.874  -1.276   2.190  0.00  0.00    +0.027 C 
ATOM      6  C   UNL     1       2.548  -0.550   3.501  0.00  0.00    +0.062 C 
ATOM      7  S   UNL     1       3.444  -1.380   4.851  0.00  0.00    -0.163 S 
ATOM      8  C   UNL     1       5.141  -1.480   4.200  0.00  0.00    +0.058 C 
ATOM      9  C   UNL     1       5.079  -2.066   2.785  0.00  0.00    -0.026 C 
ATOM     10  N   UNL     1       4.308  -1.177   1.913  0.00  0.00    +0.392 N 
ATOM     11  H   UNL     1       4.477  -1.431   0.951  0.00  0.00    -0.084 HD
ATOM     12  H   UNL     1       4.609  -0.225   2.060  0.00  0.00    -0.084 HD
BRANCH   9  13
ATOM     13  C   UNL     1       6.477  -2.211   2.241  0.00  0.00    -0.019 A 
ATOM     14  C   UNL     1       7.019  -1.212   1.454  0.00  0.00    +0.005 A 
ATOM     15  C   UNL     1       8.302  -1.344   0.955  0.00  0.00    +0.000 A 
ATOM     16  C   UNL     1       9.045  -2.475   1.241  0.00  0.00    +0.004 A 
ATOM     17  C   UNL     1       8.508  -3.475   2.028  0.00  0.00    +0.046 A 
ATOM     18  C   UNL     1       7.223  -3.343   2.534  0.00  0.00    +0.122 A 
BRANCH  18  19
ATOM     19  O   UNL     1       6.694  -4.323   3.313  0.00  0.00    -0.495 OA
ATOM     20  C   UNL     1       7.519  -5.460   3.574  0.00  0.00    +0.277 C 
ENDBRANCH  18  19
ENDBRANCH   9  13
ENDBRANCH   2   5
BRANCH   1  22
ATOM     21  C   UNL     1      -0.150   1.495   0.266  0.00  0.00    +0.033 C 
ATOM     22  C   UNL     1       0.002  -0.004   0.002  0.00  0.00    +0.101 C 
BRANCH  22  23
ATOM     23  C   UNL     1      -1.362  -0.638  -0.090  0.00  0.00    -0.020 A 
ATOM     24  C   UNL     1      -1.935  -1.192   1.014  0.00  0.00    +0.006 A 
ATOM     25  C   UNL     1      -3.195  -1.783   0.948  0.00  0.00    +0.001 A 
ATOM     26  C   UNL     1      -3.889  -1.824  -0.222  0.00  0.00    +0.008 A 
ATOM     27  C   UNL     1      -3.330  -1.263  -1.382  0.00  0.00    -0.018 A 
ATOM     28  C   UNL     1      -2.051  -0.657  -1.314  0.00  0.00    -0.013 A 
ATOM     29  C   UNL     1      -1.495  -0.090  -2.474  0.00  0.00    +0.009 A 
ATOM     30  C   UNL     1      -2.192  -0.127  -3.642  0.00  0.00    +0.001 A 
ATOM     31  C   UNL     1      -3.452  -0.717  -3.708  0.00  0.00    +0.001 A 
ATOM     32  C   UNL     1      -4.017  -1.288  -2.608  0.00  0.00    +0.008 A 
ENDBRANCH  22  23
ENDBRANCH   1  22
TORSDOF 5
