REMARK  Name = ZINC41583095
REMARK  6 active torsions:
REMARK  status: ('A' for Active; 'I' for Inactive)
REMARK    1  A    between atoms: C_1  and  C_2
REMARK    2  A    between atoms: C_2  and  C_4
REMARK    3  A    between atoms: C_2  and  N_13
REMARK    4  A    between atoms: N_6  and  C_7
REMARK    5  A    between atoms: C_19  and  N_23
REMARK    6  A    between atoms: C_20  and  C_21
REMARK                            x       y       z     vdW  Elec       q    Type
REMARK                         _______ _______ _______ _____ _____    ______ ____
ROOT
ATOM      1  N   UNL     1       0.541  -0.646   1.209  0.00  0.00    +0.390 N 
ATOM      2  C   UNL     1       0.496  -2.103   1.032  0.00  0.00    -0.073 C 
ATOM      3  C   UNL     1       1.382  -2.790   2.078  0.00  0.00    +0.019 C 
ATOM      4  C   UNL     1       0.983  -2.260   3.448  0.00  0.00    -0.022 A 
ATOM      5  C   UNL     1       0.261  -1.122   3.553  0.00  0.00    -0.021 A 
ATOM      6  S   UNL     1       0.032  -0.897   5.291  0.00  0.00    -0.079 S 
ATOM      7  C   UNL     1       0.855  -2.244   5.866  0.00  0.00    +0.081 A 
ATOM      8  C   UNL     1       1.311  -2.878   4.719  0.00  0.00    +0.083 A 
ATOM      9  C   UNL     1      -0.214  -0.270   2.419  0.00  0.00    -0.034 C 
ATOM     10  H   UNL     1       1.500  -0.349   1.306  0.00  0.00    -0.080 HD
ENDROOT
BRANCH   7  11
ATOM     11  N   UNL     1       1.036  -2.632   7.181  0.00  0.00    -0.352 N 
ATOM     12  H   UNL     1       0.664  -2.098   7.901  0.00  0.00    +0.143 HD
ATOM     13  H   UNL     1       1.535  -3.439   7.385  0.00  0.00    +0.143 HD
ENDBRANCH   7  11
BRANCH   1  15
ATOM     14  C   UNL     1      -0.135   1.516   0.278  0.00  0.00    -0.004 C 
ATOM     15  C   UNL     1      -0.057   0.007   0.037  0.00  0.00    +0.017 C 
BRANCH  15  16
ATOM     16  C   UNL     1       0.794  -0.264  -1.177  0.00  0.00    +0.203 C 
ATOM     17  O   UNL     1       1.906  -0.730  -1.047  0.00  0.00    -0.277 OA
ATOM     18  N   UNL     1       0.318   0.011  -2.408  0.00  0.00    -0.287 N 
ATOM     19  H   UNL     1      -0.539   0.452  -2.509  0.00  0.00    +0.155 HD
BRANCH  18  20
ATOM     20  C   UNL     1       1.062  -0.341  -3.540  0.00  0.00    +0.033 A 
ATOM     21  C   UNL     1       0.414  -0.754  -4.697  0.00  0.00    +0.023 A 
ATOM     22  C   UNL     1       1.151  -1.101  -5.812  0.00  0.00    +0.002 A 
ATOM     23  C   UNL     1       2.532  -1.037  -5.778  0.00  0.00    +0.000 A 
ATOM     24  C   UNL     1       3.180  -0.626  -4.628  0.00  0.00    +0.002 A 
ATOM     25  C   UNL     1       2.449  -0.273  -3.510  0.00  0.00    +0.023 A 
ENDBRANCH  18  20
ENDBRANCH  15  16
ENDBRANCH   1  15
BRANCH   8  26
ATOM     26  C   UNL     1       2.072  -4.089   4.787  0.00  0.00    +0.102 C 
ATOM     27  N   UNL     1       2.675  -5.050   4.841  0.00  0.00    -0.191 NA
ENDBRANCH   8  26
TORSDOF 5
