REMARK  Name = ZINC05945448
REMARK  6 active torsions:
REMARK  status: ('A' for Active; 'I' for Inactive)
REMARK    1  A    between atoms: C_1  and  C_2
REMARK    2  A    between atoms: C_2  and  C_33
REMARK    3  A    between atoms: N_16  and  C_19
REMARK    4  A    between atoms: C_20  and  C_31
REMARK    5  A    between atoms: C_21  and  N_30
REMARK    6  A    between atoms: N_22  and  C_23
REMARK                            x       y       z     vdW  Elec       q    Type
REMARK                         _______ _______ _______ _____ _____    ______ ____
ROOT
ATOM      1  C   UNL     1       1.321  -0.073  -2.235  0.00  0.00    +0.011 C 
ATOM      2  C   UNL     1       0.810  -1.378  -1.621  0.00  0.00    -0.023 C 
ATOM      3  C   UNL     1      -0.621  -1.183  -1.114  0.00  0.00    +0.058 C 
ATOM      4  C   UNL     1      -1.106  -2.454  -0.462  0.00  0.00    +0.026 C 
ATOM      5  C   UNL     1      -0.245  -3.291   0.156  0.00  0.00    +0.037 C 
ATOM      6  C   UNL     1       1.130  -3.005   0.212  0.00  0.00    +0.163 C 
ATOM      7  O   UNL     1       1.875  -3.770   0.792  0.00  0.00    -0.292 OA
ATOM      8  C   UNL     1       1.696  -1.769  -0.433  0.00  0.00    +0.086 C 
ATOM      9  C   UNL     1      -0.735  -4.561   0.802  0.00  0.00    +0.141 C 
ATOM     10  C   UNL     1      -0.350  -5.752  -0.021  0.00  0.00    -0.001 A 
ATOM     11  C   UNL     1      -0.692  -6.124  -1.304  0.00  0.00    +0.007 A 
ATOM     12  C   UNL     1      -0.152  -7.314  -1.780  0.00  0.00    +0.000 A 
ATOM     13  C   UNL     1       0.687  -8.085  -1.002  0.00  0.00    +0.002 A 
ATOM     14  C   UNL     1       1.036  -7.717   0.288  0.00  0.00    +0.024 A 
ATOM     15  C   UNL     1       0.500  -6.525   0.778  0.00  0.00    +0.041 A 
ATOM     16  N   UNL     1       0.675  -5.926   2.013  0.00  0.00    -0.273 N 
ATOM     17  C   UNL     1      -0.012  -4.770   2.117  0.00  0.00    +0.240 C 
ATOM     18  O   UNL     1      -0.045  -4.036   3.082  0.00  0.00    -0.274 OA
ATOM     19  C   UNL     1       1.509  -6.482   3.082  0.00  0.00    +0.138 C 
ATOM     20  C   UNL     1      -2.216  -4.526   1.033  0.00  0.00    +0.089 C 
ATOM     21  C   UNL     1      -3.004  -3.633   0.379  0.00  0.00    +0.108 C 
ATOM     22  N   UNL     1      -2.446  -2.738  -0.506  0.00  0.00    -0.260 N 
ATOM     23  C   UNL     1       0.841  -2.488  -2.673  0.00  0.00    +0.011 C 
ENDROOT
BRANCH  22  24
ATOM     24  C   UNL     1      -3.256  -2.112  -1.462  0.00  0.00    +0.040 A 
ATOM     25  C   UNL     1      -3.439  -2.697  -2.708  0.00  0.00    +0.025 A 
ATOM     26  C   UNL     1      -4.239  -2.078  -3.649  0.00  0.00    +0.022 A 
ATOM     27  C   UNL     1      -4.857  -0.876  -3.350  0.00  0.00    +0.041 A 
ATOM     28  C   UNL     1      -4.675  -0.291  -2.109  0.00  0.00    +0.022 A 
ATOM     29  C   UNL     1      -3.881  -0.909  -1.163  0.00  0.00    +0.025 A 
ATOM     30 CL   UNL     1      -5.861  -0.100  -4.535  0.00  0.00    -0.084 Cl
ENDBRANCH  22  24
BRANCH  21  31
ATOM     31  N   UNL     1      -4.360  -3.622   0.601  0.00  0.00    -0.345 N 
ATOM     32  H   UNL     1      -4.766  -4.307   1.155  0.00  0.00    +0.144 HD
ATOM     33  H   UNL     1      -4.912  -2.930   0.204  0.00  0.00    +0.144 HD
ENDBRANCH  21  31
BRANCH  20  34
ATOM     34  C   UNL     1      -2.808  -5.447   1.955  0.00  0.00    +0.100 C 
ATOM     35  N   UNL     1      -3.279  -6.178   2.687  0.00  0.00    -0.191 NA
ENDBRANCH  20  34
TORSDOF 3
