REMARK  Name = ZINC60343505
REMARK  11 active torsions:
REMARK  status: ('A' for Active; 'I' for Inactive)
REMARK    1  A    between atoms: C_1  and  C_2
REMARK    2  A    between atoms: C_5  and  C_10
REMARK    3  A    between atoms: C_6  and  O_9
REMARK    4  A    between atoms: C_7  and  O_8
REMARK    5  A    between atoms: C_10  and  O_12
REMARK    6  A    between atoms: O_12  and  C_13
REMARK    7  A    between atoms: C_13  and  C_15
REMARK    8  A    between atoms: C_13  and  C_16
REMARK    9  A    between atoms: N_18  and  C_19
REMARK   10  A    between atoms: C_23  and  S_25
REMARK   11  A    between atoms: S_25  and  N_28
REMARK                            x       y       z     vdW  Elec       q    Type
REMARK                         _______ _______ _______ _____ _____    ______ ____
ROOT
ATOM      1  C   UNL     1       0.089  -6.342  -1.153  0.00  0.00    +0.259 C 
ATOM      2  C   UNL     1      -1.345  -6.874  -1.115  0.00  0.00    +0.062 C 
ENDROOT
BRANCH   1   3
ATOM      3  C   UNL     1       0.793  -6.885  -2.370  0.00  0.00    +0.258 C 
ATOM      4  O   UNL     1       1.232  -6.124  -3.206  0.00  0.00    -0.271 OA
ATOM      5  N   UNL     1       0.935  -8.215  -2.529  0.00  0.00    -0.282 N 
ATOM      6  H   UNL     1       0.645  -8.821  -1.830  0.00  0.00    +0.155 HD
BRANCH   5   7
ATOM      7  C   UNL     1       1.502  -8.723  -3.703  0.00  0.00    +0.035 A 
ATOM      8  C   UNL     1       1.043  -9.921  -4.237  0.00  0.00    +0.023 A 
ATOM      9  C   UNL     1       1.605 -10.419  -5.396  0.00  0.00    +0.004 A 
ATOM     10  C   UNL     1       2.624  -9.727  -6.025  0.00  0.00    +0.028 A 
ATOM     11  C   UNL     1       3.083  -8.535  -5.497  0.00  0.00    +0.107 A 
ATOM     12  C   UNL     1       2.521  -8.028  -4.341  0.00  0.00    +0.051 A 
BRANCH  11  13
ATOM     13  S   UNL     1       4.382  -7.658  -6.302  0.00  0.00    +0.056 S 
ATOM     14  O   UNL     1       5.002  -6.850  -5.311  0.00  0.00    -0.153 OA
ATOM     15  O   UNL     1       5.104  -8.614  -7.066  0.00  0.00    -0.153 OA
BRANCH  13  16
ATOM     16  N   UNL     1       3.676  -6.622  -7.384  0.00  0.00    -0.204 NA
ATOM     17  H   UNL     1       4.109  -5.784  -7.606  0.00  0.00    +0.144 HD
ATOM     18  H   UNL     1       2.829  -6.855  -7.796  0.00  0.00    +0.144 HD
ENDBRANCH  13  16
ENDBRANCH  11  13
ENDBRANCH   5   7
ENDBRANCH   1   3
BRANCH   1  19
ATOM     19  O   UNL     1       0.066  -4.914  -1.213  0.00  0.00    -0.449 OA
BRANCH  19  20
ATOM     20  C   UNL     1       0.070  -4.253  -0.040  0.00  0.00    +0.344 C 
ATOM     21  O   UNL     1       0.092  -4.871   1.006  0.00  0.00    -0.245 OA
BRANCH  20  26
ATOM     22  C   UNL     1      -0.021   1.504   0.004  0.00  0.00    +0.047 C 
ATOM     23  C   UNL     1       0.003  -0.003  -0.002  0.00  0.00    -0.005 A 
ATOM     24  C   UNL     1      -0.001  -0.687  -1.207  0.00  0.00    +0.008 A 
ATOM     25  C   UNL     1       0.021  -2.064  -1.226  0.00  0.00    +0.019 A 
ATOM     26  C   UNL     1       0.047  -2.779  -0.024  0.00  0.00    +0.104 A 
ATOM     27  C   UNL     1       0.050  -2.088   1.194  0.00  0.00    +0.173 A 
ATOM     28  C   UNL     1       0.033  -0.696   1.196  0.00  0.00    +0.162 A 
BRANCH  28  29
ATOM     29  O   UNL     1       0.042  -0.017   2.374  0.00  0.00    -0.503 OA
ATOM     30  H   UNL     1      -0.839   0.165   2.729  0.00  0.00    +0.292 HD
ENDBRANCH  28  29
BRANCH  27  31
ATOM     31  O   UNL     1       0.075  -2.771   2.366  0.00  0.00    -0.503 OA
ATOM     32  H   UNL     1       0.965  -2.955   2.696  0.00  0.00    +0.292 HD
ENDBRANCH  27  31
ENDBRANCH  20  26
ENDBRANCH  19  20
ENDBRANCH   1  19
TORSDOF 9
