REMARK  Name = ZINC35294256
REMARK  4 active torsions:
REMARK  status: ('A' for Active; 'I' for Inactive)
REMARK    1  A    between atoms: C_1  and  C_2
REMARK    2  A    between atoms: C_2  and  C_12
REMARK    3  A    between atoms: N_7  and  C_8
REMARK    4  A    between atoms: C_8  and  C_9
REMARK                            x       y       z     vdW  Elec       q    Type
REMARK                         _______ _______ _______ _____ _____    ______ ____
ROOT
ATOM      1  C   UNL     1      -0.019   1.526   0.010  0.00  0.00    +0.034 C 
ATOM      2  C   UNL     1       0.002  -0.004   0.002  0.00  0.00    +0.044 C 
ATOM      3  C   UNL     1       0.661  -0.498  -1.315  0.00  0.00    +0.104 C 
ATOM      4  S   UNL     1       1.540  -1.971  -0.639  0.00  0.00    -0.090 S 
ATOM      5  C   UNL     1       1.563  -1.479   1.077  0.00  0.00    +0.129 C 
ATOM      6  N   UNL     1       0.735  -0.477   1.162  0.00  0.00    -0.362 N 
ATOM      7  N   UNL     1       2.300  -2.039   2.094  0.00  0.00    -0.317 N 
ATOM      8  C   UNL     1      -1.435  -0.526   0.069  0.00  0.00    +0.034 C 
ATOM      9  H   UNL     1       2.231  -1.685   2.994  0.00  0.00    +0.148 HD
ATOM     10  H   UNL     1       0.606  -0.038   2.018  0.00  0.00    +0.162 HD
ENDROOT
BRANCH   7  11
ATOM     11  C   UNL     1       3.189  -3.170   1.817  0.00  0.00    +0.199 C 
BRANCH  11  12
ATOM     12  C   UNL     1       3.876  -3.593   3.090  0.00  0.00    +0.228 C 
ATOM     13  O   UNL     1       3.645  -3.007   4.127  0.00  0.00    -0.274 OA
ATOM     14  N   UNL     1       4.746  -4.622   3.077  0.00  0.00    -0.328 N 
ATOM     15  H   UNL     1       4.931  -5.090   2.248  0.00  0.00    +0.145 HD
ATOM     16  H   UNL     1       5.188  -4.894   3.897  0.00  0.00    +0.145 HD
ENDBRANCH  11  12
ENDBRANCH   7  11
TORSDOF 2
