REMARK  Name = ZINC61811500
REMARK  3 active torsions:
REMARK  status: ('A' for Active; 'I' for Inactive)
REMARK    1  A    between atoms: C_4  and  C_14
REMARK    2  A    between atoms: C_6  and  N_7
REMARK    3  A    between atoms: C_14  and  N_15
REMARK                            x       y       z     vdW  Elec       q    Type
REMARK                         _______ _______ _______ _____ _____    ______ ____
ROOT
ATOM      1  C   UNL     1      -0.017   1.390  -0.004  0.00  0.00    +0.040 A 
ATOM      2  C   UNL     1       1.179   2.077  -0.012  0.00  0.00    +0.084 A 
ATOM      3  N   UNL     1       2.330   1.431  -0.013  0.00  0.00    -0.363 N 
ATOM      4  C   UNL     1       2.390   0.112  -0.006  0.00  0.00    +0.031 A 
ATOM      5  C   UNL     1       1.240  -0.648   0.001  0.00  0.00    +0.045 A 
ATOM      6  C   UNL     1       0.002  -0.004   0.002  0.00  0.00    +0.033 A 
ATOM      7  H   UNL     1       3.156   1.940  -0.018  0.00  0.00    +0.165 HD
ENDROOT
BRANCH   6   8
ATOM      8  N   UNL     1      -1.183  -0.734   0.010  0.00  0.00    -0.320 N 
ATOM      9  C   UNL     1      -2.491  -0.070   0.130  0.00  0.00    +0.124 C 
ATOM     10  C   UNL     1      -3.299  -0.375  -1.133  0.00  0.00    +0.123 C 
ATOM     11  N   UNL     1      -3.233  -1.793  -1.459  0.00  0.00    -0.313 N 
ATOM     12  C   UNL     1      -2.272  -2.620  -1.045  0.00  0.00    +0.230 C 
ATOM     13  O   UNL     1      -2.281  -3.764  -1.448  0.00  0.00    -0.274 OA
ATOM     14  C   UNL     1      -1.179  -2.200  -0.107  0.00  0.00    +0.200 C 
ATOM     15  H   UNL     1      -3.936  -2.161  -2.016  0.00  0.00    +0.149 HD
ENDBRANCH   6   8
BRANCH   4  16
ATOM     16  C   UNL     1       3.733  -0.572  -0.008  0.00  0.00    +0.131 C 
BRANCH  16  17
ATOM     17  N   UNL     1       4.229  -0.680   1.370  0.00  0.00    -0.325 NA
ATOM     18  H   UNL     1       3.564  -1.160   1.957  0.00  0.00    +0.119 HD
ATOM     19  H   UNL     1       5.129  -1.135   1.396  0.00  0.00    +0.119 HD
ENDBRANCH  16  17
ENDBRANCH   4  16
TORSDOF 3
