REMARK  Name = ZINC23452425
REMARK  9 active torsions:
REMARK  status: ('A' for Active; 'I' for Inactive)
REMARK    1  A    between atoms: C_4  and  C_7
REMARK    2  A    between atoms: C_7  and  C_9
REMARK    3  A    between atoms: C_7  and  O_17
REMARK    4  A    between atoms: O_17  and  C_18
REMARK    5  A    between atoms: C_18  and  C_19
REMARK    6  A    between atoms: C_19  and  N_20
REMARK    7  A    between atoms: N_23  and  S_26
REMARK    8  A    between atoms: S_26  and  C_29
REMARK    9  A    between atoms: C_33  and  N_35
REMARK                            x       y       z     vdW  Elec       q    Type
REMARK                         _______ _______ _______ _____ _____    ______ ____
ROOT
ATOM      1  N   UNL     1       1.341   2.067  -0.123  0.00  0.00    +0.383 N 
ATOM      2  C   UNL     1       1.397   3.464   0.327  0.00  0.00    -0.061 C 
ATOM      3  C   UNL     1       2.856   3.933   0.344  0.00  0.00    +0.091 C 
ATOM      4  N   UNL     1       3.443   3.682  -0.982  0.00  0.00    -0.180 NA
ATOM      5  C   UNL     1       3.305   2.337  -1.560  0.00  0.00    +0.091 C 
ATOM      6  C   UNL     1       1.829   1.931  -1.502  0.00  0.00    -0.061 C 
ATOM      7  H   UNL     1       2.005   1.479   0.527  0.00  0.00    -0.082 HD
ENDROOT
BRANCH   4   8
ATOM      8  S   UNL     1       4.237   4.882  -1.801  0.00  0.00    +0.061 S 
ATOM      9  O   UNL     1       4.684   5.813  -0.825  0.00  0.00    -0.153 OA
ATOM     10  O   UNL     1       5.126   4.238  -2.703  0.00  0.00    -0.153 OA
BRANCH   8  11
ATOM     11  C   UNL     1       3.040   5.720  -2.786  0.00  0.00    +0.108 A 
ATOM     12  C   UNL     1       2.788   5.295  -4.077  0.00  0.00    +0.028 A 
ATOM     13  C   UNL     1       1.846   5.950  -4.848  0.00  0.00    +0.004 A 
ATOM     14  C   UNL     1       1.163   7.036  -4.332  0.00  0.00    +0.033 A 
ATOM     15  C   UNL     1       1.419   7.464  -3.042  0.00  0.00    +0.128 A 
ATOM     16  C   UNL     1       2.358   6.806  -2.270  0.00  0.00    +0.061 A 
BRANCH  15  17
ATOM     17  N   UNL     1       0.689   8.626  -2.490  0.00  0.00    +0.056 N 
ATOM     18  O   UNL     1       0.915   9.003  -1.354  0.00  0.00    -0.126 OA
ATOM     19  O   UNL     1      -0.139   9.205  -3.170  0.00  0.00    -0.126 OA
ENDBRANCH  15  17
ENDBRANCH   8  11
ENDBRANCH   4   8
BRANCH   1  20
ATOM     20  C   UNL     1      -0.019   1.526   0.010  0.00  0.00    -0.050 C 
BRANCH  20  21
ATOM     21  C   UNL     1       0.040  -0.003   0.026  0.00  0.00    +0.142 C 
BRANCH  21  22
ATOM     22  O   UNL     1       0.737  -0.441   1.194  0.00  0.00    -0.369 OA
BRANCH  22  23
ATOM     23  C   UNL     1       0.848  -1.861   1.306  0.00  0.00    +0.178 C 
BRANCH  23  24
ATOM     24  C   UNL     1       0.888  -2.249   2.762  0.00  0.00    -0.012 A 
ATOM     25  C   UNL     1       1.523  -1.431   3.677  0.00  0.00    +0.009 A 
ATOM     26  C   UNL     1       1.556  -1.782   5.013  0.00  0.00    +0.041 A 
ATOM     27  C   UNL     1       0.962  -2.959   5.435  0.00  0.00    +0.158 A 
ATOM     28  C   UNL     1       0.329  -3.782   4.516  0.00  0.00    +0.159 A 
ATOM     29  C   UNL     1       0.293  -3.425   3.179  0.00  0.00    +0.047 A 
ATOM     30  F   UNL     1      -0.252  -4.931   4.925  0.00  0.00    -0.202 F 
ATOM     31  F   UNL     1       0.999  -3.306   6.740  0.00  0.00    -0.202 F 
ENDBRANCH  23  24
BRANCH  23  35
ATOM     32  C   UNL     1       4.436  -3.163  -0.613  0.00  0.00    +0.000 A 
ATOM     33  C   UNL     1       3.276  -3.902  -0.742  0.00  0.00    +0.000 A 
ATOM     34  C   UNL     1       2.115  -3.481  -0.121  0.00  0.00    +0.006 A 
ATOM     35  C   UNL     1       2.114  -2.321   0.629  0.00  0.00    -0.015 A 
ATOM     36  C   UNL     1       3.273  -1.578   0.755  0.00  0.00    +0.006 A 
ATOM     37  C   UNL     1       4.436  -2.002   0.138  0.00  0.00    +0.000 A 
ENDBRANCH  23  35
ENDBRANCH  22  23
ENDBRANCH  21  22
ENDBRANCH  20  21
ENDBRANCH   1  20
TORSDOF 9
