REMARK  Name = ZINC08869115
REMARK  5 active torsions:
REMARK  status: ('A' for Active; 'I' for Inactive)
REMARK    1  A    between atoms: C_4  and  C_7
REMARK    2  A    between atoms: C_7  and  C_8
REMARK    3  A    between atoms: C_9  and  C_27
REMARK    4  A    between atoms: C_9  and  C_31
REMARK    5  A    between atoms: N_17  and  C_20
REMARK                            x       y       z     vdW  Elec       q    Type
REMARK                         _______ _______ _______ _____ _____    ______ ____
ROOT
ATOM      1  C   UNL     1       1.073   5.651   1.236  0.00  0.00    +0.079 C 
ATOM      2  C   UNL     1       2.208   3.538   0.978  0.00  0.00    +0.264 C 
ATOM      3  C   UNL     1       0.954   3.076   0.293  0.00  0.00    +0.098 A 
ATOM      4  C   UNL     1       0.915   1.833  -0.360  0.00  0.00    +0.262 A 
ATOM      5  O   UNL     1       1.903   1.119  -0.382  0.00  0.00    -0.267 OA
ATOM      6  N   UNL     1      -0.224   1.435  -0.962  0.00  0.00    -0.274 N 
ATOM      7  H   UNL     1      -0.256   0.550  -1.425  0.00  0.00    +0.173 HD
ATOM      8  C   UNL     1      -1.318   2.219  -0.945  0.00  0.00    +0.335 A 
ATOM      9  O   UNL     1      -2.334   1.840  -1.497  0.00  0.00    -0.246 OA
ATOM     10  N   UNL     1      -1.307   3.412  -0.323  0.00  0.00    -0.250 N 
ATOM     11  C   UNL     1      -0.165   3.856   0.299  0.00  0.00    +0.124 A 
ATOM     12  N   UNL     1      -0.136   5.079   0.927  0.00  0.00    -0.290 N 
ATOM     13  H   UNL     1      -0.963   5.534   1.150  0.00  0.00    +0.155 HD
ATOM     14  N   UNL     1       2.236   5.012   1.283  0.00  0.00    -0.352 N 
ATOM     15  H   UNL     1       3.110   5.499   1.516  0.00  0.00    +0.162 HD
ENDROOT
BRANCH  10  16
ATOM     16  C   UNL     1      -2.462   4.207  -0.313  0.00  0.00    +0.053 A 
ATOM     17  C   UNL     1      -3.399   4.061   0.701  0.00  0.00    +0.029 A 
ATOM     18  C   UNL     1      -4.533   4.848   0.711  0.00  0.00    +0.040 A 
ATOM     19  C   UNL     1      -4.742   5.776  -0.296  0.00  0.00    +0.124 A 
ATOM     20  C   UNL     1      -3.812   5.920  -1.311  0.00  0.00    +0.040 A 
ATOM     21  C   UNL     1      -2.673   5.138  -1.322  0.00  0.00    +0.029 A 
ATOM     22  F   UNL     1      -5.855   6.541  -0.287  0.00  0.00    -0.205 F 
ENDBRANCH  10  16
BRANCH   2  23
ATOM     23  C   UNL     1       2.373   2.771   2.292  0.00  0.00    +0.426 C 
ATOM     24  F   UNL     1       2.461   1.401   2.024  0.00  0.00    -0.167 F 
ATOM     25  F   UNL     1       3.540   3.195   2.936  0.00  0.00    -0.167 F 
ATOM     26  F   UNL     1       1.270   3.015   3.117  0.00  0.00    -0.167 F 
ENDBRANCH   2  23
BRANCH   2  27
ATOM     27  C   UNL     1       3.409   3.247   0.075  0.00  0.00    +0.426 C 
ATOM     28  F   UNL     1       3.108   3.628  -1.237  0.00  0.00    -0.167 F 
ATOM     29  F   UNL     1       4.518   3.970   0.528  0.00  0.00    -0.167 F 
ATOM     30  F   UNL     1       3.698   1.879   0.110  0.00  0.00    -0.167 F 
ENDBRANCH   2  27
BRANCH   1  31
ATOM     31  C   UNL     1       1.128   7.123   1.554  0.00  0.00    +0.104 C 
BRANCH  31  35
ATOM     32  C   UNL     1       5.158   8.245   2.419  0.00  0.00    +0.000 A 
ATOM     33  C   UNL     1       4.687   8.307   1.121  0.00  0.00    +0.000 A 
ATOM     34  C   UNL     1       3.383   7.944   0.841  0.00  0.00    +0.004 A 
ATOM     35  C   UNL     1       2.550   7.519   1.859  0.00  0.00    -0.040 A 
ATOM     36  C   UNL     1       3.019   7.463   3.158  0.00  0.00    +0.004 A 
ATOM     37  C   UNL     1       4.325   7.821   3.437  0.00  0.00    +0.000 A 
ENDBRANCH  31  35
ENDBRANCH   1  31
TORSDOF 5
