REMARK  Name = ZINC35354184
REMARK  5 active torsions:
REMARK  status: ('A' for Active; 'I' for Inactive)
REMARK    1  A    between atoms: C_3  and  S_9
REMARK    2  A    between atoms: C_6  and  N_7
REMARK    3  A    between atoms: N_7  and  N_8
REMARK    4  A    between atoms: S_9  and  N_12
REMARK    5  A    between atoms: N_12  and  C_13
REMARK                            x       y       z     vdW  Elec       q    Type
REMARK                         _______ _______ _______ _____ _____    ______ ____
ROOT
ATOM      1  S   UNL     1       3.998   2.321  -0.051  0.00  0.00    +0.072 S 
ATOM      2  O   UNL     1       5.045   1.507  -0.561  0.00  0.00    -0.150 OA
ATOM      3  O   UNL     1       3.688   3.595  -0.597  0.00  0.00    -0.150 OA
ENDROOT
BRANCH   1   6
ATOM      4  C   UNL     1       0.136   1.240  -0.269  0.00  0.00    +0.026 A 
ATOM      5  C   UNL     1       1.293   1.990  -0.196  0.00  0.00    +0.030 A 
ATOM      6  C   UNL     1       2.524   1.361  -0.143  0.00  0.00    +0.109 A 
ATOM      7  C   UNL     1       2.600  -0.020  -0.162  0.00  0.00    +0.030 A 
ATOM      8  C   UNL     1       1.446  -0.775  -0.235  0.00  0.00    +0.026 A 
ATOM      9  C   UNL     1       0.208  -0.147  -0.289  0.00  0.00    +0.041 A 
BRANCH   9  10
ATOM     10  N   UNL     1      -0.960  -0.908  -0.362  0.00  0.00    -0.283 N 
ATOM     11  H   UNL     1      -1.824  -0.468  -0.400  0.00  0.00    +0.166 HD
BRANCH  10  12
ATOM     12  N   UNL     1      -0.887  -2.272  -0.381  0.00  0.00    -0.257 NA
ATOM     13  H   UNL     1      -0.384  -2.618   0.421  0.00  0.00    +0.140 HD
ATOM     14  H   UNL     1      -1.807  -2.683  -0.436  0.00  0.00    +0.140 HD
ENDBRANCH  10  12
ENDBRANCH   9  10
ENDBRANCH   1   6
BRANCH   1  15
ATOM     15  N   UNL     1       4.326   2.562   1.555  0.00  0.00    -0.213 N 
ATOM     16  H   UNL     1       4.361   3.463   1.913  0.00  0.00    +0.174 HD
BRANCH  15  17
ATOM     17  C   UNL     1       4.554   1.466   2.394  0.00  0.00    +0.083 A 
ATOM     18  C   UNL     1       5.218   0.346   1.912  0.00  0.00    +0.028 A 
ATOM     19  C   UNL     1       5.441  -0.734   2.743  0.00  0.00    +0.017 A 
ATOM     20  C   UNL     1       5.004  -0.703   4.055  0.00  0.00    +0.021 A 
ATOM     21  C   UNL     1       4.341   0.411   4.540  0.00  0.00    +0.055 A 
ATOM     22  C   UNL     1       4.120   1.499   3.715  0.00  0.00    +0.147 A 
ATOM     23  F   UNL     1       3.479   2.589   4.190  0.00  0.00    -0.203 F 
ATOM     24 BR   UNL     1       5.312  -2.185   5.189  0.00  0.00    -0.050 Br
ENDBRANCH  15  17
ENDBRANCH   1  15
TORSDOF 5
