REMARK  Name = ZINC05158570
REMARK  11 active torsions:
REMARK  status: ('A' for Active; 'I' for Inactive)
REMARK    1  A    between atoms: C_1  and  O_2
REMARK    2  A    between atoms: O_2  and  C_3
REMARK    3  A    between atoms: C_3  and  C_5
REMARK    4  A    between atoms: C_8  and  O_11
REMARK    5  A    between atoms: O_11  and  C_12
REMARK    6  A    between atoms: C_17  and  C_18
REMARK    7  A    between atoms: C_21  and  O_25
REMARK    8  A    between atoms: C_23  and  O_24
REMARK    9  A    between atoms: O_25  and  C_26
REMARK   10  A    between atoms: C_26  and  C_27
REMARK   11  A    between atoms: N_29  and  N_30
REMARK                            x       y       z     vdW  Elec       q    Type
REMARK                         _______ _______ _______ _____ _____    ______ ____
ROOT
ATOM      1  C   UNL     1       1.564  -6.777   2.260  0.00  0.00    +0.173 A 
ATOM      2  C   UNL     1       2.158  -6.124   3.287  0.00  0.00    +0.151 A 
ATOM      3  N   UNL     1       2.771  -7.050   4.070  0.00  0.00    -0.280 N 
ATOM      4  H   UNL     1       3.276  -6.869   4.878  0.00  0.00    +0.188 HD
ATOM      5  N   UNL     1       2.546  -8.313   3.507  0.00  0.00    -0.170 NA
ATOM      6  C   UNL     1       1.816  -8.156   2.422  0.00  0.00    +0.138 A 
ENDROOT
BRANCH   6   7
ATOM      7  C   UNL     1       1.345  -9.240   1.526  0.00  0.00    +0.047 A 
ATOM      8  C   UNL     1       0.584  -8.933   0.400  0.00  0.00    +0.017 A 
ATOM      9  C   UNL     1       0.148  -9.942  -0.433  0.00  0.00    +0.046 A 
ATOM     10  C   UNL     1       0.465 -11.265  -0.153  0.00  0.00    +0.125 A 
ATOM     11  C   UNL     1       1.223 -11.578   0.966  0.00  0.00    +0.091 A 
ATOM     12  C   UNL     1       1.669 -10.571   1.804  0.00  0.00    +0.130 A 
BRANCH  12  13
ATOM     13  O   UNL     1       2.416 -10.876   2.898  0.00  0.00    -0.506 OA
ATOM     14  H   UNL     1       1.895 -11.043   3.696  0.00  0.00    +0.292 HD
ENDBRANCH  12  13
BRANCH  10  15
ATOM     15  O   UNL     1       0.032 -12.255  -0.977  0.00  0.00    -0.483 OA
BRANCH  15  16
ATOM     16  C   UNL     1      -0.744 -11.862  -2.110  0.00  0.00    +0.325 C 
BRANCH  16  17
ATOM     17  C   UNL     1      -1.132 -13.085  -2.901  0.00  0.00    +0.264 C 
ATOM     18  O   UNL     1      -0.779 -14.184  -2.531  0.00  0.00    -0.271 OA
ATOM     19  N   UNL     1      -1.872 -12.956  -4.021  0.00  0.00    -0.251 N 
ATOM     20  H   UNL     1      -2.154 -12.077  -4.317  0.00  0.00    +0.169 HD
BRANCH  19  21
ATOM     21  N   UNL     1      -2.224 -14.065  -4.738  0.00  0.00    -0.254 NA
ATOM     22  H   UNL     1      -2.715 -14.729  -4.159  0.00  0.00    +0.140 HD
ATOM     23  H   UNL     1      -2.773 -13.813  -5.546  0.00  0.00    +0.140 HD
ENDBRANCH  19  21
ENDBRANCH  16  17
ENDBRANCH  15  16
ENDBRANCH  10  15
ENDBRANCH   6   7
BRANCH   1  24
ATOM     24  O   UNL     1       0.845  -6.206   1.254  0.00  0.00    -0.452 OA
BRANCH  24  28
ATOM     25  C   UNL     1       0.719  -2.085   1.060  0.00  0.00    +0.059 A 
ATOM     26  C   UNL     1       1.907  -2.764   0.775  0.00  0.00    +0.018 A 
ATOM     27  C   UNL     1       1.946  -4.139   0.842  0.00  0.00    +0.047 A 
ATOM     28  C   UNL     1       0.804  -4.852   1.191  0.00  0.00    +0.129 A 
ATOM     29  C   UNL     1      -0.380  -4.180   1.474  0.00  0.00    +0.047 A 
ATOM     30  C   UNL     1      -0.425  -2.806   1.416  0.00  0.00    +0.018 A 
BRANCH  25  31
ATOM     31  C   UNL     1       0.673  -0.613   0.990  0.00  0.00    +0.339 C 
ATOM     32  O   UNL     1      -0.359  -0.025   1.243  0.00  0.00    -0.245 OA
BRANCH  31  34
ATOM     33  C   UNL     1       1.661   1.503   0.600  0.00  0.00    +0.280 C 
ATOM     34  O   UNL     1       1.777   0.079   0.647  0.00  0.00    -0.464 OA
ENDBRANCH  31  34
ENDBRANCH  25  31
ENDBRANCH  24  28
ENDBRANCH   1  24
TORSDOF 10
