REMARK  Name = ZINC27351499
REMARK  11 active torsions:
REMARK  status: ('A' for Active; 'I' for Inactive)
REMARK    1  A    between atoms: C_1  and  N_2
REMARK    2  A    between atoms: N_2  and  C_3
REMARK    3  A    between atoms: N_2  and  C_12
REMARK    4  A    between atoms: C_3  and  C_4
REMARK    5  A    between atoms: C_7  and  S_10
REMARK    6  A    between atoms: S_10  and  C_11
REMARK    7  A    between atoms: C_12  and  C_13
REMARK    8  A    between atoms: N_15  and  C_16
REMARK    9  A    between atoms: N_15  and  C_21
REMARK   10  A    between atoms: C_16  and  C_17
REMARK   11  A    between atoms: C_17  and  C_18
REMARK                            x       y       z     vdW  Elec       q    Type
REMARK                         _______ _______ _______ _____ _____    ______ ____
ROOT
ATOM      1  C   UNL     1      -0.975   1.464  -3.636  0.00  0.00    +0.203 C 
ATOM      2  O   UNL     1      -1.815   2.334  -3.543  0.00  0.00    -0.277 OA
ATOM      3  N   UNL     1      -0.839   0.778  -4.788  0.00  0.00    -0.272 N 
ENDROOT
BRANCH   3   4
ATOM      4  C   UNL     1      -1.733   0.998  -5.843  0.00  0.00    +0.036 A 
ATOM      5  C   UNL     1      -3.062   0.614  -5.720  0.00  0.00    +0.026 A 
ATOM      6  C   UNL     1      -3.943   0.837  -6.760  0.00  0.00    +0.040 A 
ATOM      7  C   UNL     1      -3.499   1.432  -7.929  0.00  0.00    +0.124 A 
ATOM      8  C   UNL     1      -2.173   1.810  -8.056  0.00  0.00    +0.040 A 
ATOM      9  C   UNL     1      -1.290   1.594  -7.016  0.00  0.00    +0.026 A 
ATOM     10  F   UNL     1      -4.362   1.644  -8.947  0.00  0.00    -0.205 F 
ENDBRANCH   3   4
BRANCH   1  11
ATOM     11  C   UNL     1      -0.083   1.151  -2.462  0.00  0.00    +0.019 C 
BRANCH  11  13
ATOM     12  C   UNL     1      -0.116   3.431  -1.649  0.00  0.00    -0.095 C 
ATOM     13  N   UNL     1      -0.427   2.030  -1.337  0.00  0.00    +0.386 N 
ATOM     14  H   UNL     1      -1.512   1.954  -1.169  0.00  0.00    -0.081 HD
BRANCH  13  15
ATOM     15  C   UNL     1       0.252   1.601  -0.107  0.00  0.00    -0.043 C 
BRANCH  15  16
ATOM     16  C   UNL     1      -0.308   2.362   1.067  0.00  0.00    -0.064 A 
ATOM     17  C   UNL     1       0.267   3.561   1.449  0.00  0.00    +0.003 A 
ATOM     18  C   UNL     1      -0.246   4.264   2.521  0.00  0.00    +0.015 A 
ATOM     19  C   UNL     1      -1.335   3.760   3.223  0.00  0.00    +0.008 A 
ATOM     20  C   UNL     1      -1.906   2.553   2.840  0.00  0.00    +0.015 A 
ATOM     21  C   UNL     1      -1.391   1.858   1.764  0.00  0.00    +0.003 A 
BRANCH  19  22
ATOM     22  S   UNL     1      -1.989   4.651   4.596  0.00  0.00    -0.129 S 
ATOM     23  C   UNL     1      -0.937   6.125   4.704  0.00  0.00    +0.090 C 
ENDBRANCH  19  22
ENDBRANCH  15  16
ENDBRANCH  13  15
ENDBRANCH  11  13
ENDBRANCH   1  11
BRANCH   3  24
ATOM     24  C   UNL     1       0.243  -0.198  -4.936  0.00  0.00    +0.123 C 
BRANCH  24  25
ATOM     25  C   UNL     1      -0.243  -1.573  -4.472  0.00  0.00    +0.115 C 
BRANCH  25  26
ATOM     26  C   UNL     1       0.871  -2.577  -4.624  0.00  0.00    +0.212 C 
ATOM     27  O   UNL     1       1.947  -2.227  -5.060  0.00  0.00    -0.276 OA
ATOM     28  N   UNL     1       0.670  -3.863  -4.275  0.00  0.00    -0.329 N 
ATOM     29  H   UNL     1       1.483  -4.596  -4.386  0.00  0.00    +0.145 HD
ATOM     30  H   UNL     1      -0.306  -4.180  -3.880  0.00  0.00    +0.145 HD
ENDBRANCH  25  26
ENDBRANCH  24  25
ENDBRANCH   3  24
TORSDOF 9
