REMARK  Name = ZINC04354835
REMARK  9 active torsions:
REMARK  status: ('A' for Active; 'I' for Inactive)
REMARK    1  A    between atoms: C_1  and  C_2
REMARK    2  A    between atoms: C_2  and  C_4
REMARK    3  A    between atoms: C_2  and  N_12
REMARK    4  A    between atoms: N_6  and  C_7
REMARK    5  A    between atoms: N_12  and  C_13
REMARK    6  A    between atoms: C_13  and  C_14
REMARK    7  A    between atoms: C_23  and  C_25
REMARK    8  A    between atoms: C_26  and  N_33
REMARK    9  A    between atoms: C_27  and  C_30
REMARK                            x       y       z     vdW  Elec       q    Type
REMARK                         _______ _______ _______ _____ _____    ______ ____
ROOT
ATOM      1  N   UNL     1       4.642   0.837  -0.072  0.00  0.00    -0.281 N 
ATOM      2  C   UNL     1       3.749  -0.169   0.023  0.00  0.00    +0.257 C 
ATOM      3  O   UNL     1       4.135  -1.322   0.074  0.00  0.00    -0.269 OA
ENDROOT
BRANCH   2   4
ATOM      4  C   UNL     1       2.316   0.126   0.064  0.00  0.00    +0.115 A 
ATOM      5  C   UNL     1       1.232  -0.753   0.083  0.00  0.00    +0.076 A 
ATOM      6  C   UNL     1       0.006  -0.089   0.124  0.00  0.00    +0.155 A 
ATOM      7  N   UNL     1      -0.013   1.226   0.139  0.00  0.00    -0.203 NA
ATOM      8  S   UNL     1       1.488   1.703   0.104  0.00  0.00    +0.019 S 
BRANCH   6   9
ATOM      9  C   UNL     1      -1.255  -0.852   0.149  0.00  0.00    +0.262 C 
ATOM     10  O   UNL     1      -1.230  -2.068   0.134  0.00  0.00    -0.269 OA
ATOM     11  N   UNL     1      -2.436  -0.203   0.188  0.00  0.00    -0.324 N 
ATOM     12  H   UNL     1      -2.456   0.767   0.200  0.00  0.00    +0.145 HD
ATOM     13  H   UNL     1      -3.265  -0.706   0.204  0.00  0.00    +0.145 HD
ENDBRANCH   6   9
BRANCH   5  14
ATOM     14  N   UNL     1       1.359  -2.135   0.065  0.00  0.00    -0.355 N 
ATOM     15  H   UNL     1       0.568  -2.696   0.080  0.00  0.00    +0.142 HD
ATOM     16  H   UNL     1       2.240  -2.541   0.037  0.00  0.00    +0.142 HD
ENDBRANCH   5  14
ENDBRANCH   2   4
BRANCH   1  18
ATOM     17  C   UNL     1       5.342   3.160  -0.374  0.00  0.00    +0.038 C 
ATOM     18  C   UNL     1       4.188   2.228  -0.001  0.00  0.00    +0.159 C 
BRANCH  18  19
ATOM     19  C   UNL     1       3.728   2.534   1.401  0.00  0.00    +0.234 C 
ATOM     20  O   UNL     1       4.093   1.839   2.325  0.00  0.00    -0.274 OA
ATOM     21  N   UNL     1       2.911   3.582   1.628  0.00  0.00    -0.311 N 
ATOM     22  H   UNL     1       2.619   4.138   0.889  0.00  0.00    +0.149 HD
BRANCH  21  23
ATOM     23  C   UNL     1       2.463   3.880   2.991  0.00  0.00    +0.073 C 
ATOM     24  C   UNL     1       1.179   3.087   3.311  0.00  0.00    +0.022 C 
ATOM     25  C   UNL     1       0.335   4.062   4.170  0.00  0.00    +0.002 C 
ATOM     26  C   UNL     1       0.610   5.432   3.502  0.00  0.00    +0.002 C 
ATOM     27  C   UNL     1       2.102   5.371   3.112  0.00  0.00    +0.022 C 
ENDBRANCH  21  23
ENDBRANCH  18  19
ENDBRANCH   1  18
BRANCH   1  28
ATOM     28  C   UNL     1       6.066   0.538  -0.247  0.00  0.00    +0.144 C 
BRANCH  28  29
ATOM     29  C   UNL     1       6.354   0.302  -1.707  0.00  0.00    -0.026 A 
ATOM     30  C   UNL     1       6.126  -0.943  -2.263  0.00  0.00    +0.009 A 
ATOM     31  C   UNL     1       6.384  -1.163  -3.603  0.00  0.00    +0.050 A 
ATOM     32  C   UNL     1       6.883  -0.138  -4.390  0.00  0.00    +0.166 A 
ATOM     33  C   UNL     1       7.117   1.115  -3.829  0.00  0.00    +0.167 A 
ATOM     34  C   UNL     1       6.851   1.330  -2.487  0.00  0.00    +0.054 A 
ATOM     35  O   UNL     1       7.602   1.943  -4.800  0.00  0.00    -0.453 OA
ATOM     36  C   UNL     1       8.047   1.075  -5.859  0.00  0.00    +0.466 C 
ATOM     37  O   UNL     1       7.221  -0.095  -5.712  0.00  0.00    -0.453 OA
ENDBRANCH  28  29
ENDBRANCH   1  28
TORSDOF 8
