REMARK  Name = ZINC39980295
REMARK  8 active torsions:
REMARK  status: ('A' for Active; 'I' for Inactive)
REMARK    1  A    between atoms: C_1  and  O_2
REMARK    2  A    between atoms: O_2  and  C_3
REMARK    3  A    between atoms: C_6  and  O_32
REMARK    4  A    between atoms: C_7  and  N_9
REMARK    5  A    between atoms: N_9  and  C_10
REMARK    6  A    between atoms: N_13  and  S_14
REMARK    7  A    between atoms: S_14  and  C_17
REMARK    8  A    between atoms: O_32  and  C_33
REMARK                            x       y       z     vdW  Elec       q    Type
REMARK                         _______ _______ _______ _____ _____    ______ ____
ROOT
ATOM      1  C   UNL     1      -1.306  -4.850  -0.104  0.00  0.00    +0.237 C 
ATOM      2  C   UNL     1      -1.479  -5.806  -1.263  0.00  0.00    +0.192 C 
ATOM      3  N   UNL     1      -1.746  -5.358  -2.454  0.00  0.00    -0.110 NA
ATOM      4  N   UNL     1      -1.353  -7.125  -1.044  0.00  0.00    -0.226 NA
ATOM      5  C   UNL     1      -1.083  -7.603   0.153  0.00  0.00    +0.089 A 
ATOM      6  C   UNL     1      -0.956  -9.002   0.348  0.00  0.00    +0.030 A 
ATOM      7  C   UNL     1      -0.679  -9.498   1.573  0.00  0.00    +0.002 A 
ATOM      8  C   UNL     1      -0.504  -8.681   2.702  0.00  0.00    +0.002 A 
ATOM      9  C   UNL     1      -0.604  -7.336   2.628  0.00  0.00    +0.027 A 
ATOM     10  C   UNL     1      -0.903  -6.716   1.328  0.00  0.00    +0.063 A 
ATOM     11  N   UNL     1      -1.006  -5.421   1.218  0.00  0.00    -0.359 N 
ATOM     12  H   UNL     1      -0.887  -4.848   1.991  0.00  0.00    +0.162 HD
ENDROOT
BRANCH   3  13
ATOM     13  S   UNL     1      -1.933  -6.416  -3.714  0.00  0.00    +0.100 S 
ATOM     14  O   UNL     1      -0.665  -7.022  -3.927  0.00  0.00    -0.146 OA
ATOM     15  O   UNL     1      -3.103  -7.173  -3.438  0.00  0.00    -0.146 OA
BRANCH  13  16
ATOM     16  C   UNL     1      -2.280  -5.457  -5.151  0.00  0.00    +0.113 A 
ATOM     17  C   UNL     1      -3.588  -5.150  -5.477  0.00  0.00    +0.030 A 
ATOM     18  C   UNL     1      -3.861  -4.398  -6.604  0.00  0.00    +0.017 A 
ATOM     19  C   UNL     1      -2.826  -3.953  -7.406  0.00  0.00    +0.018 A 
ATOM     20  C   UNL     1      -1.518  -4.261  -7.080  0.00  0.00    +0.017 A 
ATOM     21  C   UNL     1      -1.245  -5.009  -5.950  0.00  0.00    +0.030 A 
ATOM     22 BR   UNL     1      -3.199  -2.925  -8.949  0.00  0.00    -0.050 Br
ENDBRANCH  13  16
ENDBRANCH   3  13
BRANCH   1  23
ATOM     23  N   UNL     1      -2.539  -4.067   0.017  0.00  0.00    -0.315 N 
ATOM     24  H   UNL     1      -3.397  -4.517   0.060  0.00  0.00    +0.149 HD
BRANCH  23  29
ATOM     25  C   UNL     1      -1.191  -0.646   0.200  0.00  0.00    +0.122 A 
ATOM     26  C   UNL     1      -2.361   0.099   0.176  0.00  0.00    +0.049 A 
ATOM     27  C   UNL     1      -3.587  -0.536   0.100  0.00  0.00    +0.051 A 
ATOM     28  C   UNL     1      -3.650  -1.919   0.047  0.00  0.00    +0.141 A 
ATOM     29  C   UNL     1      -2.477  -2.670   0.070  0.00  0.00    +0.075 A 
ATOM     30  C   UNL     1      -1.248  -2.030   0.141  0.00  0.00    +0.072 A 
BRANCH  25  32
ATOM     31  C   UNL     1      -0.003   1.409   0.334  0.00  0.00    +0.277 C 
ATOM     32  O   UNL     1       0.013  -0.019   0.276  0.00  0.00    -0.495 OA
ENDBRANCH  25  32
BRANCH  28  33
ATOM     33  O   UNL     1      -4.857  -2.543  -0.028  0.00  0.00    -0.493 OA
ATOM     34  C   UNL     1      -6.018  -1.710  -0.047  0.00  0.00    +0.277 C 
ENDBRANCH  28  33
ENDBRANCH  23  29
ENDBRANCH   1  23
TORSDOF 6
