REMARK  Name = ZINC09728624
REMARK  8 active torsions:
REMARK  status: ('A' for Active; 'I' for Inactive)
REMARK    1  A    between atoms: C_4  and  C_7
REMARK    2  A    between atoms: C_10  and  O_13
REMARK    3  A    between atoms: O_13  and  C_14
REMARK    4  A    between atoms: C_14  and  C_15
REMARK    5  A    between atoms: C_22  and  C_23
REMARK    6  A    between atoms: C_22  and  N_62
REMARK    7  A    between atoms: N_25  and  C_26
REMARK    8  A    between atoms: C_31  and  C_32
REMARK                            x       y       z     vdW  Elec       q    Type
REMARK                         _______ _______ _______ _____ _____    ______ ____
ROOT
ATOM      1  C   UNL     1      -1.077  -3.644  -1.497  0.00  0.00    +0.253 C 
ATOM      2  O   UNL     1      -2.143  -4.121  -1.167  0.00  0.00    -0.272 OA
ATOM      3  N   UNL     1      -0.548  -2.624  -0.793  0.00  0.00    -0.302 N 
ATOM      4  C   UNL     1      -1.246  -2.073   0.378  0.00  0.00    +0.089 C 
ATOM      5  C   UNL     1      -1.339  -0.552   0.218  0.00  0.00    -0.059 C 
ATOM      6  C   UNL     1       0.571  -0.512  -1.275  0.00  0.00    -0.059 C 
ATOM      7  C   UNL     1       0.743  -2.032  -1.176  0.00  0.00    +0.089 C 
ATOM      8  N   UNL     1       0.021  -0.013   0.004  0.00  0.00    +0.387 N 
ATOM      9  H   UNL     1       0.627  -0.325   0.772  0.00  0.00    -0.081 HD
ENDROOT
BRANCH   1  10
ATOM     10  C   UNL     1      -0.345  -4.194  -2.694  0.00  0.00    +0.324 C 
BRANCH  10  11
ATOM     11  O   UNL     1      -1.102  -5.262  -3.267  0.00  0.00    -0.483 OA
BRANCH  11  15
ATOM     12  C   UNL     1       0.490  -7.112  -6.597  0.00  0.00    -0.018 A 
ATOM     13  C   UNL     1      -0.734  -7.536  -6.081  0.00  0.00    +0.012 A 
ATOM     14  C   UNL     1      -1.263  -6.916  -4.968  0.00  0.00    +0.046 A 
ATOM     15  C   UNL     1      -0.578  -5.871  -4.363  0.00  0.00    +0.121 A 
ATOM     16  C   UNL     1       0.638  -5.443  -4.878  0.00  0.00    +0.046 A 
ATOM     17  C   UNL     1       1.175  -6.063  -5.987  0.00  0.00    +0.012 A 
BRANCH  12  21
ATOM     18  C   UNL     1       2.128  -9.017 -10.027  0.00  0.00    +0.000 A 
ATOM     19  C   UNL     1       2.812  -7.976  -9.425  0.00  0.00    +0.001 A 
ATOM     20  C   UNL     1       2.285  -7.354  -8.311  0.00  0.00    +0.008 A 
ATOM     21  C   UNL     1       1.062  -7.777  -7.794  0.00  0.00    -0.018 A 
ATOM     22  C   UNL     1       0.380  -8.829  -8.402  0.00  0.00    +0.008 A 
ATOM     23  C   UNL     1       0.914  -9.440  -9.518  0.00  0.00    +0.001 A 
ENDBRANCH  12  21
ENDBRANCH  11  15
ENDBRANCH  10  11
ENDBRANCH   1  10
BRANCH   8  24
ATOM     24  C   UNL     1      -0.017   1.464  -0.007  0.00  0.00    +0.019 C 
BRANCH  24  25
ATOM     25  C   UNL     1       1.396   1.986  -0.006  0.00  0.00    +0.201 C 
ATOM     26  O   UNL     1       2.329   1.211  -0.015  0.00  0.00    -0.278 OA
ATOM     27  N   UNL     1       1.624   3.315   0.004  0.00  0.00    -0.287 N 
ATOM     28  H   UNL     1       0.881   3.935  -0.054  0.00  0.00    +0.155 HD
BRANCH  27  29
ATOM     29  C   UNL     1       2.933   3.799   0.100  0.00  0.00    +0.045 A 
ATOM     30  C   UNL     1       3.977   3.110  -0.505  0.00  0.00    +0.024 A 
ATOM     31  C   UNL     1       5.267   3.594  -0.413  0.00  0.00    +0.002 A 
ATOM     32  C   UNL     1       5.522   4.757   0.290  0.00  0.00    +0.001 A 
ATOM     33  C   UNL     1       4.487   5.443   0.897  0.00  0.00    +0.014 A 
ATOM     34  C   UNL     1       3.193   4.967   0.805  0.00  0.00    +0.076 A 
BRANCH  34  35
ATOM     35  C   UNL     1       2.065   5.714   1.469  0.00  0.00    +0.419 C 
ATOM     36  F   UNL     1       2.572   6.849   2.112  0.00  0.00    -0.166 F 
ATOM     37  F   UNL     1       1.132   6.104   0.502  0.00  0.00    -0.166 F 
ATOM     38  F   UNL     1       1.445   4.884   2.408  0.00  0.00    -0.166 F 
ENDBRANCH  34  35
ENDBRANCH  27  29
ENDBRANCH  24  25
ENDBRANCH   8  24
TORSDOF 8
