REMARK  Name = ZINC06136635
REMARK  7 active torsions:
REMARK  status: ('A' for Active; 'I' for Inactive)
REMARK    1  A    between atoms: C_1  and  O_2
REMARK    2  A    between atoms: O_2  and  C_3
REMARK    3  A    between atoms: C_6  and  N_9
REMARK    4  A    between atoms: C_14  and  C_16
REMARK    5  A    between atoms: C_14  and  C_31
REMARK    6  A    between atoms: C_14  and  N_70
REMARK    7  A    between atoms: N_35  and  C_36
REMARK                            x       y       z     vdW  Elec       q    Type
REMARK                         _______ _______ _______ _____ _____    ______ ____
ROOT
ATOM      1  C   UNL     1       2.531  -0.331  -0.056  0.00  0.00    +0.039 C 
ENDROOT
BRANCH   1   2
ATOM      2  C   UNL     1       3.135  -0.580  -1.413  0.00  0.00    +0.011 A 
ATOM      3  C   UNL     1       2.378  -1.122  -2.401  0.00  0.00    +0.017 A 
ATOM      4  C   UNL     1       2.992  -1.347  -3.709  0.00  0.00    +0.002 A 
ATOM      5  C   UNL     1       2.257  -1.897  -4.767  0.00  0.00    +0.059 A 
ATOM      6  C   UNL     1       2.864  -2.103  -5.986  0.00  0.00    +0.167 A 
ATOM      7  C   UNL     1       4.211  -1.764  -6.170  0.00  0.00    +0.168 A 
ATOM      8  C   UNL     1       4.943  -1.219  -5.131  0.00  0.00    +0.075 A 
ATOM      9  C   UNL     1       4.345  -1.005  -3.896  0.00  0.00    +0.053 A 
ATOM     10  N   UNL     1       5.061  -0.461  -2.849  0.00  0.00    -0.322 N 
ATOM     11  H   UNL     1       6.022  -0.218  -2.982  0.00  0.00    +0.169 HD
ATOM     12  C   UNL     1       4.485  -0.253  -1.652  0.00  0.00    +0.251 A 
ATOM     13  O   UNL     1       5.148   0.229  -0.749  0.00  0.00    -0.268 OA
ATOM     14  O   UNL     1       4.561  -2.067  -7.453  0.00  0.00    -0.453 OA
ATOM     15  C   UNL     1       3.545  -2.969  -7.928  0.00  0.00    +0.466 C 
ATOM     16  O   UNL     1       2.382  -2.616  -7.157  0.00  0.00    -0.453 OA
ENDBRANCH   1   2
BRANCH   1  22
ATOM     17  N   UNL     1       3.594  -3.051   2.997  0.00  0.00    -0.333 N 
ATOM     18  C   UNL     1       3.557  -1.620   3.332  0.00  0.00    +0.086 C 
ATOM     19  C   UNL     1       2.707  -0.879   2.297  0.00  0.00    -0.058 C 
ATOM     20  C   UNL     1       3.313  -2.520   0.624  0.00  0.00    -0.058 C 
ATOM     21  C   UNL     1       4.163  -3.261   1.659  0.00  0.00    +0.086 C 
ATOM     22  N   UNL     1       3.302  -1.080   0.959  0.00  0.00    +0.391 N 
ATOM     23  H   UNL     1       4.268  -0.732   0.968  0.00  0.00    -0.080 HD
BRANCH  17  27
ATOM     24  C   UNL     1       5.708  -5.203   5.874  0.00  0.00    +0.120 A 
ATOM     25  C   UNL     1       5.155  -5.859   4.784  0.00  0.00    +0.047 A 
ATOM     26  C   UNL     1       4.455  -5.147   3.831  0.00  0.00    +0.027 A 
ATOM     27  C   UNL     1       4.304  -3.773   3.963  0.00  0.00    +0.030 A 
ATOM     28  C   UNL     1       4.862  -3.116   5.051  0.00  0.00    +0.027 A 
ATOM     29  C   UNL     1       5.558  -3.830   6.007  0.00  0.00    +0.047 A 
BRANCH  24  31
ATOM     30  C   UNL     1       6.941  -5.164   7.907  0.00  0.00    +0.277 C 
ATOM     31  O   UNL     1       6.398  -5.905   6.812  0.00  0.00    -0.495 OA
ENDBRANCH  24  31
ENDBRANCH  17  27
ENDBRANCH   1  22
BRANCH   1  32
ATOM     32  C   UNL     1       1.091  -0.775  -0.057  0.00  0.00    +0.143 A 
ATOM     33  N   UNL     1       0.652  -2.010  -0.022  0.00  0.00    -0.115 NA
ATOM     34  N   UNL     1      -0.635  -1.975  -0.039  0.00  0.00    -0.023 NA
ATOM     35  N   UNL     1      -1.030  -0.751  -0.078  0.00  0.00    -0.044 NA
ATOM     36  N   UNL     1       0.005   0.019  -0.096  0.00  0.00    -0.227 N 
BRANCH  36  37
ATOM     37  C   UNL     1      -0.001   1.484  -0.144  0.00  0.00    +0.111 C 
ATOM     38  C   UNL     1      -0.787   2.049   1.056  0.00  0.00    +0.027 C 
ATOM     39  C   UNL     1      -1.526   3.283   0.479  0.00  0.00    +0.002 C 
ATOM     40  C   UNL     1      -1.929   2.808  -0.939  0.00  0.00    +0.002 C 
ATOM     41  C   UNL     1      -0.726   1.967  -1.413  0.00  0.00    +0.027 C 
ENDBRANCH  36  37
ENDBRANCH   1  32
TORSDOF 6
