REMARK  Name = ZINC39795189
REMARK  6 active torsions:
REMARK  status: ('A' for Active; 'I' for Inactive)
REMARK    1  A    between atoms: C_1  and  C_2
REMARK    2  A    between atoms: C_5  and  N_8
REMARK    3  A    between atoms: C_12  and  C_13
REMARK    4  A    between atoms: C_16  and  C_18
REMARK    5  A    between atoms: C_21  and  S_24
REMARK    6  A    between atoms: S_24  and  N_27
REMARK                            x       y       z     vdW  Elec       q    Type
REMARK                         _______ _______ _______ _____ _____    ______ ____
ROOT
ATOM      1  C   UNL     1       0.280  -8.539   1.821  0.00  0.00    +0.130 A 
ATOM      2  C   UNL     1       0.371  -9.555   2.756  0.00  0.00    +0.050 A 
ATOM      3  C   UNL     1       0.328 -10.759   2.048  0.00  0.00    +0.050 A 
ATOM      4  C   UNL     1       0.213 -10.443   0.723  0.00  0.00    +0.136 A 
ATOM      5  O   UNL     1       0.180  -9.104   0.599  0.00  0.00    -0.455 OA
ENDROOT
BRANCH   1  10
ATOM      6  N   UNL     1       0.058  -4.172  -0.021  0.00  0.00    -0.197 N 
ATOM      7  C   UNL     1       0.168  -4.828   1.121  0.00  0.00    +0.265 C 
ATOM      8  O   UNL     1       0.253  -4.233   2.181  0.00  0.00    -0.269 OA
ATOM      9  C   UNL     1       0.183  -6.255   1.076  0.00  0.00    +0.083 C 
ATOM     10  C   UNL     1       0.286  -7.155   2.097  0.00  0.00    +0.066 C 
ATOM     11  S   UNL     1       0.032  -6.542  -0.682  0.00  0.00    -0.025 S 
ATOM     12  C   UNL     1      -0.042  -4.833  -1.196  0.00  0.00    +0.290 C 
ATOM     13  O   UNL     1      -0.153  -4.378  -2.319  0.00  0.00    -0.262 OA
BRANCH   6  18
ATOM     14  C   UNL     1      -0.017   1.503   0.012  0.00  0.00    +0.044 C 
ATOM     15  C   UNL     1       0.003  -0.004   0.003  0.00  0.00    -0.050 A 
ATOM     16  C   UNL     1      -1.181  -0.710   0.106  0.00  0.00    +0.005 A 
ATOM     17  C   UNL     1      -1.166  -2.091   0.099  0.00  0.00    +0.024 A 
ATOM     18  C   UNL     1       0.040  -2.771  -0.013  0.00  0.00    +0.045 A 
ATOM     19  C   UNL     1       1.227  -2.059  -0.117  0.00  0.00    +0.024 A 
ATOM     20  C   UNL     1       1.205  -0.678  -0.114  0.00  0.00    +0.005 A 
ENDBRANCH   6  18
ENDBRANCH   1  10
BRANCH   4  21
ATOM     21  C   UNL     1       0.133 -11.412  -0.388  0.00  0.00    +0.017 A 
ATOM     22  C   UNL     1       0.167 -12.784  -0.126  0.00  0.00    +0.013 A 
ATOM     23  C   UNL     1       0.091 -13.683  -1.169  0.00  0.00    +0.029 A 
ATOM     24  C   UNL     1      -0.017 -13.229  -2.472  0.00  0.00    +0.105 A 
ATOM     25  C   UNL     1      -0.051 -11.871  -2.738  0.00  0.00    +0.029 A 
ATOM     26  C   UNL     1       0.018 -10.961  -1.705  0.00  0.00    +0.013 A 
BRANCH  24  27
ATOM     27  S   UNL     1      -0.112 -14.385  -3.798  0.00  0.00    +0.056 S 
ATOM     28  O   UNL     1       0.341 -13.707  -4.962  0.00  0.00    -0.153 OA
ATOM     29  O   UNL     1       0.489 -15.586  -3.334  0.00  0.00    -0.153 OA
BRANCH  27  30
ATOM     30  N   UNL     1      -1.715 -14.722  -4.041  0.00  0.00    -0.204 NA
ATOM     31  H   UNL     1      -2.389 -14.296  -3.488  0.00  0.00    +0.144 HD
ATOM     32  H   UNL     1      -1.980 -15.344  -4.736  0.00  0.00    +0.144 HD
ENDBRANCH  27  30
ENDBRANCH  24  27
ENDBRANCH   4  21
TORSDOF 5
