REMARK  Name = ZINC10022441
REMARK  10 active torsions:
REMARK  status: ('A' for Active; 'I' for Inactive)
REMARK    1  A    between atoms: C_1  and  C_2
REMARK    2  A    between atoms: C_2  and  C_3
REMARK    3  A    between atoms: C_2  and  N_53
REMARK    4  A    between atoms: C_9  and  N_14
REMARK    5  A    between atoms: C_10  and  C_11
REMARK    6  A    between atoms: C_15  and  C_17
REMARK    7  A    between atoms: C_17  and  S_18
REMARK    8  A    between atoms: S_18  and  C_19
REMARK    9  A    between atoms: C_22  and  O_25
REMARK   10  A    between atoms: O_25  and  C_26
REMARK                            x       y       z     vdW  Elec       q    Type
REMARK                         _______ _______ _______ _____ _____    ______ ____
ROOT
ATOM      1  C   UNL     1       5.970  12.341  -0.428  0.00  0.00    -0.073 C 
ATOM      2  C   UNL     1       6.520  10.977  -0.002  0.00  0.00    +0.018 C 
ATOM      3  C   UNL     1       5.366   9.981   0.005  0.00  0.00    -0.027 A 
ATOM      4  C   UNL     1       4.088  10.423   0.021  0.00  0.00    -0.021 A 
ATOM      5  S   UNL     1       3.103   8.954   0.023  0.00  0.00    -0.079 S 
ATOM      6  C   UNL     1       4.367   7.769   0.003  0.00  0.00    +0.084 A 
ATOM      7  C   UNL     1       5.523   8.539   0.002  0.00  0.00    +0.068 A 
ATOM      8  C   UNL     1       3.642  11.851   0.036  0.00  0.00    -0.035 C 
ATOM      9  N   UNL     1       4.808  12.686   0.417  0.00  0.00    +0.384 N 
ATOM     10  H   UNL     1       5.043  12.504   1.400  0.00  0.00    -0.081 HD
ENDROOT
BRANCH   7  11
ATOM     11  C   UNL     1       6.851   7.917  -0.007  0.00  0.00    +0.244 C 
ATOM     12  O   UNL     1       7.398   7.665  -1.065  0.00  0.00    -0.270 OA
ATOM     13  N   UNL     1       7.467   7.626   1.156  0.00  0.00    -0.325 N 
ATOM     14  H   UNL     1       7.031   7.827   1.999  0.00  0.00    +0.145 HD
ATOM     15  H   UNL     1       8.345   7.215   1.150  0.00  0.00    +0.145 HD
ENDBRANCH   7  11
BRANCH   6  16
ATOM     16  N   UNL     1       4.253   6.387  -0.003  0.00  0.00    -0.279 N 
ATOM     17  C   UNL     1       3.034   5.812   0.005  0.00  0.00    +0.228 C 
ATOM     18  O   UNL     1       2.037   6.503   0.019  0.00  0.00    -0.275 OA
ATOM     19  H   UNL     1       5.050   5.834  -0.014  0.00  0.00    +0.155 HD
BRANCH  17  20
ATOM     20  C   UNL     1       2.909   4.310  -0.002  0.00  0.00    +0.170 C 
BRANCH  20  21
ATOM     21  S   UNL     1       1.155   3.849   0.012  0.00  0.00    -0.116 S 
BRANCH  21  22
ATOM     22  C   UNL     1       1.177   2.087   0.002  0.00  0.00    +0.009 A 
ATOM     23  C   UNL     1      -0.017   1.377   0.010  0.00  0.00    +0.018 A 
ATOM     24  C   UNL     1       0.002  -0.004   0.002  0.00  0.00    +0.047 A 
ATOM     25  C   UNL     1       1.212  -0.682  -0.013  0.00  0.00    +0.120 A 
ATOM     26  C   UNL     1       2.405   0.027  -0.020  0.00  0.00    +0.047 A 
ATOM     27  C   UNL     1       2.389   1.407  -0.013  0.00  0.00    +0.018 A 
BRANCH  25  28
ATOM     28  O   UNL     1       1.230  -2.042  -0.021  0.00  0.00    -0.495 OA
ATOM     29  C   UNL     1       2.511  -2.674  -0.036  0.00  0.00    +0.277 C 
ENDBRANCH  25  28
ENDBRANCH  21  22
ENDBRANCH  20  21
ENDBRANCH  17  20
ENDBRANCH   6  16
BRANCH   9  31
ATOM     30  C   UNL     1       4.101  14.426  -1.190  0.00  0.00    -0.014 C 
ATOM     31  C   UNL     1       4.476  14.119   0.261  0.00  0.00    -0.074 C 
ATOM     32  C   UNL     1       3.297  14.459   1.175  0.00  0.00    -0.014 C 
ENDBRANCH   9  31
TORSDOF 7
