REMARK  Name = ZINC09615436
REMARK  8 active torsions:
REMARK  status: ('A' for Active; 'I' for Inactive)
REMARK    1  A    between atoms: C_1  and  C_2
REMARK    2  A    between atoms: C_5  and  N_9
REMARK    3  A    between atoms: C_6  and  C_8
REMARK    4  A    between atoms: N_9  and  C_10
REMARK    5  A    between atoms: C_11  and  C_27
REMARK    6  A    between atoms: C_14  and  C_17
REMARK    7  A    between atoms: N_19  and  C_20
REMARK    8  A    between atoms: N_29  and  C_30
REMARK                            x       y       z     vdW  Elec       q    Type
REMARK                         _______ _______ _______ _____ _____    ______ ____
ROOT
ATOM      1  C   UNL     1       0.036  -4.973  -1.247  0.00  0.00    +0.081 C 
ATOM      2  C   UNL     1      -0.001  -6.352  -1.444  0.00  0.00    +0.086 C 
ATOM      3  C   UNL     1      -0.084  -6.876  -2.784  0.00  0.00    +0.069 C 
ATOM      4  N   UNL     1      -0.123  -8.150  -3.041  0.00  0.00    -0.302 NA
ATOM      5  C   UNL     1      -0.123  -5.818  -3.869  0.00  0.00    +0.187 C 
ATOM      6  S   UNL     1      -0.046  -4.271  -2.882  0.00  0.00    -0.090 S 
ATOM      7  H   UNL     1      -0.023  -8.793  -2.322  0.00  0.00    +0.186 HD
ENDROOT
BRANCH   5   8
ATOM      8  C   UNL     1       1.068  -5.940  -4.785  0.00  0.00    +0.236 C 
ATOM      9  O   UNL     1       2.119  -6.371  -4.359  0.00  0.00    -0.274 OA
ATOM     10  N   UNL     1       0.965  -5.571  -6.077  0.00  0.00    -0.284 N 
ATOM     11  H   UNL     1       0.154  -5.146  -6.397  0.00  0.00    +0.155 HD
BRANCH  10  12
ATOM     12  C   UNL     1       2.029  -5.800  -6.957  0.00  0.00    +0.033 A 
ATOM     13  C   UNL     1       2.296  -4.895  -7.976  0.00  0.00    +0.024 A 
ATOM     14  C   UNL     1       3.347  -5.123  -8.842  0.00  0.00    +0.017 A 
ATOM     15  C   UNL     1       4.133  -6.252  -8.696  0.00  0.00    +0.018 A 
ATOM     16  C   UNL     1       3.869  -7.156  -7.682  0.00  0.00    +0.017 A 
ATOM     17  C   UNL     1       2.823  -6.930  -6.810  0.00  0.00    +0.024 A 
ATOM     18 BR   UNL     1       5.571  -6.562  -9.885  0.00  0.00    -0.050 Br
ENDBRANCH  10  12
ENDBRANCH   5   8
BRANCH   2  19
ATOM     19  C   UNL     1       0.044  -7.261  -0.300  0.00  0.00    +0.248 C 
ATOM     20  O   UNL     1       1.103  -7.750   0.048  0.00  0.00    -0.270 OA
ATOM     21  N   UNL     1      -1.088  -7.558   0.369  0.00  0.00    -0.308 N 
ATOM     22  H   UNL     1      -1.942  -7.228   0.049  0.00  0.00    +0.149 HD
BRANCH  21  23
ATOM     23  C   UNL     1      -1.028  -8.378   1.581  0.00  0.00    +0.073 C 
ATOM     24  C   UNL     1      -2.078  -9.479   1.742  0.00  0.00    +0.024 C 
ATOM     25  C   UNL     1      -2.156  -8.216   2.602  0.00  0.00    +0.024 C 
ENDBRANCH  21  23
ENDBRANCH   2  19
BRANCH   1  26
ATOM     26  N   UNL     1       0.114  -4.304  -0.058  0.00  0.00    -0.308 N 
ATOM     27  H   UNL     1       0.197  -4.799   0.772  0.00  0.00    +0.153 HD
BRANCH  26  32
ATOM     28  C   UNL     1      -0.057   1.365   0.023  0.00  0.00    +0.044 C 
ATOM     29  C   UNL     1      -0.011  -0.141   0.002  0.00  0.00    -0.050 A 
ATOM     30  C   UNL     1       0.631  -0.797  -1.032  0.00  0.00    +0.005 A 
ATOM     31  C   UNL     1       0.674  -2.177  -1.055  0.00  0.00    +0.024 A 
ATOM     32  C   UNL     1       0.072  -2.906  -0.037  0.00  0.00    +0.035 A 
ATOM     33  C   UNL     1      -0.572  -2.244   1.000  0.00  0.00    -0.029 A 
ATOM     34  C   UNL     1      -0.607  -0.864   1.019  0.00  0.00    +0.008 A 
ATOM     35  C   UNL     1      -1.227  -3.031   2.106  0.00  0.00    +0.045 C 
ENDBRANCH  26  32
ENDBRANCH   1  26
TORSDOF 6
