REMARK  Name = ZINC08533828
REMARK  12 active torsions:
REMARK  status: ('A' for Active; 'I' for Inactive)
REMARK    1  A    between atoms: C_1  and  C_2
REMARK    2  A    between atoms: C_2  and  C_4
REMARK    3  A    between atoms: C_2  and  N_56
REMARK    4  A    between atoms: N_6  and  C_7
REMARK    5  A    between atoms: C_8  and  C_15
REMARK    6  A    between atoms: C_18  and  N_56
REMARK    7  A    between atoms: C_19  and  C_20
REMARK    8  A    between atoms: C_19  and  N_56
REMARK    9  A    between atoms: C_24  and  O_28
REMARK   10  A    between atoms: C_25  and  O_26
REMARK   11  A    between atoms: O_26  and  C_27
REMARK   12  A    between atoms: O_28  and  C_29
REMARK                            x       y       z     vdW  Elec       q    Type
REMARK                         _______ _______ _______ _____ _____    ______ ____
ROOT
ATOM      1  C   UNL     1      -2.257   2.497  -3.496  0.00  0.00    +0.204 C 
ATOM      2  O   UNL     1      -3.300   3.079  -3.285  0.00  0.00    -0.277 OA
ATOM      3  N   UNL     1      -1.504   2.067  -2.463  0.00  0.00    -0.281 N 
ATOM      4  H   UNL     1      -0.670   1.602  -2.632  0.00  0.00    +0.155 HD
ENDROOT
BRANCH   3   5
ATOM      5  C   UNL     1      -1.923   2.290  -1.160  0.00  0.00    +0.084 A 
ATOM      6  C   UNL     1      -1.294   1.929   0.019  0.00  0.00    +0.068 A 
ATOM      7  C   UNL     1      -1.949   2.292   1.275  0.00  0.00    -0.023 A 
ATOM      8  C   UNL     1      -3.116   2.947   1.141  0.00  0.00    -0.004 A 
ATOM      9  S   UNL     1      -3.359   3.086  -0.613  0.00  0.00    -0.077 S 
ATOM     10  C   UNL     1      -3.727   3.290   2.473  0.00  0.00    +0.043 C 
ATOM     11  C   UNL     1      -2.568   3.137   3.483  0.00  0.00    +0.010 C 
ATOM     12  C   UNL     1      -1.659   2.119   2.766  0.00  0.00    +0.037 C 
BRANCH   6  13
ATOM     13  C   UNL     1      -0.014   1.213   0.009  0.00  0.00    +0.244 C 
ATOM     14  O   UNL     1       0.002  -0.004   0.002  0.00  0.00    -0.270 OA
ATOM     15  N   UNL     1       1.143   1.903   0.001  0.00  0.00    -0.325 N 
ATOM     16  H   UNL     1       1.990   1.429  -0.009  0.00  0.00    +0.145 HD
ATOM     17  H   UNL     1       1.130   2.873   0.007  0.00  0.00    +0.145 HD
ENDBRANCH   6  13
ENDBRANCH   3   5
BRANCH   1  19
ATOM     18  C   UNL     1      -0.448   2.931  -5.136  0.00  0.00    -0.004 C 
ATOM     19  C   UNL     1      -1.803   2.255  -4.912  0.00  0.00    +0.016 C 
BRANCH  19  21
ATOM     20  C   UNL     1      -2.842   4.279  -5.741  0.00  0.00    -0.095 C 
ATOM     21  N   UNL     1      -2.815   2.804  -5.838  0.00  0.00    +0.388 N 
ATOM     22  H   UNL     1      -3.738   2.437  -5.580  0.00  0.00    -0.081 HD
BRANCH  21  23
ATOM     23  C   UNL     1      -2.506   2.395  -7.224  0.00  0.00    -0.039 C 
BRANCH  23  24
ATOM     24  C   UNL     1      -3.662   2.777  -8.113  0.00  0.00    -0.019 A 
ATOM     25  C   UNL     1      -4.602   1.828  -8.471  0.00  0.00    +0.005 A 
ATOM     26  C   UNL     1      -5.663   2.175  -9.286  0.00  0.00    +0.004 A 
ATOM     27  C   UNL     1      -5.790   3.473  -9.746  0.00  0.00    +0.049 A 
ATOM     28  C   UNL     1      -4.853   4.429  -9.390  0.00  0.00    +0.162 A 
ATOM     29  C   UNL     1      -3.786   4.080  -8.566  0.00  0.00    +0.163 A 
BRANCH  29  30
ATOM     30  O   UNL     1      -2.866   5.016  -8.210  0.00  0.00    -0.491 OA
ATOM     31  C   UNL     1      -1.734   5.172  -9.068  0.00  0.00    +0.277 C 
ENDBRANCH  29  30
BRANCH  28  32
ATOM     32  O   UNL     1      -4.976   5.706  -9.841  0.00  0.00    -0.491 OA
ATOM     33  C   UNL     1      -6.098   5.992 -10.678  0.00  0.00    +0.277 C 
ENDBRANCH  28  32
ENDBRANCH  23  24
ENDBRANCH  21  23
ENDBRANCH  19  21
ENDBRANCH   1  19
TORSDOF 8
