REMARK  Name = ZINC39422029
REMARK  11 active torsions:
REMARK  status: ('A' for Active; 'I' for Inactive)
REMARK    1  A    between atoms: C_1  and  C_2
REMARK    2  A    between atoms: C_2  and  C_32
REMARK    3  A    between atoms: C_4  and  N_10
REMARK    4  A    between atoms: C_6  and  C_8
REMARK    5  A    between atoms: C_6  and  C_9
REMARK    6  A    between atoms: N_10  and  C_11
REMARK    7  A    between atoms: N_10  and  C_18
REMARK    8  A    between atoms: C_11  and  C_12
REMARK    9  A    between atoms: C_18  and  N_20
REMARK   10  A    between atoms: N_20  and  C_21
REMARK   11  A    between atoms: C_26  and  C_27
REMARK                            x       y       z     vdW  Elec       q    Type
REMARK                         _______ _______ _______ _____ _____    ______ ____
ROOT
ATOM      1  N   UNL     1       2.502  -0.626  -2.613  0.00  0.00    -0.305 N 
ENDROOT
BRANCH   1   5
ATOM      2  C   UNL     1       1.838   0.192   1.663  0.00  0.00    -0.010 C 
ATOM      3  C   UNL     1       2.321   1.259   0.676  0.00  0.00    -0.072 C 
ATOM      4  C   UNL     1       2.952   0.588  -0.540  0.00  0.00    +0.009 C 
ATOM      5  C   UNL     1       1.871  -0.015  -1.437  0.00  0.00    +0.073 C 
ATOM      6  C   UNL     1       0.945   1.114  -1.891  0.00  0.00    +0.009 C 
ATOM      7  C   UNL     1       0.299   1.789  -0.686  0.00  0.00    -0.072 C 
ATOM      8  N   UNL     1       1.255   2.184   0.333  0.00  0.00    +0.386 N 
ATOM      9  C   UNL     1      -0.791   0.882  -0.106  0.00  0.00    -0.010 C 
ATOM     10  C   UNL     1      -0.401   3.071  -1.195  0.00  0.00    -0.010 C 
ATOM     11  C   UNL     1       3.433   2.065   1.387  0.00  0.00    -0.010 C 
ATOM     12  H   UNL     1       0.738   2.408   1.189  0.00  0.00    -0.084 HD
ATOM     13  H   UNL     1       1.681   3.071   0.047  0.00  0.00    -0.084 HD
ENDBRANCH   1   5
BRANCH   1  14
ATOM     14  C   UNL     1       2.438  -1.960  -2.795  0.00  0.00    +0.138 C 
ATOM     15  S   UNL     1       3.260  -2.685  -4.110  0.00  0.00    -0.018 S 
BRANCH  14  16
ATOM     16  N   UNL     1       1.728  -2.724  -1.941  0.00  0.00    -0.296 N 
ATOM     17  H   UNL     1       2.182  -3.228  -1.249  0.00  0.00    +0.154 HD
BRANCH  16  18
ATOM     18  C   UNL     1       0.334  -2.788  -2.055  0.00  0.00    +0.044 A 
ATOM     19  C   UNL     1      -0.308  -2.156  -3.112  0.00  0.00    +0.025 A 
ATOM     20  C   UNL     1      -1.683  -2.222  -3.221  0.00  0.00    +0.022 A 
ATOM     21  C   UNL     1      -2.421  -2.916  -2.279  0.00  0.00    +0.042 A 
ATOM     22  C   UNL     1      -1.784  -3.547  -1.225  0.00  0.00    +0.034 A 
ATOM     23  C   UNL     1      -0.408  -3.489  -1.114  0.00  0.00    +0.077 A 
ATOM     24 CL   UNL     1      -4.150  -2.996  -2.419  0.00  0.00    -0.084 Cl
BRANCH  23  25
ATOM     25  C   UNL     1       0.285  -4.181   0.031  0.00  0.00    +0.419 C 
ATOM     26  F   UNL     1      -0.665  -4.814   0.839  0.00  0.00    -0.166 F 
ATOM     27  F   UNL     1       1.179  -5.133  -0.471  0.00  0.00    -0.166 F 
ATOM     28  F   UNL     1       0.987  -3.238   0.790  0.00  0.00    -0.166 F 
ENDBRANCH  23  25
ENDBRANCH  16  18
ENDBRANCH  14  16
ENDBRANCH   1  14
BRANCH   1  29
ATOM     29  C   UNL     1       3.201   0.214  -3.588  0.00  0.00    +0.143 C 
BRANCH  29  30
ATOM     30  C   UNL     1       4.669   0.261  -3.250  0.00  0.00    -0.012 A 
ATOM     31  C   UNL     1       5.182   1.306  -2.495  0.00  0.00    +0.008 A 
ATOM     32  C   UNL     1       6.538   1.309  -2.208  0.00  0.00    +0.020 A 
ATOM     33  C   UNL     1       7.328   0.277  -2.680  0.00  0.00    +0.111 A 
ATOM     34  N   UNL     1       6.806  -0.700  -3.394  0.00  0.00    -0.263 NA
ATOM     35  C   UNL     1       5.520  -0.738  -3.682  0.00  0.00    +0.115 A 
ENDBRANCH  29  30
ENDBRANCH   1  29
TORSDOF 7
