REMARK  Name = ZINC63213820
REMARK  4 active torsions:
REMARK  status: ('A' for Active; 'I' for Inactive)
REMARK    1  A    between atoms: C_5  and  S_8
REMARK    2  A    between atoms: S_8  and  N_11
REMARK    3  A    between atoms: N_11  and  C_12
REMARK    4  A    between atoms: C_19  and  N_21
REMARK                            x       y       z     vdW  Elec       q    Type
REMARK                         _______ _______ _______ _____ _____    ______ ____
ROOT
ATOM      1  N   UNL     1       1.257  -2.941   1.556  0.00  0.00    -0.188 NA
ATOM      2  H   UNL     1       2.028  -3.415   1.903  0.00  0.00    +0.148 HD
ENDROOT
BRANCH   1   3
ATOM      3  C   UNL     1       0.112  -2.666   2.427  0.00  0.00    +0.062 C 
ATOM      4  C   UNL     1      -0.838  -3.878   2.397  0.00  0.00    +0.019 C 
ATOM      5  C   UNL     1      -1.805  -3.881   3.550  0.00  0.00    +0.001 C 
ATOM      6  C   UNL     1      -1.210  -4.738   4.686  0.00  0.00    -0.000 C 
ATOM      7  C   UNL     1      -0.215  -4.015   5.463  0.00  0.00    -0.002 C 
ATOM      8  C   UNL     1       0.999  -3.587   4.613  0.00  0.00    -0.015 C 
ATOM      9  C   UNL     1       0.630  -2.351   3.844  0.00  0.00    -0.056 C 
BRANCH   9  10
ATOM     10  N   UNL     1       1.817  -1.491   3.735  0.00  0.00    +0.381 N 
ATOM     11  H   UNL     1       1.569  -0.634   3.264  0.00  0.00    -0.090 HD
ATOM     12  H   UNL     1       2.164  -1.279   4.658  0.00  0.00    -0.090 HD
ATOM     13  H   UNL     1       2.532  -1.969   3.208  0.00  0.00    -0.090 HD
ENDBRANCH   9  10
ENDBRANCH   1   3
BRANCH   1  14
ATOM     14  S   UNL     1       1.234  -2.442  -0.023  0.00  0.00    +0.064 S 
ATOM     15  O   UNL     1      -0.011  -2.861  -0.564  0.00  0.00    -0.153 OA
ATOM     16  O   UNL     1       2.479  -2.828  -0.589  0.00  0.00    -0.153 OA
BRANCH  14  21
ATOM     17  C   UNL     1      -0.017   1.380   0.010  0.00  0.00    +0.078 A 
ATOM     18  C   UNL     1       1.173   2.088   0.002  0.00  0.00    +0.129 A 
ATOM     19  C   UNL     1       2.381   1.413  -0.013  0.00  0.00    +0.078 A 
ATOM     20  C   UNL     1       2.400   0.029  -0.021  0.00  0.00    +0.155 A 
ATOM     21  C   UNL     1       1.210  -0.680  -0.013  0.00  0.00    +0.175 A 
ATOM     22  C   UNL     1       0.002  -0.004   0.002  0.00  0.00    +0.155 A 
ATOM     23  F   UNL     1      -1.159  -0.695   0.009  0.00  0.00    -0.203 F 
ATOM     24  F   UNL     1       3.579  -0.631  -0.036  0.00  0.00    -0.203 F 
ATOM     25  F   UNL     1       1.154   3.439   0.009  0.00  0.00    -0.205 F 
ENDBRANCH  14  21
ENDBRANCH   1  14
TORSDOF 4
