REMARK  Name = ZINC35004547
REMARK  12 active torsions:
REMARK  status: ('A' for Active; 'I' for Inactive)
REMARK    1  A    between atoms: C_1  and  C_2
REMARK    2  A    between atoms: C_2  and  C_3
REMARK    3  A    between atoms: C_3  and  C_4
REMARK    4  A    between atoms: C_4  and  N_5
REMARK    5  A    between atoms: C_13  and  C_15
REMARK    6  A    between atoms: C_16  and  C_18
REMARK    7  A    between atoms: C_18  and  C_20
REMARK    8  A    between atoms: C_18  and  N_25
REMARK    9  A    between atoms: C_20  and  C_22
REMARK   10  A    between atoms: C_20  and  C_23
REMARK   11  A    between atoms: C_23  and  C_24
REMARK   12  A    between atoms: N_28  and  C_29
REMARK                            x       y       z     vdW  Elec       q    Type
REMARK                         _______ _______ _______ _____ _____    ______ ____
ROOT
ATOM      1  C   UNL     1       5.901  -4.467   7.146  0.00  0.00    +0.163 C 
ENDROOT
BRANCH   1  12
ATOM      2  N   UNL     1       0.091  -4.614   3.895  0.00  0.00    -0.299 N 
ATOM      3  C   UNL     1       0.839  -5.735   3.890  0.00  0.00    +0.303 C 
ATOM      4  O   UNL     1       0.536  -6.665   3.167  0.00  0.00    -0.253 OA
ATOM      5  N   UNL     1       1.923  -5.826   4.686  0.00  0.00    -0.280 N 
ATOM      6  C   UNL     1       2.235  -4.761   5.649  0.00  0.00    +0.128 C 
ATOM      7  C   UNL     1       3.664  -4.269   5.391  0.00  0.00    +0.127 C 
ATOM      8  N   UNL     1       4.555  -5.435   5.311  0.00  0.00    -0.297 N 
ATOM      9  C   UNL     1       4.243  -6.500   4.347  0.00  0.00    +0.130 C 
ATOM     10  C   UNL     1       2.811  -6.995   4.610  0.00  0.00    +0.092 C 
ATOM     11  C   UNL     1       2.763  -7.763   5.933  0.00  0.00    +0.030 C 
ATOM     12  C   UNL     1       5.638  -5.526   6.107  0.00  0.00    +0.236 C 
ATOM     13  O   UNL     1       6.402  -6.460   5.987  0.00  0.00    -0.274 OA
ATOM     14  H   UNL     1       0.289  -3.902   4.523  0.00  0.00    +0.150 HD
BRANCH   2  15
ATOM     15  C   UNL     1      -1.020  -4.470   2.950  0.00  0.00    +0.106 C 
BRANCH  15  16
ATOM     16  C   UNL     1      -1.698  -3.116   3.165  0.00  0.00    +0.018 C 
BRANCH  16  18
ATOM     17  C   UNL     1      -3.538  -1.611   2.393  0.00  0.00    +0.004 C 
ATOM     18  C   UNL     1      -2.859  -2.965   2.179  0.00  0.00    -0.002 C 
ENDBRANCH  16  18
ENDBRANCH  15  16
ENDBRANCH   2  15
ENDBRANCH   1  12
BRANCH   1  19
ATOM     19  N   UNL     1       7.346  -4.278   7.297  0.00  0.00    -0.288 N 
ATOM     20  C   UNL     1       7.828  -3.104   7.751  0.00  0.00    +0.305 C 
ATOM     21  O   UNL     1       7.064  -2.202   8.035  0.00  0.00    -0.252 OA
ATOM     22  N   UNL     1       9.158  -2.930   7.889  0.00  0.00    -0.268 N 
ATOM     23  H   UNL     1       7.955  -4.998   7.070  0.00  0.00    +0.151 HD
ATOM     24  H   UNL     1       9.769  -3.632   7.617  0.00  0.00    +0.156 HD
BRANCH  22  25
ATOM     25  C   UNL     1       9.655  -1.737   8.426  0.00  0.00    +0.049 A 
ATOM     26  C   UNL     1       8.949  -0.553   8.263  0.00  0.00    +0.024 A 
ATOM     27  C   UNL     1       9.442   0.623   8.795  0.00  0.00    +0.002 A 
ATOM     28  C   UNL     1      10.638   0.622   9.489  0.00  0.00    +0.001 A 
ATOM     29  C   UNL     1      11.344  -0.555   9.653  0.00  0.00    +0.017 A 
ATOM     30  C   UNL     1      10.854  -1.736   9.128  0.00  0.00    +0.039 A 
ATOM     31 BR   UNL     1      11.817  -3.347   9.360  0.00  0.00    -0.048 Br
ENDBRANCH  22  25
ENDBRANCH   1  19
BRANCH   1  32
ATOM     32  C   UNL     1       5.302  -4.906   8.484  0.00  0.00    +0.015 C 
ATOM     33  C   UNL     1       3.777  -4.951   8.370  0.00  0.00    +0.010 C 
BRANCH  32  34
ATOM     34  C   UNL     1       5.827  -6.297   8.846  0.00  0.00    +0.002 C 
ATOM     35  C   UNL     1       5.328  -6.683  10.240  0.00  0.00    +0.004 C 
ENDBRANCH  32  34
ENDBRANCH   1  32
TORSDOF 8
