REMARK  Name = ZINC02802239
REMARK  10 active torsions:
REMARK  status: ('A' for Active; 'I' for Inactive)
REMARK    1  A    between atoms: C_1  and  C_2
REMARK    2  A    between atoms: C_2  and  N_3
REMARK    3  A    between atoms: C_4  and  C_31
REMARK    4  A    between atoms: C_5  and  N_8
REMARK    5  A    between atoms: N_8  and  C_9
REMARK    6  A    between atoms: C_9  and  N_11
REMARK    7  A    between atoms: N_11  and  N_12
REMARK    8  A    between atoms: C_13  and  C_15
REMARK    9  A    between atoms: C_21  and  C_30
REMARK   10  A    between atoms: C_24  and  C_26
REMARK                            x       y       z     vdW  Elec       q    Type
REMARK                         _______ _______ _______ _____ _____    ______ ____
ROOT
ATOM      1  N   UNL     1       0.121   0.533  -5.002  0.00  0.00    -0.231 N 
ATOM      2  C   UNL     1       0.197   0.957  -6.279  0.00  0.00    +0.265 C 
ATOM      3  O   UNL     1       0.287   0.148  -7.184  0.00  0.00    -0.268 OA
ATOM      4  H   UNL     1       0.050   1.178  -4.281  0.00  0.00    +0.173 HD
ENDROOT
BRANCH   2   5
ATOM      5  C   UNL     1       0.172   2.393  -6.579  0.00  0.00    +0.097 A 
ATOM      6  C   UNL     1       0.066   3.449  -5.641  0.00  0.00    +0.149 A 
ATOM      7  N   UNL     1       0.082   4.578  -6.294  0.00  0.00    -0.177 NA
ATOM      8  N   UNL     1       0.186   4.315  -7.660  0.00  0.00    -0.238 N 
ATOM      9  C   UNL     1       0.241   2.977  -7.837  0.00  0.00    +0.130 A 
ATOM     10  N   UNL     1       0.347   2.339  -9.055  0.00  0.00    -0.326 N 
ATOM     11  C   UNL     1       0.817   3.270 -10.092  0.00  0.00    +0.071 C 
ATOM     12  C   UNL     1      -0.038   4.542 -10.066  0.00  0.00    +0.058 C 
ATOM     13  C   UNL     1       0.231   5.293  -8.754  0.00  0.00    +0.214 C 
ATOM     14  C   UNL     1       0.700   2.605 -11.465  0.00  0.00    +0.028 C 
ATOM     15  H   UNL     1       0.951   1.534  -8.991  0.00  0.00    +0.148 HD
BRANCH  13  16
ATOM     16  C   UNL     1      -0.843   6.362  -8.540  0.00  0.00    +0.412 C 
ATOM     17  F   UNL     1      -0.613   7.016  -7.325  0.00  0.00    -0.168 F 
ATOM     18  F   UNL     1      -0.793   7.289  -9.586  0.00  0.00    -0.168 F 
ATOM     19  F   UNL     1      -2.104   5.756  -8.512  0.00  0.00    -0.168 F 
ENDBRANCH  13  16
ENDBRANCH   2   5
BRANCH   1  20
ATOM     20  N   UNL     1       0.145  -0.838  -4.715  0.00  0.00    -0.245 N 
ATOM     21  H   UNL     1       0.216  -1.483  -5.436  0.00  0.00    +0.172 HD
BRANCH  20  22
ATOM     22  C   UNL     1       0.069  -1.261  -3.438  0.00  0.00    +0.151 C 
ATOM     23  S   UNL     1       0.099  -2.937  -3.088  0.00  0.00    -0.017 S 
BRANCH  22  24
ATOM     24  N   UNL     1      -0.030  -0.365  -2.436  0.00  0.00    -0.293 N 
ATOM     25  H   UNL     1      -0.130   0.579  -2.637  0.00  0.00    +0.154 HD
BRANCH  24  28
ATOM     26  N   UNL     1      -0.274  -0.904   1.073  0.00  0.00    -0.267 N 
ATOM     27  C   UNL     1      -0.527  -0.154  -0.031  0.00  0.00    +0.057 A 
ATOM     28  C   UNL     1       0.012  -0.799  -1.097  0.00  0.00    +0.074 A 
ATOM     29  C   UNL     1       0.619  -1.972  -0.628  0.00  0.00    +0.158 A 
ATOM     30  N   UNL     1       0.445  -2.036   0.667  0.00  0.00    -0.178 NA
ATOM     31  C   UNL     1      -1.275   1.154  -0.066  0.00  0.00    +0.067 C 
BRANCH  26  33
ATOM     32  C   UNL     1      -2.059  -1.189   2.720  0.00  0.00    +0.029 C 
ATOM     33  C   UNL     1      -0.680  -0.586   2.444  0.00  0.00    +0.140 C 
ENDBRANCH  26  33
ENDBRANCH  24  28
ENDBRANCH  22  24
ENDBRANCH  20  22
ENDBRANCH   1  20
TORSDOF 7
