REMARK  Name = ZINC35774808
REMARK  5 active torsions:
REMARK  status: ('A' for Active; 'I' for Inactive)
REMARK    1  A    between atoms: C_1  and  C_2
REMARK    2  A    between atoms: N_8  and  C_9
REMARK    3  A    between atoms: C_9  and  C_11
REMARK    4  A    between atoms: C_9  and  C_13
REMARK    5  A    between atoms: C_11  and  N_12
REMARK                            x       y       z     vdW  Elec       q    Type
REMARK                         _______ _______ _______ _____ _____    ______ ____
ROOT
ATOM      1  C   UNL     1       0.293  -0.088   2.426  0.00  0.00    +0.070 C 
ENDROOT
BRANCH   1   2
ATOM      2  C   UNL     1       1.234  -0.092   3.603  0.00  0.00    -0.027 A 
ATOM      3  C   UNL     1       1.387   1.051   4.366  0.00  0.00    +0.054 A 
ATOM      4  C   UNL     1       2.252   1.051   5.449  0.00  0.00    +0.168 A 
ATOM      5  C   UNL     1       2.965  -0.103   5.766  0.00  0.00    +0.180 A 
ATOM      6  C   UNL     1       2.806  -1.244   4.997  0.00  0.00    +0.064 A 
ATOM      7  C   UNL     1       1.937  -1.238   3.920  0.00  0.00    +0.024 A 
ATOM      8 BR   UNL     1       3.772  -2.813   5.423  0.00  0.00    -0.046 Br
ATOM      9  O   UNL     1       3.738   0.150   6.862  0.00  0.00    -0.451 OA
ATOM     10  C   UNL     1       3.801   1.585   6.966  0.00  0.00    +0.466 C 
ATOM     11  O   UNL     1       2.578   2.026   6.346  0.00  0.00    -0.453 OA
ENDBRANCH   1   2
BRANCH   1  18
ATOM     12  C   UNL     1       0.909   1.350   0.042  0.00  0.00    +0.026 C 
ATOM     13  C   UNL     1       0.537  -0.134   0.016  0.00  0.00    +0.080 C 
ATOM     14  C   UNL     1       1.269  -0.824  -1.137  0.00  0.00    +0.178 C 
ATOM     15  O   UNL     1       0.977  -2.224  -1.111  0.00  0.00    -0.377 OA
ATOM     16  C   UNL     1       1.350  -2.867   0.111  0.00  0.00    +0.175 C 
ATOM     17  C   UNL     1       0.619  -2.197   1.278  0.00  0.00    +0.113 C 
ATOM     18  N   UNL     1       0.932  -0.760   1.286  0.00  0.00    -0.290 NA
ENDBRANCH   1  18
BRANCH   1  19
ATOM     19  C   UNL     1      -0.993  -0.829   2.799  0.00  0.00    -0.063 C 
BRANCH  19  20
ATOM     20  N   UNL     1      -1.912  -0.822   1.653  0.00  0.00    +0.379 N 
ATOM     21  H   UNL     1      -2.784  -1.256   1.917  0.00  0.00    -0.090 HD
ATOM     22  H   UNL     1      -2.085   0.130   1.366  0.00  0.00    -0.090 HD
ATOM     23  H   UNL     1      -1.500  -1.334   0.887  0.00  0.00    -0.090 HD
ENDBRANCH  19  20
ENDBRANCH   1  19
TORSDOF 4
