REMARK  Name = ZINC20133679
REMARK  6 active torsions:
REMARK  status: ('A' for Active; 'I' for Inactive)
REMARK    1  A    between atoms: C_1  and  C_2
REMARK    2  A    between atoms: C_2  and  C_4
REMARK    3  A    between atoms: C_2  and  N_12
REMARK    4  A    between atoms: C_6  and  O_11
REMARK    5  A    between atoms: C_9  and  O_10
REMARK    6  A    between atoms: N_12  and  C_13
REMARK                            x       y       z     vdW  Elec       q    Type
REMARK                         _______ _______ _______ _____ _____    ______ ____
ROOT
ATOM      1  N   UNL     1      -1.365   3.647   0.373  0.00  0.00    +0.388 N 
ATOM      2  H   UNL     1      -0.934   3.451   1.366  0.00  0.00    -0.084 HD
ATOM      3  H   UNL     1      -0.817   4.471  -0.108  0.00  0.00    -0.084 HD
ENDROOT
BRANCH   1   4
ATOM      4  C   UNL     1      -2.768   4.048   0.539  0.00  0.00    -0.040 C 
ATOM      5  C   UNL     1      -2.935   5.498   0.090  0.00  0.00    -0.011 C 
ATOM      6  C   UNL     1      -4.345   5.964   0.471  0.00  0.00    +0.003 C 
ATOM      7  C   UNL     1      -4.416   6.089   1.992  0.00  0.00    +0.035 C 
ATOM      8  C   UNL     1      -3.921   4.829   2.651  0.00  0.00    -0.046 A 
ATOM      9  C   UNL     1      -3.161   3.893   1.985  0.00  0.00    -0.058 A 
ATOM     10  C   UNL     1      -2.731   2.755   2.654  0.00  0.00    +0.002 A 
ATOM     11  C   UNL     1      -3.061   2.552   3.978  0.00  0.00    +0.000 A 
ATOM     12  C   UNL     1      -3.827   3.489   4.645  0.00  0.00    +0.000 A 
ATOM     13  C   UNL     1      -4.254   4.622   3.983  0.00  0.00    +0.004 A 
ENDBRANCH   1   4
BRANCH   1  15
ATOM     14  C   UNL     1      -1.342   2.824  -1.934  0.00  0.00    -0.009 C 
ATOM     15  C   UNL     1      -1.257   2.439  -0.455  0.00  0.00    -0.040 C 
BRANCH  15  16
ATOM     16  C   UNL     1       0.063   1.762  -0.188  0.00  0.00    -0.017 A 
ATOM     17  C   UNL     1       1.104   2.477   0.374  0.00  0.00    +0.051 A 
ATOM     18  C   UNL     1       2.320   1.856   0.615  0.00  0.00    +0.117 A 
ATOM     19  C   UNL     1       2.492   0.518   0.292  0.00  0.00    +0.049 A 
ATOM     20  C   UNL     1       1.451  -0.196  -0.269  0.00  0.00    +0.049 A 
ATOM     21  C   UNL     1       0.235   0.425  -0.510  0.00  0.00    +0.119 A 
BRANCH  21  22
ATOM     22  O   UNL     1      -0.789  -0.278  -1.064  0.00  0.00    -0.507 OA
ATOM     23  H   UNL     1      -0.653  -1.339  -1.320  0.00  0.00    +0.292 HD
ENDBRANCH  21  22
BRANCH  18  24
ATOM     24  O   UNL     1       3.344   2.559   1.168  0.00  0.00    -0.507 OA
ATOM     25  H   UNL     1       4.309   2.066   1.359  0.00  0.00    +0.292 HD
ENDBRANCH  18  24
ENDBRANCH  15  16
ENDBRANCH   1  15
TORSDOF 5
