REMARK  Name = ZINC60379926
REMARK  5 active torsions:
REMARK  status: ('A' for Active; 'I' for Inactive)
REMARK    1  A    between atoms: C_7  and  N_19
REMARK    2  A    between atoms: N_11  and  C_12
REMARK    3  A    between atoms: C_15  and  O_18
REMARK    4  A    between atoms: N_19  and  C_20
REMARK    5  A    between atoms: C_23  and  O_26
REMARK                            x       y       z     vdW  Elec       q    Type
REMARK                         _______ _______ _______ _____ _____    ______ ____
ROOT
ATOM      1  C   UNL     1      -0.016   1.360   0.009  0.00  0.00    +0.001 A 
ATOM      2  C   UNL     1       1.168   2.091   0.002  0.00  0.00    +0.002 A 
ATOM      3  C   UNL     1       2.379   1.465  -0.013  0.00  0.00    +0.026 A 
ATOM      4  C   UNL     1       2.435   0.065  -0.021  0.00  0.00    +0.052 A 
ATOM      5  C   UNL     1       1.228  -0.677  -0.013  0.00  0.00    +0.038 A 
ATOM      6  C   UNL     1       0.002  -0.004   0.002  0.00  0.00    +0.013 A 
ATOM      7  C   UNL     1       1.310  -2.092  -0.021  0.00  0.00    +0.132 A 
ATOM      8  N   UNL     1       2.510  -2.652  -0.035  0.00  0.00    -0.201 NA
ATOM      9  C   UNL     1       3.619  -1.918  -0.043  0.00  0.00    +0.195 A 
ATOM     10  N   UNL     1       3.601  -0.598  -0.036  0.00  0.00    -0.327 N 
ATOM     11  N   UNL     1       4.841  -2.563  -0.057  0.00  0.00    -0.312 N 
ATOM     12  H   UNL     1       4.878  -3.533  -0.062  0.00  0.00    +0.149 HD
ATOM     13  H   UNL     1       4.436  -0.105  -0.042  0.00  0.00    +0.169 HD
ENDROOT
BRANCH  11  14
ATOM     14  C   UNL     1       6.082  -1.784  -0.065  0.00  0.00    +0.073 C 
ATOM     15  C   UNL     1       6.433  -1.399  -1.504  0.00  0.00    +0.025 C 
ATOM     16  C   UNL     1       6.622  -2.667  -2.339  0.00  0.00    +0.033 C 
ATOM     17  C   UNL     1       7.755  -3.505  -1.744  0.00  0.00    +0.115 C 
ATOM     18  C   UNL     1       7.404  -3.890  -0.305  0.00  0.00    +0.033 C 
ATOM     19  C   UNL     1       7.215  -2.622   0.530  0.00  0.00    +0.025 C 
BRANCH  17  20
ATOM     20  O   UNL     1       7.932  -4.690  -2.524  0.00  0.00    -0.392 OA
ATOM     21  H   UNL     1       8.636  -5.270  -2.204  0.00  0.00    +0.210 HD
ENDBRANCH  17  20
ENDBRANCH  11  14
BRANCH   7  22
ATOM     22  N   UNL     1       0.168  -2.865  -0.013  0.00  0.00    -0.326 N 
ATOM     23  H   UNL     1      -0.704  -2.442  -0.002  0.00  0.00    +0.148 HD
BRANCH  22  24
ATOM     24  C   UNL     1       0.274  -4.326  -0.022  0.00  0.00    +0.072 C 
ATOM     25  C   UNL     1       0.421  -4.819  -1.463  0.00  0.00    +0.025 C 
ATOM     26  C   UNL     1      -0.802  -4.391  -2.276  0.00  0.00    +0.033 C 
ATOM     27  C   UNL     1      -2.063  -4.997  -1.656  0.00  0.00    +0.115 C 
ATOM     28  C   UNL     1      -2.211  -4.504  -0.215  0.00  0.00    +0.033 C 
ATOM     29  C   UNL     1      -0.988  -4.932   0.598  0.00  0.00    +0.025 C 
BRANCH  27  30
ATOM     30  O   UNL     1      -3.206  -4.597  -2.416  0.00  0.00    -0.392 OA
ATOM     31  H   UNL     1      -4.043  -4.945  -2.079  0.00  0.00    +0.210 HD
ENDBRANCH  27  30
ENDBRANCH  22  24
ENDBRANCH   7  22
TORSDOF 5
