REMARK  Name = ZINC02347213
REMARK  12 active torsions:
REMARK  status: ('A' for Active; 'I' for Inactive)
REMARK    1  A    between atoms: C_1  and  C_2
REMARK    2  A    between atoms: C_2  and  O_3
REMARK    3  A    between atoms: O_3  and  C_4
REMARK    4  A    between atoms: C_8  and  C_11
REMARK    5  A    between atoms: C_9  and  O_10
REMARK    6  A    between atoms: N_12  and  N_13
REMARK    7  A    between atoms: C_14  and  C_16
REMARK    8  A    between atoms: C_16  and  S_17
REMARK    9  A    between atoms: S_17  and  C_18
REMARK   10  A    between atoms: C_21  and  C_29
REMARK   11  A    between atoms: N_22  and  C_23
REMARK   12  A    between atoms: C_32  and  C_35
REMARK                            x       y       z     vdW  Elec       q    Type
REMARK                         _______ _______ _______ _____ _____    ______ ____
ROOT
ATOM      1  S   UNL     1       5.263  -2.502   8.928  0.00  0.00    -0.076 S 
ENDROOT
BRANCH   1   2
ATOM      2  C   UNL     1       6.055  -3.337  10.262  0.00  0.00    +0.197 A 
ATOM      3  N   UNL     1       6.170  -4.638  10.409  0.00  0.00    -0.122 NA
ATOM      4  N   UNL     1       6.805  -4.906  11.494  0.00  0.00    -0.128 NA
ATOM      5  C   UNL     1       7.136  -3.794  12.107  0.00  0.00    +0.169 A 
ATOM      6  N   UNL     1       6.671  -2.752  11.334  0.00  0.00    -0.270 N 
BRANCH   5   7
ATOM      7  C   UNL     1       7.873  -3.680  13.383  0.00  0.00    +0.020 A 
ATOM      8  C   UNL     1       7.883  -2.472  14.082  0.00  0.00    +0.012 A 
ATOM      9  C   UNL     1       8.573  -2.372  15.273  0.00  0.00    +0.004 A 
ATOM     10  C   UNL     1       9.254  -3.467  15.775  0.00  0.00    -0.050 A 
ATOM     11  C   UNL     1       9.248  -4.668  15.087  0.00  0.00    +0.004 A 
ATOM     12  C   UNL     1       8.557  -4.782  13.899  0.00  0.00    +0.012 A 
ATOM     13  C   UNL     1      10.005  -3.351  17.076  0.00  0.00    +0.044 C 
ENDBRANCH   5   7
BRANCH   6  14
ATOM     14  C   UNL     1       6.800  -1.381  11.594  0.00  0.00    +0.051 A 
ATOM     15  C   UNL     1       8.056  -0.788  11.596  0.00  0.00    +0.026 A 
ATOM     16  C   UNL     1       8.179   0.564  11.852  0.00  0.00    +0.002 A 
ATOM     17  C   UNL     1       7.054   1.326  12.106  0.00  0.00    +0.000 A 
ATOM     18  C   UNL     1       5.802   0.739  12.105  0.00  0.00    +0.002 A 
ATOM     19  C   UNL     1       5.672  -0.612  11.844  0.00  0.00    +0.026 A 
ENDBRANCH   6  14
ENDBRANCH   1   2
BRANCH   1  20
ATOM     20  C   UNL     1       4.664  -3.843   7.864  0.00  0.00    +0.174 C 
BRANCH  20  22
ATOM     21  N   UNL     1       3.426  -4.073   5.735  0.00  0.00    -0.206 N 
ATOM     22  C   UNL     1       3.957  -3.259   6.668  0.00  0.00    +0.242 C 
ATOM     23  O   UNL     1       3.866  -2.055   6.546  0.00  0.00    -0.273 OA
ATOM     24  H   UNL     1       3.499  -5.035   5.833  0.00  0.00    +0.177 HD
BRANCH  21  26
ATOM     25  C   UNL     1       2.257  -4.314   3.725  0.00  0.00    +0.142 C 
ATOM     26  N   UNL     1       2.768  -3.530   4.624  0.00  0.00    -0.188 NA
BRANCH  25  31
ATOM     27  C   UNL     1       0.802  -1.825   1.306  0.00  0.00    +0.162 A 
ATOM     28  C   UNL     1       0.260  -2.672   0.351  0.00  0.00    +0.049 A 
ATOM     29  C   UNL     1       0.366  -4.045   0.493  0.00  0.00    +0.004 A 
ATOM     30  C   UNL     1       1.013  -4.583   1.586  0.00  0.00    +0.013 A 
ATOM     31  C   UNL     1       1.565  -3.742   2.556  0.00  0.00    +0.040 A 
ATOM     32  C   UNL     1       1.462  -2.353   2.409  0.00  0.00    +0.167 A 
BRANCH  32  33
ATOM     33  O   UNL     1       2.000  -1.526   3.343  0.00  0.00    -0.503 OA
ATOM     34  H   UNL     1       1.394  -1.300   4.063  0.00  0.00    +0.292 HD
ENDBRANCH  32  33
BRANCH  27  35
ATOM     35  O   UNL     1       0.693  -0.477   1.160  0.00  0.00    -0.489 OA
BRANCH  35  37
ATOM     36  C   UNL     1      -0.019   1.526   0.010  0.00  0.00    +0.048 C 
ATOM     37  C   UNL     1       0.002  -0.004   0.002  0.00  0.00    +0.226 C 
ENDBRANCH  35  37
ENDBRANCH  27  35
ENDBRANCH  25  31
ENDBRANCH  21  26
ENDBRANCH  20  22
ENDBRANCH   1  20
TORSDOF 10
