REMARK  Name = ZINC64636170
REMARK  8 active torsions:
REMARK  status: ('A' for Active; 'I' for Inactive)
REMARK    1  A    between atoms: C_1  and  C_2
REMARK    2  A    between atoms: N_11  and  C_14
REMARK    3  A    between atoms: C_14  and  C_15
REMARK    4  A    between atoms: C_14  and  C_16
REMARK    5  A    between atoms: N_21  and  C_22
REMARK    6  A    between atoms: C_22  and  C_23
REMARK    7  A    between atoms: C_23  and  C_24
REMARK    8  A    between atoms: C_23  and  C_25
REMARK                            x       y       z     vdW  Elec       q    Type
REMARK                         _______ _______ _______ _____ _____    ______ ____
ROOT
ATOM      1  C   UNL     1       0.761   0.995  -0.174  0.00  0.00    +0.066 C 
ATOM      2  C   UNL     1       0.638  -0.506  -0.106  0.00  0.00    +0.047 A 
ATOM      3  C   UNL     1       0.625  -1.266  -1.227  0.00  0.00    +0.071 A 
ATOM      4  S   UNL     1       0.465  -2.898  -0.522  0.00  0.00    -0.060 S 
ATOM      5  C   UNL     1       0.431  -2.449   1.100  0.00  0.00    +0.161 A 
ATOM      6  N   UNL     1       0.543  -1.138   1.050  0.00  0.00    -0.230 NA
ATOM      7  N   UNL     1       0.318  -3.262   2.217  0.00  0.00    -0.311 N 
ATOM      8  C   UNL     1       0.304  -2.636   3.554  0.00  0.00    +0.105 C 
ATOM      9  C   UNL     1      -0.743  -3.301   4.466  0.00  0.00    +0.000 C 
ATOM     10  C   UNL     1      -1.990  -3.602   3.664  0.00  0.00    -0.076 C 
ATOM     11  N   UNL     1      -1.918  -4.969   3.153  0.00  0.00    +0.388 N 
ATOM     12  C   UNL     1      -1.268  -5.105   1.906  0.00  0.00    -0.059 C 
ATOM     13  C   UNL     1       0.213  -4.694   2.030  0.00  0.00    +0.088 C 
ATOM     14  H   UNL     1      -1.430  -5.536   3.830  0.00  0.00    -0.081 HD
ENDROOT
BRANCH  11  15
ATOM     15  C   UNL     1      -3.286  -5.487   3.022  0.00  0.00    +0.017 C 
ATOM     16  C   UNL     1      -4.123  -4.514   2.189  0.00  0.00    -0.004 C 
BRANCH  15  17
ATOM     17  C   UNL     1      -3.901  -5.636   4.390  0.00  0.00    +0.207 C 
ATOM     18  O   UNL     1      -3.326  -5.198   5.363  0.00  0.00    -0.277 OA
ATOM     19  N   UNL     1      -5.089  -6.255   4.531  0.00  0.00    -0.242 N 
ATOM     20  C   UNL     1      -5.639  -6.388   5.754  0.00  0.00    +0.306 C 
ATOM     21  O   UNL     1      -5.063  -5.949   6.730  0.00  0.00    -0.252 OA
ATOM     22  N   UNL     1      -6.828  -7.007   5.895  0.00  0.00    -0.299 N 
ATOM     23  H   UNL     1      -5.549  -6.605   3.752  0.00  0.00    +0.159 HD
ATOM     24  H   UNL     1      -7.288  -7.357   5.116  0.00  0.00    +0.150 HD
BRANCH  22  25
ATOM     25  C   UNL     1      -7.425  -7.151   7.225  0.00  0.00    +0.108 C 
BRANCH  25  26
ATOM     26  C   UNL     1      -8.763  -7.884   7.106  0.00  0.00    -0.000 C 
ATOM     27  C   UNL     1      -9.327  -8.145   8.505  0.00  0.00    +0.009 C 
ATOM     28  C   UNL     1      -9.747  -7.024   6.311  0.00  0.00    +0.009 C 
ENDBRANCH  25  26
ENDBRANCH  22  25
ENDBRANCH  15  17
ENDBRANCH  11  15
TORSDOF 4
