REMARK  Name = ZINC63637667
REMARK  2 active torsions:
REMARK  status: ('A' for Active; 'I' for Inactive)
REMARK    1  A    between atoms: C_3  and  O_27
REMARK    2  A    between atoms: C_4  and  C_8
REMARK                            x       y       z     vdW  Elec       q    Type
REMARK                         _______ _______ _______ _____ _____    ______ ____
ROOT
ATOM      1  C   UNL     1       3.711  -0.716  -0.038  0.00  0.00    +0.076 C 
ATOM      2  C   UNL     1       3.814  -1.593   1.212  0.00  0.00    +0.148 C 
ATOM      3  C   UNL     1       4.941  -2.573   0.985  0.00  0.00    +0.106 C 
ATOM      4  N   UNL     1       5.954  -2.664   1.790  0.00  0.00    -0.151 NA
ATOM      5  C   UNL     1       6.091  -1.882   2.869  0.00  0.00    +0.331 C 
ATOM      6  O   UNL     1       7.054  -2.037   3.597  0.00  0.00    -0.250 OA
ATOM      7  N   UNL     1       5.192  -0.930   3.167  0.00  0.00    -0.238 N 
ATOM      8  C   UNL     1       4.088  -0.741   2.417  0.00  0.00    +0.231 C 
ATOM      9  O   UNL     1       3.303   0.134   2.715  0.00  0.00    -0.275 OA
ATOM     10  N   UNL     1       4.847  -3.358  -0.131  0.00  0.00    -0.307 N 
ATOM     11  C   UNL     1       4.337  -2.796  -1.281  0.00  0.00    +0.016 C 
ATOM     12  C   UNL     1       3.788  -1.569  -1.283  0.00  0.00    +0.021 C 
ATOM     13  C   UNL     1       3.263  -1.018  -2.470  0.00  0.00    +0.161 C 
ATOM     14  O   UNL     1       2.752   0.083  -2.439  0.00  0.00    -0.292 OA
ATOM     15  C   UNL     1       3.322  -1.766  -3.773  0.00  0.00    +0.080 C 
ATOM     16  C   UNL     1       4.533  -2.705  -3.752  0.00  0.00    +0.014 C 
ATOM     17  C   UNL     1       4.409  -3.620  -2.545  0.00  0.00    +0.051 C 
ATOM     18  H   UNL     1       5.338  -0.366   3.942  0.00  0.00    +0.159 HD
ATOM     19  H   UNL     1       5.131  -4.285  -0.114  0.00  0.00    +0.153 HD
ENDROOT
BRANCH   1  23
ATOM     20  C   UNL     1      -0.017   1.379   0.010  0.00  0.00    +0.019 A 
ATOM     21  C   UNL     1       1.170   2.087   0.002  0.00  0.00    +0.047 A 
ATOM     22  C   UNL     1       2.380   1.410  -0.013  0.00  0.00    +0.121 A 
ATOM     23  C   UNL     1       2.397   0.022  -0.021  0.00  0.00    +0.004 A 
ATOM     24  C   UNL     1       1.208  -0.681  -0.013  0.00  0.00    +0.023 A 
ATOM     25  C   UNL     1       0.002  -0.004   0.002  0.00  0.00    +0.018 A 
ATOM     26 BR   UNL     1      -1.623  -0.971   0.012  0.00  0.00    -0.050 Br
BRANCH  22  27
ATOM     27  O   UNL     1       3.548   2.104  -0.021  0.00  0.00    -0.506 OA
ATOM     28  H   UNL     1       3.895   2.301   0.860  0.00  0.00    +0.292 HD
ENDBRANCH  22  27
ENDBRANCH   1  23
TORSDOF 2
