REMARK  Name = ZINC37566160
REMARK  3 active torsions:
REMARK  status: ('A' for Active; 'I' for Inactive)
REMARK    1  A    between atoms: C_8  and  C_10
REMARK    2  A    between atoms: C_10  and  N_11
REMARK    3  A    between atoms: C_12  and  C_14
REMARK                            x       y       z     vdW  Elec       q    Type
REMARK                         _______ _______ _______ _____ _____    ______ ____
ROOT
ATOM      1  N   UNL     1       5.275  -0.750  -1.193  0.00  0.00    -0.316 N 
ATOM      2  C   UNL     1       6.161  -0.781  -2.208  0.00  0.00    +0.199 C 
ATOM      3  O   UNL     1       5.899  -1.389  -3.224  0.00  0.00    -0.278 OA
ATOM      4  H   UNL     1       5.485  -0.264  -0.381  0.00  0.00    +0.149 HD
ENDROOT
BRANCH   2   5
ATOM      5  C   UNL     1       7.479  -0.061  -2.080  0.00  0.00    +0.017 C 
ATOM      6  C   UNL     1       8.296  -0.659  -0.912  0.00  0.00    -0.005 C 
ATOM      7  C   UNL     1       9.758  -0.589  -1.456  0.00  0.00    -0.026 C 
ATOM      8  C   UNL     1      10.206   0.868  -1.323  0.00  0.00    +0.002 C 
ATOM      9  C   UNL     1      11.436   1.133  -2.188  0.00  0.00    +0.000 C 
ATOM     10  C   UNL     1      11.067   0.891  -3.655  0.00  0.00    -0.002 C 
ATOM     11  C   UNL     1      10.684  -0.580  -3.822  0.00  0.00    -0.015 C 
ATOM     12  C   UNL     1       9.514  -0.961  -2.933  0.00  0.00    -0.068 C 
ATOM     13  N   UNL     1       8.280  -0.251  -3.310  0.00  0.00    +0.389 N 
ATOM     14  H   UNL     1       7.759  -0.801  -3.976  0.00  0.00    -0.084 HD
ATOM     15  H   UNL     1       8.510   0.646  -3.711  0.00  0.00    -0.084 HD
ENDBRANCH   2   5
BRANCH   1  16
ATOM     16  C   UNL     1       3.994  -1.450  -1.317  0.00  0.00    +0.112 C 
BRANCH  16  24
ATOM     17  C   UNL     1      -0.017   1.376   0.010  0.00  0.00    +0.000 A 
ATOM     18  C   UNL     1       1.169   2.087   0.002  0.00  0.00    +0.000 A 
ATOM     19  C   UNL     1       2.374   1.411  -0.013  0.00  0.00    +0.004 A 
ATOM     20  C   UNL     1       2.394   0.028  -0.021  0.00  0.00    -0.039 A 
ATOM     21  C   UNL     1       1.211  -0.689  -0.014  0.00  0.00    -0.043 A 
ATOM     22  C   UNL     1       0.002  -0.004   0.002  0.00  0.00    +0.004 A 
ATOM     23  C   UNL     1       1.874  -2.050  -0.028  0.00  0.00    +0.045 C 
ATOM     24  C   UNL     1       3.181  -1.257  -0.036  0.00  0.00    +0.041 C 
ENDBRANCH  16  24
ENDBRANCH   1  16
TORSDOF 3
