REMARK  Name = ZINC29635969
REMARK  7 active torsions:
REMARK  status: ('A' for Active; 'I' for Inactive)
REMARK    1  A    between atoms: C_4  and  N_21
REMARK    2  A    between atoms: C_5  and  C_7
REMARK    3  A    between atoms: N_9  and  C_10
REMARK    4  A    between atoms: C_13  and  O_17
REMARK    5  A    between atoms: O_17  and  C_18
REMARK    6  A    between atoms: C_22  and  C_24
REMARK    7  A    between atoms: C_27  and  N_31
REMARK                            x       y       z     vdW  Elec       q    Type
REMARK                         _______ _______ _______ _____ _____    ______ ____
ROOT
ATOM      1  C   UNL     1       0.174  -8.393   0.361  0.00  0.00    +0.001 A 
ATOM      2  C   UNL     1      -1.011  -9.112   0.318  0.00  0.00    +0.002 A 
ATOM      3  C   UNL     1      -2.223  -8.456   0.236  0.00  0.00    +0.024 A 
ATOM      4  C   UNL     1      -2.262  -7.069   0.202  0.00  0.00    +0.046 A 
ATOM      5  C   UNL     1      -1.065  -6.338   0.241  0.00  0.00    +0.058 A 
ATOM      6  C   UNL     1       0.154  -7.016   0.324  0.00  0.00    +0.015 A 
ENDROOT
BRANCH   5   7
ATOM      7  C   UNL     1      -1.093  -4.864   0.200  0.00  0.00    +0.250 C 
ATOM      8  O   UNL     1      -2.156  -4.276   0.238  0.00  0.00    -0.270 OA
ATOM      9  N   UNL     1       0.059  -4.170   0.122  0.00  0.00    -0.281 N 
ATOM     10  H   UNL     1       1.015  -4.702   0.003  0.00  0.00    +0.155 HD
BRANCH   9  11
ATOM     11  C   UNL     1       0.041  -2.772   0.193  0.00  0.00    +0.035 A 
ATOM     12  C   UNL     1       0.967  -2.027  -0.525  0.00  0.00    +0.027 A 
ATOM     13  C   UNL     1       0.948  -0.648  -0.455  0.00  0.00    +0.049 A 
ATOM     14  C   UNL     1       0.004  -0.006   0.332  0.00  0.00    +0.145 A 
ATOM     15  C   UNL     1      -0.919  -0.749   1.054  0.00  0.00    +0.084 A 
ATOM     16  C   UNL     1      -0.905  -2.129   0.981  0.00  0.00    +0.047 A 
ATOM     17 CL   UNL     1      -2.096   0.055   2.045  0.00  0.00    -0.080 Cl
BRANCH  14  18
ATOM     18  O   UNL     1      -0.013   1.352   0.401  0.00  0.00    -0.433 OA
BRANCH  18  19
ATOM     19  C   UNL     1       0.970   2.053  -0.364  0.00  0.00    +0.541 C 
ATOM     20  F   UNL     1       2.248   1.671   0.058  0.00  0.00    -0.166 F 
ATOM     21  F   UNL     1       0.815   1.743  -1.719  0.00  0.00    -0.166 F 
ENDBRANCH  18  19
ENDBRANCH  14  18
ENDBRANCH   9  11
ENDBRANCH   5   7
BRANCH   4  22
ATOM     22  N   UNL     1      -3.484  -6.406   0.125  0.00  0.00    -0.281 N 
ATOM     23  C   UNL     1      -4.596  -6.982   0.622  0.00  0.00    +0.250 C 
ATOM     24  O   UNL     1      -4.518  -8.035   1.223  0.00  0.00    -0.270 OA
ATOM     25  H   UNL     1      -3.541  -5.411  -0.342  0.00  0.00    +0.155 HD
BRANCH  23  26
ATOM     26  C   UNL     1      -5.910  -6.334   0.436  0.00  0.00    +0.055 A 
ATOM     27  C   UNL     1      -6.004  -5.123  -0.255  0.00  0.00    +0.017 A 
ATOM     28  C   UNL     1      -7.234  -4.524  -0.425  0.00  0.00    +0.033 A 
ATOM     29  C   UNL     1      -8.375  -5.118   0.086  0.00  0.00    +0.128 A 
ATOM     30  C   UNL     1      -8.291  -6.316   0.771  0.00  0.00    +0.053 A 
ATOM     31  C   UNL     1      -7.066  -6.931   0.945  0.00  0.00    +0.055 A 
ATOM     32 CL   UNL     1      -6.963  -8.439   1.798  0.00  0.00    -0.083 Cl
BRANCH  29  33
ATOM     33  N   UNL     1      -9.691  -4.467  -0.102  0.00  0.00    +0.056 N 
ATOM     34  O   UNL     1      -9.768  -3.412  -0.705  0.00  0.00    -0.126 OA
ATOM     35  O   UNL     1     -10.697  -4.987   0.347  0.00  0.00    -0.126 OA
ENDBRANCH  29  33
ENDBRANCH  23  26
ENDBRANCH   4  22
TORSDOF 7
