REMARK  Name = ZINC63407776
REMARK  5 active torsions:
REMARK  status: ('A' for Active; 'I' for Inactive)
REMARK    1  A    between atoms: C_8  and  O_26
REMARK    2  A    between atoms: C_9  and  N_10
REMARK    3  A    between atoms: N_13  and  C_14
REMARK    4  A    between atoms: N_17  and  C_20
REMARK    5  A    between atoms: C_20  and  C_21
REMARK                            x       y       z     vdW  Elec       q    Type
REMARK                         _______ _______ _______ _____ _____    ______ ____
ROOT
ATOM      1  N   UNL     1       4.336  -0.795   0.864  0.00  0.00    -0.290 N 
ATOM      2  C   UNL     1       5.280   0.041   1.341  0.00  0.00    +0.300 C 
ATOM      3  O   UNL     1       5.729   0.919   0.630  0.00  0.00    -0.253 OA
ATOM      4  N   UNL     1       5.726  -0.098   2.605  0.00  0.00    -0.297 N 
ATOM      5  H   UNL     1       3.978  -1.496   1.431  0.00  0.00    +0.151 HD
ATOM      6  H   UNL     1       5.368  -0.799   3.171  0.00  0.00    +0.151 HD
ENDROOT
BRANCH   1  15
ATOM      7  C   UNL     1       0.361   1.802  -0.679  0.00  0.00    +0.000 A 
ATOM      8  C   UNL     1       1.572   2.465  -0.596  0.00  0.00    +0.000 A 
ATOM      9  C   UNL     1       2.749   1.745  -0.538  0.00  0.00    +0.006 A 
ATOM     10  C   UNL     1       2.720   0.360  -0.561  0.00  0.00    -0.021 A 
ATOM     11  C   UNL     1       1.510  -0.302  -0.644  0.00  0.00    -0.040 A 
ATOM     12  C   UNL     1       0.331   0.422  -0.702  0.00  0.00    +0.004 A 
ATOM     13  C   UNL     1       1.745  -1.797  -0.654  0.00  0.00    +0.069 C 
ATOM     14  C   UNL     1       3.237  -1.970  -1.009  0.00  0.00    +0.143 C 
ATOM     15  C   UNL     1       3.851  -0.645  -0.510  0.00  0.00    +0.134 C 
BRANCH  14  16
ATOM     16  O   UNL     1       3.410  -2.110  -2.421  0.00  0.00    -0.389 OA
ATOM     17  H   UNL     1       2.967  -2.884  -2.796  0.00  0.00    +0.210 HD
ENDBRANCH  14  16
ENDBRANCH   1  15
BRANCH   4  18
ATOM     18  C   UNL     1       6.752   0.811   3.123  0.00  0.00    +0.071 C 
ATOM     19  C   UNL     1       8.140   0.287   2.742  0.00  0.00    +0.004 C 
ATOM     20  C   UNL     1       9.208   1.196   3.353  0.00  0.00    -0.077 C 
ATOM     21  N   UNL     1       9.070   1.204   4.815  0.00  0.00    +0.380 N 
ATOM     22  C   UNL     1       7.770   1.772   5.190  0.00  0.00    -0.077 C 
ATOM     23  C   UNL     1       6.647   0.885   4.649  0.00  0.00    +0.004 C 
ATOM     24  H   UNL     1       9.137   0.260   5.163  0.00  0.00    -0.082 HD
BRANCH  21  25
ATOM     25  C   UNL     1      10.145   2.016   5.402  0.00  0.00    -0.075 C 
BRANCH  25  26
ATOM     26  C   UNL     1      11.493   1.336   5.150  0.00  0.00    -0.028 C 
ATOM     27  C   UNL     1      11.570   0.010   5.934  0.00  0.00    +0.002 C 
ATOM     28  C   UNL     1      13.044  -0.068   6.404  0.00  0.00    +0.000 C 
ATOM     29  C   UNL     1      13.369   1.405   6.756  0.00  0.00    +0.000 C 
ATOM     30  C   UNL     1      12.636   2.224   5.673  0.00  0.00    +0.002 C 
ENDBRANCH  25  26
ENDBRANCH  21  25
ENDBRANCH   4  18
TORSDOF 5
