REMARK  Name = ZINC40982444
REMARK  12 active torsions:
REMARK  status: ('A' for Active; 'I' for Inactive)
REMARK    1  A    between atoms: C_1  and  C_2
REMARK    2  A    between atoms: C_2  and  C_3
REMARK    3  A    between atoms: C_3  and  C_4
REMARK    4  A    between atoms: C_4  and  O_5
REMARK    5  A    between atoms: O_5  and  C_6
REMARK    6  A    between atoms: C_11  and  C_12
REMARK    7  A    between atoms: C_14  and  C_27
REMARK    8  A    between atoms: C_15  and  C_26
REMARK    9  A    between atoms: C_20  and  S_22
REMARK   10  A    between atoms: S_22  and  C_23
REMARK   11  A    between atoms: C_23  and  C_24
REMARK   12  A    between atoms: C_24  and  C_25
REMARK                            x       y       z     vdW  Elec       q    Type
REMARK                         _______ _______ _______ _____ _____    ______ ____
ROOT
ATOM      1  C   UNL     1      -5.357  -3.638   0.062  0.00  0.00    +0.181 C 
ATOM      2  C   UNL     1      -6.118  -3.997  -1.186  0.00  0.00    +0.060 C 
ATOM      3  C   UNL     1      -7.336  -4.556  -1.165  0.00  0.00    +0.018 C 
ATOM      4  N   UNL     1      -7.993  -4.836   0.008  0.00  0.00    -0.287 N 
ATOM      5  C   UNL     1      -7.480  -4.286   1.175  0.00  0.00    +0.219 A 
ATOM      6  N   UNL     1      -6.249  -3.717   1.216  0.00  0.00    -0.220 N 
ATOM      7  N   UNL     1      -6.061  -3.267   2.522  0.00  0.00    -0.141 NA
ATOM      8  C   UNL     1      -7.150  -3.579   3.191  0.00  0.00    +0.210 A 
ATOM      9  N   UNL     1      -8.007  -4.199   2.366  0.00  0.00    -0.187 NA
ATOM     10  C   UNL     1      -8.007  -4.890  -2.473  0.00  0.00    +0.061 C 
ATOM     11  H   UNL     1      -8.785  -5.396   0.021  0.00  0.00    +0.155 HD
ENDROOT
BRANCH   1  17
ATOM     12  C   UNL     1      -2.907  -4.127   0.278  0.00  0.00    +0.126 A 
ATOM     13  C   UNL     1      -1.855  -5.014   0.454  0.00  0.00    +0.047 A 
ATOM     14  C   UNL     1      -2.107  -6.365   0.591  0.00  0.00    +0.019 A 
ATOM     15  C   UNL     1      -3.408  -6.834   0.554  0.00  0.00    +0.018 A 
ATOM     16  C   UNL     1      -4.459  -5.952   0.379  0.00  0.00    +0.025 A 
ATOM     17  C   UNL     1      -4.211  -4.599   0.246  0.00  0.00    +0.024 A 
ATOM     18 BR   UNL     1      -3.750  -8.684   0.743  0.00  0.00    -0.050 Br
BRANCH  12  19
ATOM     19  O   UNL     1      -2.662  -2.797   0.142  0.00  0.00    -0.492 OA
BRANCH  19  20
ATOM     20  C   UNL     1      -1.295  -2.383   0.184  0.00  0.00    +0.229 C 
BRANCH  20  21
ATOM     21  C   UNL     1      -1.217  -0.864   0.016  0.00  0.00    +0.041 C 
BRANCH  21  23
ATOM     22  C   UNL     1       0.324   1.099  -0.107  0.00  0.00    +0.004 C 
ATOM     23  C   UNL     1       0.246  -0.420   0.061  0.00  0.00    -0.000 C 
ENDBRANCH  21  23
ENDBRANCH  20  21
ENDBRANCH  19  20
ENDBRANCH  12  19
ENDBRANCH   1  17
BRANCH   2  24
ATOM     24  C   UNL     1      -5.519  -3.731  -2.440  0.00  0.00    +0.241 C 
ATOM     25  O   UNL     1      -5.455  -2.588  -2.855  0.00  0.00    -0.271 OA
ATOM     26  N   UNL     1      -5.020  -4.744  -3.176  0.00  0.00    -0.325 N 
ATOM     27  H   UNL     1      -5.071  -5.655  -2.846  0.00  0.00    +0.145 HD
ATOM     28  H   UNL     1      -4.609  -4.562  -4.036  0.00  0.00    +0.145 HD
ENDBRANCH   2  24
BRANCH   8  29
ATOM     29  S   UNL     1      -7.436  -3.238   4.895  0.00  0.00    -0.084 S 
BRANCH  29  30
ATOM     30  C   UNL     1      -9.093  -3.909   5.205  0.00  0.00    +0.077 C 
BRANCH  30  31
ATOM     31  C   UNL     1      -9.472  -3.677   6.669  0.00  0.00    +0.008 C 
ATOM     32  C   UNL     1     -10.869  -4.243   6.930  0.00  0.00    +0.004 C 
ENDBRANCH  30  31
ENDBRANCH  29  30
ENDBRANCH   8  29
TORSDOF 9
