REMARK  Name = ZINC36813061
REMARK  4 active torsions:
REMARK  status: ('A' for Active; 'I' for Inactive)
REMARK    1  A    between atoms: C_3  and  N_9
REMARK    2  A    between atoms: C_6  and  C_7
REMARK    3  A    between atoms: N_9  and  C_10
REMARK    4  A    between atoms: C_19  and  N_20
REMARK                            x       y       z     vdW  Elec       q    Type
REMARK                         _______ _______ _______ _____ _____    ______ ____
ROOT
ATOM      1  C   UNL     1       4.806   1.440  -0.109  0.00  0.00    +0.063 A 
ATOM      2  C   UNL     1       6.006   2.058   0.309  0.00  0.00    +0.022 A 
ATOM      3  C   UNL     1       6.085   3.446   0.493  0.00  0.00    +0.027 A 
ATOM      4  C   UNL     1       7.259   4.006   0.897  0.00  0.00    +0.019 A 
ATOM      5  C   UNL     1       8.384   3.217   1.130  0.00  0.00    +0.017 A 
ATOM      6  C   UNL     1       8.341   1.867   0.961  0.00  0.00    +0.027 A 
ATOM      7  C   UNL     1       7.147   1.253   0.545  0.00  0.00    +0.048 A 
ATOM      8  N   UNL     1       7.079  -0.072   0.373  0.00  0.00    -0.359 N 
ATOM      9  C   UNL     1       5.973  -0.662  -0.015  0.00  0.00    +0.107 A 
ATOM     10  C   UNL     1       4.805   0.058  -0.263  0.00  0.00    +0.063 A 
ATOM     11 BR   UNL     1       7.365   5.878   1.144  0.00  0.00    -0.050 Br
ATOM     12  H   UNL     1       7.869  -0.610   0.538  0.00  0.00    +0.165 HD
ENDROOT
BRANCH  10  13
ATOM     13  N   UNL     1       3.640  -0.607  -0.669  0.00  0.00    -0.355 N 
ATOM     14  H   UNL     1       2.818  -0.108  -0.799  0.00  0.00    +0.142 HD
ATOM     15  H   UNL     1       3.655  -1.565  -0.821  0.00  0.00    +0.142 HD
ENDBRANCH  10  13
BRANCH   1  16
ATOM     16  N   UNL     1       3.659   2.190  -0.353  0.00  0.00    -0.313 N 
ATOM     17  H   UNL     1       3.054   2.402   0.375  0.00  0.00    +0.152 HD
BRANCH  16  20
ATOM     18  C   UNL     1       1.900   3.729  -3.180  0.00  0.00    +0.020 A 
ATOM     19  C   UNL     1       2.179   3.288  -1.907  0.00  0.00    +0.024 A 
ATOM     20  C   UNL     1       3.380   2.635  -1.642  0.00  0.00    +0.031 A 
ATOM     21  C   UNL     1       4.302   2.425  -2.664  0.00  0.00    +0.024 A 
ATOM     22  C   UNL     1       4.029   2.865  -3.940  0.00  0.00    +0.020 A 
ATOM     23  C   UNL     1       2.824   3.521  -4.209  0.00  0.00    +0.052 A 
BRANCH  23  24
ATOM     24  C   UNL     1       2.537   3.979  -5.535  0.00  0.00    +0.099 C 
ATOM     25  N   UNL     1       2.309   4.342  -6.587  0.00  0.00    -0.191 NA
ENDBRANCH  23  24
ENDBRANCH  16  20
ENDBRANCH   1  16
TORSDOF 4
