REMARK  Name = ZINC38965847
REMARK  10 active torsions:
REMARK  status: ('A' for Active; 'I' for Inactive)
REMARK    1  A    between atoms: C_1  and  C_2
REMARK    2  A    between atoms: C_2  and  O_3
REMARK    3  A    between atoms: O_3  and  C_4
REMARK    4  A    between atoms: C_4  and  C_6
REMARK    5  A    between atoms: C_9  and  N_12
REMARK    6  A    between atoms: N_12  and  C_13
REMARK    7  A    between atoms: N_16  and  S_17
REMARK    8  A    between atoms: S_17  and  C_20
REMARK    9  A    between atoms: C_22  and  C_27
REMARK   10  A    between atoms: C_25  and  C_26
REMARK                            x       y       z     vdW  Elec       q    Type
REMARK                         _______ _______ _______ _____ _____    ______ ____
ROOT
ATOM      1  C   UNL     1      -6.845  -5.510  -0.067  0.00  0.00    +0.237 C 
ATOM      2  C   UNL     1      -7.884  -5.928   0.949  0.00  0.00    +0.192 C 
ATOM      3  N   UNL     1      -7.711  -5.675   2.212  0.00  0.00    -0.110 NA
ATOM      4  N   UNL     1      -8.989  -6.564   0.526  0.00  0.00    -0.226 NA
ATOM      5  C   UNL     1      -9.188  -6.831  -0.747  0.00  0.00    +0.089 A 
ATOM      6  C   UNL     1     -10.366  -7.504  -1.158  0.00  0.00    +0.030 A 
ATOM      7  C   UNL     1     -10.575  -7.781  -2.463  0.00  0.00    +0.002 A 
ATOM      8  C   UNL     1      -9.661  -7.428  -3.470  0.00  0.00    +0.002 A 
ATOM      9  C   UNL     1      -8.507  -6.785  -3.189  0.00  0.00    +0.027 A 
ATOM     10  C   UNL     1      -8.205  -6.446  -1.790  0.00  0.00    +0.063 A 
ATOM     11  N   UNL     1      -7.102  -5.825  -1.481  0.00  0.00    -0.359 N 
ATOM     12  H   UNL     1      -6.464  -5.575  -2.168  0.00  0.00    +0.162 HD
ENDROOT
BRANCH   3  13
ATOM     13  S   UNL     1      -8.857  -6.139   3.314  0.00  0.00    +0.101 S 
ATOM     14  O   UNL     1     -10.020  -5.370   3.038  0.00  0.00    -0.146 OA
ATOM     15  O   UNL     1      -8.866  -7.560   3.318  0.00  0.00    -0.146 OA
BRANCH  13  16
ATOM     16  C   UNL     1      -8.286  -5.635   4.903  0.00  0.00    +0.116 A 
ATOM     17  C   UNL     1      -8.985  -4.681   5.619  0.00  0.00    +0.032 A 
ATOM     18  C   UNL     1      -8.537  -4.285   6.865  0.00  0.00    -0.049 A 
ATOM     19  C   UNL     1      -7.390  -4.845   7.397  0.00  0.00    +0.004 A 
ATOM     20  C   UNL     1      -6.691  -5.800   6.682  0.00  0.00    +0.005 A 
ATOM     21  C   UNL     1      -7.142  -6.198   5.437  0.00  0.00    -0.024 A 
ATOM     22  C   UNL     1      -6.383  -7.243   4.660  0.00  0.00    +0.046 C 
ATOM     23  C   UNL     1      -9.299  -3.244   7.644  0.00  0.00    +0.044 C 
ENDBRANCH  13  16
ENDBRANCH   3  13
BRANCH   1  24
ATOM     24  N   UNL     1      -6.670  -4.060   0.044  0.00  0.00    -0.318 N 
ATOM     25  H   UNL     1      -7.443  -3.475   0.020  0.00  0.00    +0.148 HD
BRANCH  24  29
ATOM     26  C   UNL     1      -2.860  -2.451   0.459  0.00  0.00    +0.059 A 
ATOM     27  C   UNL     1      -3.019  -3.811   0.174  0.00  0.00    +0.017 A 
ATOM     28  C   UNL     1      -4.277  -4.339   0.039  0.00  0.00    +0.024 A 
ATOM     29  C   UNL     1      -5.396  -3.522   0.183  0.00  0.00    +0.029 A 
ATOM     30  C   UNL     1      -5.240  -2.167   0.467  0.00  0.00    +0.024 A 
ATOM     31  C   UNL     1      -3.985  -1.635   0.609  0.00  0.00    +0.017 A 
BRANCH  26  32
ATOM     32  C   UNL     1      -1.509  -1.881   0.606  0.00  0.00    +0.339 C 
ATOM     33  O   UNL     1      -1.372  -0.700   0.859  0.00  0.00    -0.245 OA
BRANCH  32  34
ATOM     34  O   UNL     1      -0.425  -2.669   0.461  0.00  0.00    -0.461 OA
BRANCH  34  36
ATOM     35  C   UNL     1       1.954  -3.094   0.418  0.00  0.00    +0.048 C 
ATOM     36  C   UNL     1       0.853  -2.050   0.617  0.00  0.00    +0.229 C 
ENDBRANCH  34  36
ENDBRANCH  32  34
ENDBRANCH  26  32
ENDBRANCH  24  29
ENDBRANCH   1  24
TORSDOF 7
