REMARK  Name = ZINC43771550
REMARK  9 active torsions:
REMARK  status: ('A' for Active; 'I' for Inactive)
REMARK    1  A    between atoms: C_1  and  C_2
REMARK    2  A    between atoms: C_2  and  O_35
REMARK    3  A    between atoms: C_7  and  O_34
REMARK    4  A    between atoms: C_12  and  O_33
REMARK    5  A    between atoms: C_13  and  O_32
REMARK    6  A    between atoms: C_19  and  N_29
REMARK    7  A    between atoms: C_22  and  C_25
REMARK    8  A    between atoms: N_29  and  C_30
REMARK    9  A    between atoms: N_29  and  C_31
REMARK                            x       y       z     vdW  Elec       q    Type
REMARK                         _______ _______ _______ _____ _____    ______ ____
ROOT
ATOM      1  C   UNL     1      -0.397  -0.485  -1.628  0.00  0.00    +0.047 C 
ATOM      2  C   UNL     1      -0.116  -1.769  -0.845  0.00  0.00    +0.096 C 
ATOM      3  C   UNL     1      -1.411  -2.496  -0.598  0.00  0.00    -0.001 A 
ATOM      4  C   UNL     1      -1.813  -3.501  -1.452  0.00  0.00    +0.007 A 
ATOM      5  C   UNL     1      -3.011  -4.163  -1.236  0.00  0.00    +0.004 A 
ATOM      6  C   UNL     1      -3.816  -3.823  -0.166  0.00  0.00    +0.046 A 
ATOM      7  C   UNL     1      -3.425  -2.818   0.706  0.00  0.00    +0.128 A 
ATOM      8  C   UNL     1      -2.211  -2.153   0.493  0.00  0.00    +0.069 A 
ATOM      9  C   UNL     1      -1.759  -1.105   1.430  0.00  0.00    +0.197 C 
ATOM     10  O   UNL     1      -2.529  -0.625   2.242  0.00  0.00    -0.287 OA
ATOM     11  C   UNL     1      -0.405  -0.666   1.367  0.00  0.00    +0.047 C 
ATOM     12  C   UNL     1      -0.035   0.399   2.090  0.00  0.00    +0.141 C 
ATOM     13  C   UNL     1       1.357   0.934   2.122  0.00  0.00    +0.190 C 
ATOM     14  C   UNL     1       2.349  -0.095   1.574  0.00  0.00    +0.061 C 
ATOM     15  C   UNL     1       1.804  -0.574   0.216  0.00  0.00    +0.020 C 
ATOM     16  C   UNL     1       0.554  -1.415   0.481  0.00  0.00    +0.062 C 
ATOM     17  C   UNL     1       2.411  -1.301   2.514  0.00  0.00    +0.135 C 
ATOM     18  C   UNL     1       2.638  -0.895   3.937  0.00  0.00    +0.189 C 
ATOM     19  C   UNL     1       2.327   0.354   4.413  0.00  0.00    +0.126 C 
ATOM     20  C   UNL     1       1.770   1.350   3.507  0.00  0.00    +0.211 C 
ATOM     21  O   UNL     1       1.660   2.505   3.864  0.00  0.00    -0.288 OA
ATOM     22  O   UNL     1       3.166  -1.791   4.784  0.00  0.00    -0.290 OA
ENDROOT
BRANCH  19  23
ATOM     23  C   UNL     1       2.544   0.681   5.831  0.00  0.00    +0.248 C 
ATOM     24  O   UNL     1       3.121  -0.108   6.555  0.00  0.00    -0.270 OA
ATOM     25  N   UNL     1       2.103   1.854   6.328  0.00  0.00    -0.325 N 
ATOM     26  H   UNL     1       1.704   2.511   5.737  0.00  0.00    +0.145 HD
ATOM     27  H   UNL     1       2.186   2.041   7.276  0.00  0.00    +0.145 HD
ENDBRANCH  19  23
BRANCH  17  28
ATOM     28  N   UNL     1       1.143  -2.039   2.427  0.00  0.00    -0.298 NA
ATOM     29  C   UNL     1       1.383  -3.483   2.300  0.00  0.00    +0.105 C 
ATOM     30  C   UNL     1       0.284  -1.748   3.582  0.00  0.00    +0.105 C 
ENDBRANCH  17  28
BRANCH  13  31
ATOM     31  O   UNL     1       1.414   2.083   1.275  0.00  0.00    -0.373 OA
ATOM     32  H   UNL     1       0.816   2.796   1.538  0.00  0.00    +0.211 HD
ENDBRANCH  13  31
BRANCH  12  33
ATOM     33  O   UNL     1      -0.973   1.022   2.830  0.00  0.00    -0.507 OA
ATOM     34  H   UNL     1      -1.056   1.968   2.645  0.00  0.00    +0.292 HD
ENDBRANCH  12  33
BRANCH   7  35
ATOM     35  O   UNL     1      -4.213  -2.481   1.757  0.00  0.00    -0.506 OA
ATOM     36  H   UNL     1      -4.026  -2.981   2.564  0.00  0.00    +0.292 HD
ENDBRANCH   7  35
BRANCH   2  37
ATOM     37  O   UNL     1       0.755  -2.607  -1.607  0.00  0.00    -0.384 OA
ATOM     38  H   UNL     1       0.398  -2.868  -2.466  0.00  0.00    +0.211 HD
ENDBRANCH   2  37
TORSDOF 6
