REMARK  Name = ZINC04340316
REMARK  7 active torsions:
REMARK  status: ('A' for Active; 'I' for Inactive)
REMARK    1  A    between atoms: C_1  and  C_2
REMARK    2  A    between atoms: C_5  and  N_8
REMARK    3  A    between atoms: N_19  and  C1*_20
REMARK    4  A    between atoms: C2*_22  and  O2*_32
REMARK    5  A    between atoms: C3*_24  and  O3*_31
REMARK    6  A    between atoms: C4*_26  and  C5*_29
REMARK    7  A    between atoms: C5*_29  and  O5*_30
REMARK                            x       y       z     vdW  Elec       q    Type
REMARK                         _______ _______ _______ _____ _____    ______ ____
ROOT
ATOM      1  N   UNL     1       0.532   7.494  -2.803  0.00  0.00    -0.285 N 
ATOM      2  C   UNL     1       0.648   6.314  -3.515  0.00  0.00    +0.204 A 
ATOM      3  N   UNL     1       0.509   6.199  -4.812  0.00  0.00    -0.207 NA
ATOM      4  C   UNL     1       0.683   4.902  -5.167  0.00  0.00    +0.174 A 
ATOM      5  C   UNL     1       0.644   4.202  -6.398  0.00  0.00    +0.279 A 
ATOM      6  O   UNL     1       0.412   4.787  -7.443  0.00  0.00    -0.265 OA
ATOM      7  N   UNL     1       0.870   2.870  -6.383  0.00  0.00    -0.312 N 
ATOM      8  H   UNL     1       0.849   2.352  -7.239  0.00  0.00    +0.170 HD
ATOM      9  C   UNL     1       1.126   2.230  -5.214  0.00  0.00    +0.201 A 
ATOM     10  N   UNL     1       1.165   2.860  -4.073  0.00  0.00    -0.218 NA
ATOM     11  C   UNL     1       0.952   4.181  -4.001  0.00  0.00    +0.171 A 
ATOM     12  N   UNL     1       0.929   5.091  -2.974  0.00  0.00    -0.267 N 
ATOM     13  H   UNL     1       0.575   7.481  -1.834  0.00  0.00    +0.155 HD
ENDROOT
BRANCH   1  18
ATOM     14  C   UNL     1      -0.188  12.405  -5.546  0.00  0.00    +0.044 C 
ATOM     15  C   UNL     1       0.003  11.100  -4.818  0.00  0.00    -0.050 A 
ATOM     16  C   UNL     1      -0.529  10.932  -3.553  0.00  0.00    +0.005 A 
ATOM     17  C   UNL     1      -0.356   9.738  -2.882  0.00  0.00    +0.023 A 
ATOM     18  C   UNL     1       0.355   8.704  -3.479  0.00  0.00    +0.034 A 
ATOM     19  C   UNL     1       0.894   8.879  -4.747  0.00  0.00    +0.023 A 
ATOM     20  C   UNL     1       0.712  10.074  -5.415  0.00  0.00    +0.005 A 
ENDBRANCH   1  18
BRANCH  12  21
ATOM     21  C1* UNL     1       1.157   4.802  -1.556  0.00  0.00    +0.255 C 
ATOM     22  C2* UNL     1       2.664   4.563  -1.283  0.00  0.00    +0.195 C 
ATOM     23  C3* UNL     1       2.628   3.695  -0.002  0.00  0.00    +0.178 C 
ATOM     24  C4* UNL     1       1.209   3.095   0.008  0.00  0.00    +0.177 C 
ATOM     25  O4* UNL     1       0.545   3.549  -1.183  0.00  0.00    -0.346 OA
BRANCH  23  26
ATOM     26  O3* UNL     1       3.609   2.658  -0.073  0.00  0.00    -0.386 OA
ATOM     27  H3* UNL     1       3.592   2.048   0.677  0.00  0.00    +0.210 HD
ENDBRANCH  23  26
BRANCH  22  28
ATOM     28  O2* UNL     1       3.341   5.799  -1.042  0.00  0.00    -0.385 OA
ATOM     29  H2* UNL     1       4.266   5.696  -0.779  0.00  0.00    +0.210 HD
ENDBRANCH  22  28
BRANCH  24  30
ATOM     30  C5* UNL     1       1.290   1.567   0.008  0.00  0.00    +0.190 C 
BRANCH  30  31
ATOM     31  O5* UNL     1      -0.024   1.020   0.134  0.00  0.00    -0.392 OA
ATOM     32  H5* UNL     1      -0.049   0.053   0.141  0.00  0.00    +0.210 HD
ENDBRANCH  30  31
ENDBRANCH  24  30
ENDBRANCH  12  21
TORSDOF 6
