REMARK  Name = ZINC23751421
REMARK  7 active torsions:
REMARK  status: ('A' for Active; 'I' for Inactive)
REMARK    1  A    between atoms: C_1  and  C_2
REMARK    2  A    between atoms: C_2  and  C_23
REMARK    3  A    between atoms: N_5  and  C_9
REMARK    4  A    between atoms: C_9  and  C_10
REMARK    5  A    between atoms: N_12  and  N_13
REMARK    6  A    between atoms: C_14  and  C_16
REMARK    7  A    between atoms: C_21  and  O_22
REMARK                            x       y       z     vdW  Elec       q    Type
REMARK                         _______ _______ _______ _____ _____    ______ ____
ROOT
ATOM      1  C   UNL     1       3.587   0.574  -0.030  0.00  0.00    +0.215 C 
ENDROOT
BRANCH   1   6
ATOM      2  C   UNL     1      -0.721   2.005  -1.239  0.00  0.00    +0.047 C 
ATOM      3  C   UNL     1      -0.018   1.469   0.010  0.00  0.00    +0.135 C 
ATOM      4  C   UNL     1       1.450   1.845  -0.002  0.00  0.00    +0.251 C 
ATOM      5  O   UNL     1       1.920   2.963  -0.001  0.00  0.00    -0.272 OA
ATOM      6  N   UNL     1       2.125   0.679  -0.015  0.00  0.00    -0.215 N 
ATOM      7  C   UNL     1       1.296  -0.371  -0.012  0.00  0.00    +0.310 C 
ATOM      8  O   UNL     1       1.670  -1.528  -0.022  0.00  0.00    -0.252 OA
ATOM      9  N   UNL     1       0.002  -0.004   0.002  0.00  0.00    -0.281 N 
ATOM     10  H   UNL     1      -0.943  -0.567   0.008  0.00  0.00    +0.152 HD
BRANCH   3  11
ATOM     11  C   UNL     1      -0.687   1.983   1.259  0.00  0.00    -0.015 A 
ATOM     12  C   UNL     1      -0.282   3.182   1.815  0.00  0.00    +0.009 A 
ATOM     13  C   UNL     1      -0.899   3.658   2.957  0.00  0.00    +0.039 A 
ATOM     14  C   UNL     1      -1.914   2.927   3.550  0.00  0.00    +0.123 A 
ATOM     15  C   UNL     1      -2.315   1.723   2.995  0.00  0.00    +0.039 A 
ATOM     16  C   UNL     1      -1.701   1.253   1.850  0.00  0.00    +0.009 A 
ATOM     17  F   UNL     1      -2.513   3.388   4.670  0.00  0.00    -0.205 F 
ENDBRANCH   3  11
ENDBRANCH   1   6
BRANCH   1  18
ATOM     18  C   UNL     1       4.073   0.545  -1.456  0.00  0.00    +0.247 C 
ATOM     19  O   UNL     1       3.278   0.607  -2.369  0.00  0.00    -0.273 OA
ATOM     20  N   UNL     1       5.392   0.451  -1.716  0.00  0.00    -0.233 N 
ATOM     21  H   UNL     1       6.114   0.395  -0.887  0.00  0.00    +0.173 HD
BRANCH  20  22
ATOM     22  N   UNL     1       5.845   0.425  -3.042  0.00  0.00    -0.230 N 
ATOM     23  C   UNL     1       7.164   0.331  -3.302  0.00  0.00    +0.264 C 
ATOM     24  O   UNL     1       7.961   0.269  -2.386  0.00  0.00    -0.269 OA
ATOM     25  H   UNL     1       5.123   0.480  -3.870  0.00  0.00    +0.173 HD
BRANCH  23  26
ATOM     26  C   UNL     1       7.640   0.303  -4.698  0.00  0.00    +0.079 A 
ATOM     27  C   UNL     1       6.728   0.373  -5.753  0.00  0.00    +0.017 A 
ATOM     28  C   UNL     1       7.179   0.347  -7.055  0.00  0.00    +0.001 A 
ATOM     29  C   UNL     1       8.535   0.252  -7.322  0.00  0.00    +0.004 A 
ATOM     30  C   UNL     1       9.448   0.182  -6.289  0.00  0.00    +0.046 A 
ATOM     31  C   UNL     1       9.011   0.211  -4.973  0.00  0.00    +0.129 A 
BRANCH  31  32
ATOM     32  O   UNL     1       9.907   0.148  -3.956  0.00  0.00    -0.506 OA
ATOM     33  H   UNL     1      10.983   0.076  -4.175  0.00  0.00    +0.292 HD
ENDBRANCH  31  32
ENDBRANCH  23  26
ENDBRANCH  20  22
ENDBRANCH   1  18
TORSDOF 6
