REMARK  Name = ZINC03978082
REMARK  15 active torsions:
REMARK  status: ('A' for Active; 'I' for Inactive)
REMARK    1  A    between atoms: C_1  and  C_2
REMARK    2  A    between atoms: C_2  and  C_3
REMARK    3  A    between atoms: C_3  and  C_4
REMARK    4  A    between atoms: C_7  and  C_11
REMARK    5  A    between atoms: C_10  and  N_61
REMARK    6  A    between atoms: N_13  and  C_14
REMARK    7  A    between atoms: C_14  and  C_16
REMARK    8  A    between atoms: C_14  and  C_32
REMARK    9  A    between atoms: C_18  and  O_31
REMARK   10  A    between atoms: C_20  and  O_30
REMARK   11  A    between atoms: C_22  and  O_29
REMARK   12  A    between atoms: C_24  and  S_27
REMARK   13  A    between atoms: S_27  and  C_28
REMARK   14  A    between atoms: C_32  and  C_34
REMARK   15  A    between atoms: C_32  and  O_35
REMARK                            x       y       z     vdW  Elec       q    Type
REMARK                         _______ _______ _______ _____ _____    ______ ____
ROOT
ATOM      1  C   UNL     1      -0.753   1.593  -1.231  0.00  0.00    +0.132 C 
ENDROOT
BRANCH   1   2
ATOM      2  C   UNL     1       0.037   1.091  -0.021  0.00  0.00    +0.173 C 
ATOM      3  C   UNL     1      -0.566   1.673   1.260  0.00  0.00    +0.176 C 
ATOM      4  C   UNL     1      -0.444   3.200   1.225  0.00  0.00    +0.177 C 
ATOM      5  C   UNL     1       1.030   3.579   1.053  0.00  0.00    +0.184 C 
ATOM      6  C   UNL     1       1.572   2.924  -0.220  0.00  0.00    +0.207 C 
ATOM      7  O   UNL     1       1.399   1.508  -0.136  0.00  0.00    -0.356 OA
BRANCH   6   8
ATOM      8  S   UNL     1       3.336   3.309  -0.395  0.00  0.00    -0.131 S 
ATOM      9  C   UNL     1       3.747   2.734  -2.066  0.00  0.00    +0.087 C 
ENDBRANCH   6   8
BRANCH   5  10
ATOM     10  O   UNL     1       1.150   4.999   0.947  0.00  0.00    -0.386 OA
ATOM     11  H   UNL     1       2.058   5.310   0.831  0.00  0.00    +0.210 HD
ENDBRANCH   5  10
BRANCH   4  12
ATOM     12  O   UNL     1      -0.939   3.749   2.448  0.00  0.00    -0.386 OA
ATOM     13  H   UNL     1      -0.885   4.713   2.497  0.00  0.00    +0.210 HD
ENDBRANCH   4  12
BRANCH   3  14
ATOM     14  O   UNL     1      -1.945   1.307   1.348  0.00  0.00    -0.387 OA
ATOM     15  H   UNL     1      -2.392   1.642   2.137  0.00  0.00    +0.210 HD
ENDBRANCH   3  14
ENDBRANCH   1   2
BRANCH   1  18
ATOM     16  C   UNL     1      -1.932   3.665  -1.736  0.00  0.00    +0.200 C 
ATOM     17  O   UNL     1      -2.777   3.010  -2.308  0.00  0.00    -0.278 OA
ATOM     18  N   UNL     1      -0.877   3.051  -1.163  0.00  0.00    -0.309 N 
ATOM     19  H   UNL     1      -0.201   3.575  -0.706  0.00  0.00    +0.149 HD
BRANCH  16  22
ATOM     20  C   UNL     1      -3.583   6.783  -0.637  0.00  0.00    -0.029 C 
ATOM     21  C   UNL     1      -2.660   5.591  -0.309  0.00  0.00    -0.005 C 
ATOM     22  C   UNL     1      -2.059   5.165  -1.666  0.00  0.00    +0.019 C 
ATOM     23  C   UNL     1      -3.463   6.977  -2.163  0.00  0.00    -0.075 C 
ATOM     24  C   UNL     1      -2.401   5.774  -3.999  0.00  0.00    -0.095 C 
ATOM     25  N   UNL     1      -3.031   5.665  -2.644  0.00  0.00    +0.386 N 
ATOM     26  H   UNL     1      -3.836   5.029  -2.697  0.00  0.00    -0.081 HD
BRANCH  20  27
ATOM     27  C   UNL     1      -3.111   8.039   0.099  0.00  0.00    +0.001 C 
BRANCH  27  29
ATOM     28  C   UNL     1      -3.635  10.431   0.597  0.00  0.00    +0.004 C 
ATOM     29  C   UNL     1      -4.107   9.175  -0.139  0.00  0.00    -0.003 C 
ENDBRANCH  27  29
ENDBRANCH  20  27
ENDBRANCH  16  22
ENDBRANCH   1  18
BRANCH   1  30
ATOM     30  C   UNL     1      -0.020   1.203  -2.516  0.00  0.00    +0.134 C 
ATOM     31  C   UNL     1       0.110  -0.320  -2.587  0.00  0.00    +0.039 C 
BRANCH  30  32
ATOM     32  O   UNL     1      -0.758   1.671  -3.647  0.00  0.00    -0.390 OA
ATOM     33  H   UNL     1      -0.880   2.630  -3.667  0.00  0.00    +0.210 HD
ENDBRANCH  30  32
ENDBRANCH   1  30
TORSDOF 11
