REMARK  Name = ZINC67594006
REMARK  8 active torsions:
REMARK  status: ('A' for Active; 'I' for Inactive)
REMARK    1  A    between atoms: C_1  and  C_2
REMARK    2  A    between atoms: C_4  and  C_8
REMARK    3  A    between atoms: C_5  and  C_7
REMARK    4  A    between atoms: C_8  and  C_10
REMARK    5  A    between atoms: C_8  and  N_11
REMARK    6  A    between atoms: C_12  and  C_14
REMARK    7  A    between atoms: C_16  and  S_21
REMARK    8  A    between atoms: S_21  and  N_24
REMARK                            x       y       z     vdW  Elec       q    Type
REMARK                         _______ _______ _______ _____ _____    ______ ____
ROOT
ATOM      1  N   UNL     1      -2.752  -3.099  -0.586  0.00  0.00    -0.305 N 
ATOM      2  C   UNL     1      -3.473  -4.086  -1.154  0.00  0.00    +0.246 C 
ATOM      3  O   UNL     1      -3.031  -5.218  -1.188  0.00  0.00    -0.270 OA
ATOM      4  H   UNL     1      -3.105  -2.196  -0.558  0.00  0.00    +0.150 HD
ENDROOT
BRANCH   2   5
ATOM      5  C   UNL     1      -4.799  -3.793  -1.735  0.00  0.00    +0.057 A 
ATOM      6  C   UNL     1      -5.307  -2.493  -1.702  0.00  0.00    +0.043 A 
ATOM      7  C   UNL     1      -6.545  -2.225  -2.247  0.00  0.00    +0.106 A 
ATOM      8  C   UNL     1      -7.285  -3.242  -2.825  0.00  0.00    +0.030 A 
ATOM      9  C   UNL     1      -6.790  -4.532  -2.861  0.00  0.00    +0.022 A 
ATOM     10  C   UNL     1      -5.548  -4.814  -2.325  0.00  0.00    +0.053 A 
ATOM     11 CL   UNL     1      -4.924  -6.433  -2.377  0.00  0.00    -0.083 Cl
BRANCH   7  12
ATOM     12  S   UNL     1      -7.187  -0.585  -2.206  0.00  0.00    +0.056 S 
ATOM     13  O   UNL     1      -8.601  -0.700  -2.295  0.00  0.00    -0.153 OA
ATOM     14  O   UNL     1      -6.542   0.077  -1.127  0.00  0.00    -0.153 OA
BRANCH  12  15
ATOM     15  N   UNL     1      -6.686   0.171  -3.592  0.00  0.00    -0.204 NA
ATOM     16  H   UNL     1      -6.141  -0.307  -4.236  0.00  0.00    +0.144 HD
ATOM     17  H   UNL     1      -6.939   1.093  -3.760  0.00  0.00    +0.144 HD
ENDBRANCH  12  15
ENDBRANCH   7  12
ENDBRANCH   2   5
BRANCH   1  18
ATOM     18  C   UNL     1      -1.437  -3.390  -0.009  0.00  0.00    +0.104 C 
ATOM     19  C   UNL     1      -1.609  -3.892   1.426  0.00  0.00    +0.033 C 
BRANCH  18  23
ATOM     20  C   UNL     1      -0.018   1.503   0.010  0.00  0.00    +0.086 C 
ATOM     21  C   UNL     1       0.002  -0.004   0.002  0.00  0.00    +0.103 A 
ATOM     22  C   UNL     1      -1.078  -0.805   0.003  0.00  0.00    +0.050 A 
ATOM     23  C   UNL     1      -0.601  -2.136  -0.007  0.00  0.00    +0.013 A 
ATOM     24  C   UNL     1       0.742  -2.069  -0.013  0.00  0.00    +0.107 A 
ATOM     25  O   UNL     1       1.102  -0.775  -0.013  0.00  0.00    -0.465 OA
ATOM     26  C   UNL     1       1.684  -3.245  -0.023  0.00  0.00    +0.086 C 
ENDBRANCH  18  23
ENDBRANCH   1  18
TORSDOF 5
