REMARK  Name = ZINC49254367
REMARK  10 active torsions:
REMARK  status: ('A' for Active; 'I' for Inactive)
REMARK    1  A    between atoms: C_1  and  N_2
REMARK    2  A    between atoms: N_2  and  C_3
REMARK    3  A    between atoms: N_2  and  C_4
REMARK    4  A    between atoms: C_4  and  C_5
REMARK    5  A    between atoms: C_10  and  C_11
REMARK    6  A    between atoms: C_11  and  N_12
REMARK    7  A    between atoms: C_13  and  C_15
REMARK    8  A    between atoms: N_17  and  C_18
REMARK    9  A    between atoms: C_23  and  C_24
REMARK   10  A    between atoms: C_24  and  C_25
REMARK                            x       y       z     vdW  Elec       q    Type
REMARK                         _______ _______ _______ _____ _____    ______ ____
ROOT
ATOM      1  N   UNL     1       2.452  -3.134  -0.533  0.00  0.00    -0.303 N 
ATOM      2  C   UNL     1       2.056  -4.331  -0.057  0.00  0.00    +0.300 C 
ATOM      3  O   UNL     1       1.780  -4.456   1.119  0.00  0.00    -0.265 OA
ATOM      4  H   UNL     1       2.672  -3.035  -1.472  0.00  0.00    +0.149 HD
ENDROOT
BRANCH   2   5
ATOM      5  C   UNL     1       1.957  -5.505  -0.975  0.00  0.00    +0.303 C 
ATOM      6  O   UNL     1       2.233  -5.380  -2.151  0.00  0.00    -0.265 OA
ATOM      7  N   UNL     1       1.561  -6.702  -0.499  0.00  0.00    -0.277 N 
ATOM      8  H   UNL     1       1.417  -6.822   0.453  0.00  0.00    +0.155 HD
BRANCH   7   9
ATOM      9  C   UNL     1       1.357  -7.770  -1.377  0.00  0.00    +0.037 A 
ATOM     10  C   UNL     1       1.050  -7.527  -2.710  0.00  0.00    +0.023 A 
ATOM     11  C   UNL     1       0.849  -8.584  -3.574  0.00  0.00    +0.002 A 
ATOM     12  C   UNL     1       0.952  -9.885  -3.114  0.00  0.00    +0.000 A 
ATOM     13  C   UNL     1       1.256 -10.130  -1.788  0.00  0.00    +0.006 A 
ATOM     14  C   UNL     1       1.465  -9.077  -0.919  0.00  0.00    -0.017 A 
BRANCH  14  15
ATOM     15  C   UNL     1       1.804  -9.345   0.524  0.00  0.00    +0.132 C 
BRANCH  15  16
ATOM     16  C   UNL     1       0.544  -9.314   1.350  0.00  0.00    +0.215 C 
ATOM     17  O   UNL     1      -0.524  -9.096   0.819  0.00  0.00    -0.276 OA
ATOM     18  N   UNL     1       0.604  -9.529   2.679  0.00  0.00    -0.329 N 
ATOM     19  H   UNL     1       1.458  -9.704   3.104  0.00  0.00    +0.145 HD
ATOM     20  H   UNL     1      -0.207  -9.509   3.211  0.00  0.00    +0.145 HD
ENDBRANCH  15  16
ENDBRANCH  14  15
ENDBRANCH   7   9
ENDBRANCH   2   5
BRANCH   1  21
ATOM     21  C   UNL     1       2.549  -1.983   0.368  0.00  0.00    +0.140 C 
BRANCH  21  27
ATOM     22  C   UNL     1       2.108  -0.059  -1.170  0.00  0.00    -0.059 A 
ATOM     23  C   UNL     1       2.530   1.052  -1.876  0.00  0.00    +0.002 A 
ATOM     24  C   UNL     1       3.855   1.443  -1.824  0.00  0.00    +0.000 A 
ATOM     25  C   UNL     1       4.758   0.722  -1.066  0.00  0.00    +0.000 A 
ATOM     26  C   UNL     1       4.337  -0.388  -0.358  0.00  0.00    +0.005 A 
ATOM     27  C   UNL     1       3.010  -0.776  -0.407  0.00  0.00    -0.029 A 
BRANCH  22  28
ATOM     28  C   UNL     1       0.663  -0.484  -1.226  0.00  0.00    -0.043 C 
BRANCH  28  30
ATOM     29  C   UNL     1      -0.061   1.458  -0.018  0.00  0.00    -0.096 C 
ATOM     30  N   UNL     1      -0.034  -0.011  -0.023  0.00  0.00    +0.379 N 
ATOM     31  C   UNL     1      -1.409  -0.526  -0.020  0.00  0.00    -0.096 C 
ATOM     32  H   UNL     1       0.451  -0.341   0.798  0.00  0.00    -0.082 HD
ENDBRANCH  28  30
ENDBRANCH  22  28
ENDBRANCH  21  27
ENDBRANCH   1  21
TORSDOF 8
