REMARK  Name = ZINC44830704
REMARK  12 active torsions:
REMARK  status: ('A' for Active; 'I' for Inactive)
REMARK    1  A    between atoms: C_1  and  C_2
REMARK    2  A    between atoms: C_2  and  C_3
REMARK    3  A    between atoms: C_11  and  O_38
REMARK    4  A    between atoms: C_12  and  O_36
REMARK    5  A    between atoms: C_18  and  C_20
REMARK    6  A    between atoms: C_20  and  C_21
REMARK    7  A    between atoms: C_25  and  O_34
REMARK    8  A    between atoms: C_26  and  O_33
REMARK    9  A    between atoms: N_31  and  C_32
REMARK   10  A    between atoms: O_34  and  C_35
REMARK   11  A    between atoms: O_36  and  C_37
REMARK   12  A    between atoms: O_38  and  C_39
REMARK                            x       y       z     vdW  Elec       q    Type
REMARK                         _______ _______ _______ _____ _____    ______ ____
ROOT
ATOM      1  C   UNL     1      -0.581  -0.737  -0.294  0.00  0.00    -0.025 C 
ATOM      2  C   UNL     1      -1.121  -0.278  -1.651  0.00  0.00    -0.074 C 
ATOM      3  N   UNL     1      -2.575  -0.100  -1.560  0.00  0.00    +0.385 N 
ATOM      4  C   UNL     1      -3.097   0.423  -2.830  0.00  0.00    -0.073 C 
ATOM      5  C   UNL     1      -4.536   0.892  -2.610  0.00  0.00    +0.017 C 
ATOM      6  C   UNL     1      -5.332  -0.195  -1.932  0.00  0.00    -0.044 A 
ATOM      7  C   UNL     1      -6.716  -0.112  -1.952  0.00  0.00    +0.053 A 
ATOM      8  C   UNL     1      -7.484  -1.087  -1.339  0.00  0.00    +0.162 A 
ATOM      9  C   UNL     1      -6.860  -2.154  -0.699  0.00  0.00    +0.162 A 
ATOM     10  C   UNL     1      -5.479  -2.232  -0.683  0.00  0.00    +0.051 A 
ATOM     11  C   UNL     1      -4.713  -1.254  -1.302  0.00  0.00    -0.054 A 
ATOM     12  C   UNL     1      -3.215  -1.385  -1.269  0.00  0.00    -0.037 C 
ATOM     13  C   UNL     1      -2.764  -1.883   0.106  0.00  0.00    -0.007 C 
ATOM     14  C   UNL     1      -1.242  -2.061   0.097  0.00  0.00    -0.012 C 
ATOM     15  H   UNL     1      -2.787   0.554  -0.822  0.00  0.00    -0.081 HD
ENDROOT
BRANCH   1  17
ATOM     16  C   UNL     1       1.605   0.418  -0.655  0.00  0.00    +0.004 C 
ATOM     17  C   UNL     1       0.934  -0.931  -0.387  0.00  0.00    -0.002 C 
ENDBRANCH   1  17
BRANCH   9  18
ATOM     18  O   UNL     1      -7.605  -3.116  -0.092  0.00  0.00    -0.491 OA
ATOM     19  C   UNL     1      -6.896  -4.181   0.544  0.00  0.00    +0.277 C 
ENDBRANCH   9  18
BRANCH   8  20
ATOM     20  O   UNL     1      -8.841  -1.002  -1.361  0.00  0.00    -0.491 OA
ATOM     21  C   UNL     1      -9.410   0.122  -2.035  0.00  0.00    +0.277 C 
ENDBRANCH   8  20
BRANCH  14  22
ATOM     22  C   UNL     1      -0.768  -2.477   1.491  0.00  0.00    -0.007 C 
BRANCH  22  23
ATOM     23  C   UNL     1      -0.765  -4.004   1.594  0.00  0.00    -0.037 C 
ATOM     24  C   UNL     1       0.167  -4.570   0.555  0.00  0.00    -0.054 A 
ATOM     25  C   UNL     1       1.379  -3.930   0.336  0.00  0.00    +0.051 A 
ATOM     26  C   UNL     1       2.266  -4.418  -0.606  0.00  0.00    +0.161 A 
ATOM     27  C   UNL     1       1.941  -5.558  -1.337  0.00  0.00    +0.159 A 
ATOM     28  C   UNL     1       0.732  -6.191  -1.115  0.00  0.00    +0.053 A 
ATOM     29  C   UNL     1      -0.155  -5.698  -0.170  0.00  0.00    -0.044 A 
ATOM     30  C   UNL     1      -1.465  -6.416   0.034  0.00  0.00    +0.017 C 
ATOM     31  C   UNL     1      -2.098  -5.974   1.354  0.00  0.00    -0.074 C 
ATOM     32  N   UNL     1      -2.128  -4.504   1.390  0.00  0.00    +0.383 N 
ATOM     33  C   UNL     1      -2.986  -4.058   2.496  0.00  0.00    -0.095 C 
ATOM     34  H   UNL     1      -2.490  -4.152   0.517  0.00  0.00    -0.081 HD
BRANCH  27  35
ATOM     35  O   UNL     1       2.808  -6.045  -2.264  0.00  0.00    -0.503 OA
ATOM     36  H   UNL     1       3.437  -6.691  -1.914  0.00  0.00    +0.292 HD
ENDBRANCH  27  35
BRANCH  26  37
ATOM     37  O   UNL     1       3.453  -3.787  -0.817  0.00  0.00    -0.491 OA
ATOM     38  C   UNL     1       3.718  -2.624  -0.030  0.00  0.00    +0.277 C 
ENDBRANCH  26  37
ENDBRANCH  22  23
ENDBRANCH  14  22
TORSDOF 7
