REMARK  Name = ZINC64623059
REMARK  4 active torsions:
REMARK  status: ('A' for Active; 'I' for Inactive)
REMARK    1  A    between atoms: C_1  and  O_2
REMARK    2  A    between atoms: O_2  and  C_3
REMARK    3  A    between atoms: C_6  and  C_9
REMARK    4  A    between atoms: N_26  and  C_27
REMARK                            x       y       z     vdW  Elec       q    Type
REMARK                         _______ _______ _______ _____ _____    ______ ____
ROOT
ATOM      1  C   UNL     1      -5.462  -2.434   0.918  0.00  0.00    +0.134 C 
ATOM      2  C   UNL     1      -5.753  -2.416  -0.586  0.00  0.00    +0.131 C 
ATOM      3  C   UNL     1      -6.749  -3.538  -0.850  0.00  0.00    -0.035 C 
ATOM      4  C   UNL     1      -7.795  -2.978  -1.446  0.00  0.00    -0.001 A 
ATOM      5  C   UNL     1      -9.031  -3.555  -1.998  0.00  0.00    +0.010 A 
ATOM      6  C   UNL     1      -9.914  -2.673  -2.538  0.00  0.00    +0.001 A 
ATOM      7  C   UNL     1      -9.693  -1.293  -2.583  0.00  0.00    +0.002 A 
ATOM      8  C   UNL     1      -8.584  -0.678  -2.103  0.00  0.00    +0.026 A 
ATOM      9  C   UNL     1      -7.580  -1.501  -1.514  0.00  0.00    +0.043 A 
ATOM     10  N   UNL     1      -6.407  -1.174  -0.999  0.00  0.00    -0.375 N 
ATOM     11  C   UNL     1      -6.509  -4.958  -0.398  0.00  0.00    +0.052 C 
ATOM     12  C   UNL     1      -6.135  -4.890   1.094  0.00  0.00    +0.114 C 
ATOM     13  N   UNL     1      -5.153  -3.820   1.303  0.00  0.00    -0.276 N 
ATOM     14  C   UNL     1      -3.957  -4.110   1.851  0.00  0.00    +0.307 C 
ATOM     15  O   UNL     1      -3.211  -3.213   2.193  0.00  0.00    -0.252 OA
ATOM     16  N   UNL     1      -3.586  -5.395   2.018  0.00  0.00    -0.269 N 
ATOM     17  H   UNL     1      -4.136  -6.109   1.660  0.00  0.00    +0.156 HD
ATOM     18  H   UNL     1      -6.042  -0.280  -0.902  0.00  0.00    +0.160 HD
ENDROOT
BRANCH  16  19
ATOM     19  C   UNL     1      -2.407  -5.699   2.710  0.00  0.00    +0.035 A 
ATOM     20  C   UNL     1      -1.331  -4.823   2.668  0.00  0.00    +0.024 A 
ATOM     21  C   UNL     1      -0.169  -5.125   3.351  0.00  0.00    +0.017 A 
ATOM     22  C   UNL     1      -0.077  -6.300   4.076  0.00  0.00    +0.018 A 
ATOM     23  C   UNL     1      -1.148  -7.175   4.119  0.00  0.00    +0.017 A 
ATOM     24  C   UNL     1      -2.314  -6.875   3.442  0.00  0.00    +0.024 A 
ATOM     25 BR   UNL     1       1.515  -6.711   5.009  0.00  0.00    -0.050 Br
ENDBRANCH  16  19
BRANCH   1  29
ATOM     26  C   UNL     1      -2.116   0.083   1.776  0.00  0.00    +0.120 A 
ATOM     27  C   UNL     1      -3.267   0.172   2.544  0.00  0.00    +0.046 A 
ATOM     28  C   UNL     1      -4.348  -0.643   2.265  0.00  0.00    +0.009 A 
ATOM     29  C   UNL     1      -4.282  -1.546   1.221  0.00  0.00    -0.024 A 
ATOM     30  C   UNL     1      -3.135  -1.637   0.453  0.00  0.00    +0.009 A 
ATOM     31  C   UNL     1      -2.055  -0.821   0.724  0.00  0.00    +0.046 A 
BRANCH  26  33
ATOM     32  C   UNL     1      -1.186   1.789   3.145  0.00  0.00    +0.277 C 
ATOM     33  O   UNL     1      -1.052   0.883   2.048  0.00  0.00    -0.495 OA
ENDBRANCH  26  33
ENDBRANCH   1  29
TORSDOF 3
