REMARK  Name = ZINC02853314
REMARK  8 active torsions:
REMARK  status: ('A' for Active; 'I' for Inactive)
REMARK    1  A    between atoms: N_4  and  C_6
REMARK    2  A    between atoms: C_9  and  C_12
REMARK    3  A    between atoms: N_14  and  N_15
REMARK    4  A    between atoms: N_15  and  C_16
REMARK    5  A    between atoms: C_16  and  N_18
REMARK    6  A    between atoms: N_18  and  C_19
REMARK    7  A    between atoms: C_22  and  S_25
REMARK    8  A    between atoms: S_25  and  N_28
REMARK                            x       y       z     vdW  Elec       q    Type
REMARK                         _______ _______ _______ _____ _____    ______ ____
ROOT
ATOM      1  N   UNL     1       2.378   1.252  -0.421  0.00  0.00    -0.245 N 
ATOM      2  H   UNL     1       2.388   0.325  -0.706  0.00  0.00    +0.172 HD
ENDROOT
BRANCH   1   5
ATOM      3  C   UNL     1       0.032   1.134  -0.034  0.00  0.00    +0.260 C 
ATOM      4  O   UNL     1       0.045  -0.028  -0.390  0.00  0.00    -0.269 OA
ATOM      5  N   UNL     1       1.174   1.849  -0.022  0.00  0.00    -0.231 N 
ATOM      6  H   UNL     1       1.164   2.776   0.262  0.00  0.00    +0.173 HD
BRANCH   3  10
ATOM      7  C   UNL     1      -3.619   2.949   1.159  0.00  0.00    +0.046 A 
ATOM      8  C   UNL     1      -3.606   1.619   0.751  0.00  0.00    +0.027 A 
ATOM      9  C   UNL     1      -2.424   1.028   0.364  0.00  0.00    +0.015 A 
ATOM     10  C   UNL     1      -1.237   1.765   0.381  0.00  0.00    +0.038 A 
ATOM     11  C   UNL     1      -1.254   3.099   0.796  0.00  0.00    +0.015 A 
ATOM     12  C   UNL     1      -2.440   3.685   1.177  0.00  0.00    +0.027 A 
BRANCH   7  16
ATOM     13  C   UNL     1      -6.952   3.831   2.010  0.00  0.00    +0.019 A 
ATOM     14  C   UNL     1      -6.270   5.040   2.259  0.00  0.00    +0.019 A 
ATOM     15  C   UNL     1      -4.969   4.838   1.970  0.00  0.00    +0.091 A 
ATOM     16  N   UNL     1      -4.821   3.546   1.551  0.00  0.00    -0.323 N 
ATOM     17  C   UNL     1      -6.044   2.937   1.572  0.00  0.00    +0.091 A 
ENDBRANCH   7  16
ENDBRANCH   3  10
ENDBRANCH   1   5
BRANCH   1  18
ATOM     18  C   UNL     1       3.520   1.966  -0.409  0.00  0.00    +0.151 C 
ATOM     19  S   UNL     1       4.991   1.237  -0.897  0.00  0.00    -0.017 S 
BRANCH  18  20
ATOM     20  N   UNL     1       3.506   3.255  -0.014  0.00  0.00    -0.296 N 
ATOM     21  H   UNL     1       2.664   3.686   0.203  0.00  0.00    +0.154 HD
BRANCH  20  22
ATOM     22  C   UNL     1       4.704   3.970   0.084  0.00  0.00    +0.033 A 
ATOM     23  C   UNL     1       4.954   4.760   1.199  0.00  0.00    +0.025 A 
ATOM     24  C   UNL     1       6.140   5.461   1.295  0.00  0.00    +0.030 A 
ATOM     25  C   UNL     1       7.074   5.385   0.277  0.00  0.00    +0.105 A 
ATOM     26  C   UNL     1       6.825   4.604  -0.836  0.00  0.00    +0.030 A 
ATOM     27  C   UNL     1       5.644   3.896  -0.936  0.00  0.00    +0.025 A 
BRANCH  25  28
ATOM     28  S   UNL     1       8.583   6.286   0.401  0.00  0.00    +0.056 S 
ATOM     29  O   UNL     1       8.811   6.509   1.786  0.00  0.00    -0.153 OA
ATOM     30  O   UNL     1       9.524   5.618  -0.428  0.00  0.00    -0.153 OA
BRANCH  28  31
ATOM     31  N   UNL     1       8.323   7.773  -0.281  0.00  0.00    -0.204 NA
ATOM     32  H   UNL     1       7.453   7.992  -0.649  0.00  0.00    +0.144 HD
ATOM     33  H   UNL     1       9.041   8.425  -0.312  0.00  0.00    +0.144 HD
ENDBRANCH  28  31
ENDBRANCH  25  28
ENDBRANCH  20  22
ENDBRANCH  18  20
ENDBRANCH   1  18
TORSDOF 8
