REMARK  Name = ZINC10341741
REMARK  3 active torsions:
REMARK  status: ('A' for Active; 'I' for Inactive)
REMARK    1  A    between atoms: C_9  and  C_10
REMARK    2  A    between atoms: C_9  and  N_47
REMARK    3  A    between atoms: N_12  and  N_13
REMARK                            x       y       z     vdW  Elec       q    Type
REMARK                         _______ _______ _______ _____ _____    ______ ____
ROOT
ATOM      1  C   UNL     1       1.488   6.068   0.975  0.00  0.00    +0.213 C 
ATOM      2  O   UNL     1       0.591   5.366   1.392  0.00  0.00    -0.276 OA
ATOM      3  N   UNL     1       1.351   7.409   0.978  0.00  0.00    -0.225 N 
ATOM      4  H   UNL     1       2.069   7.970   0.644  0.00  0.00    +0.173 HD
ENDROOT
BRANCH   3   5
ATOM      5  N   UNL     1       0.174   7.992   1.464  0.00  0.00    -0.137 N 
ATOM      6  C   UNL     1       0.070   8.611   2.658  0.00  0.00    +0.263 C 
ATOM      7  O   UNL     1       0.945   8.763   3.483  0.00  0.00    -0.271 OA
ATOM      8  C   UNL     1      -1.365   9.075   2.749  0.00  0.00    +0.114 C 
ATOM      9  C   UNL     1      -1.427  10.594   2.862  0.00  0.00    +0.035 C 
ATOM     10  C   UNL     1      -2.888  11.046   2.924  0.00  0.00    +0.003 C 
ATOM     11  C   UNL     1      -3.568  10.400   4.134  0.00  0.00    +0.000 C 
ATOM     12  C   UNL     1      -3.520   8.877   3.994  0.00  0.00    +0.003 C 
ATOM     13  C   UNL     1      -2.062   8.417   3.935  0.00  0.00    +0.035 C 
ATOM     14  N   UNL     1      -1.966   8.627   1.486  0.00  0.00    -0.284 N 
ATOM     15  C   UNL     1      -0.987   8.009   0.798  0.00  0.00    +0.326 C 
ATOM     16  O   UNL     1      -1.142   7.518  -0.304  0.00  0.00    -0.251 OA
ATOM     17  H   UNL     1      -2.884   8.755   1.202  0.00  0.00    +0.151 HD
ENDBRANCH   3   5
BRANCH   1  18
ATOM     18  C   UNL     1       2.755   5.441   0.453  0.00  0.00    +0.021 C 
BRANCH  18  27
ATOM     19  C   UNL     1       4.324   0.835  -0.517  0.00  0.00    +0.009 A 
ATOM     20  C   UNL     1       4.205  -0.469  -0.175  0.00  0.00    +0.045 A 
ATOM     21  S   UNL     1       3.212  -0.373   1.307  0.00  0.00    -0.101 S 
ATOM     22  C   UNL     1       3.031   1.387   1.358  0.00  0.00    -0.011 A 
ATOM     23  C   UNL     1       3.721   1.817   0.265  0.00  0.00    -0.054 A 
ATOM     24  C   UNL     1       3.795   3.311  -0.039  0.00  0.00    -0.042 C 
ATOM     25  C   UNL     1       2.755   3.694   2.131  0.00  0.00    -0.073 C 
ATOM     26  C   UNL     1       2.305   2.239   2.347  0.00  0.00    +0.024 C 
ATOM     27  N   UNL     1       2.687   3.984   0.678  0.00  0.00    +0.388 N 
ATOM     28  H   UNL     1       1.794   3.632   0.312  0.00  0.00    -0.081 HD
ENDBRANCH  18  27
ENDBRANCH   1  18
TORSDOF 3
