REMARK  Name = ZINC66243070
REMARK  4 active torsions:
REMARK  status: ('A' for Active; 'I' for Inactive)
REMARK    1  A    between atoms: C_8  and  C_10
REMARK    2  A    between atoms: C_13  and  C_15
REMARK    3  A    between atoms: C_15  and  N_16
REMARK    4  A    between atoms: N_18  and  C_19
REMARK                            x       y       z     vdW  Elec       q    Type
REMARK                         _______ _______ _______ _____ _____    ______ ____
ROOT
ATOM      1  C   UNL     1       3.051  -4.016  -0.008  0.00  0.00    +0.160 A 
ATOM      2  C   UNL     1       4.327  -4.489   0.065  0.00  0.00    +0.052 A 
ATOM      3  C   UNL     1       4.239  -5.893   0.059  0.00  0.00    +0.047 A 
ATOM      4  C   UNL     1       2.929  -6.208  -0.017  0.00  0.00    +0.125 A 
ATOM      5  O   UNL     1       2.215  -5.072  -0.051  0.00  0.00    -0.456 OA
ENDROOT
BRANCH   1  13
ATOM      6  C   UNL     1      -0.052   1.293  -0.177  0.00  0.00    +0.002 A 
ATOM      7  C   UNL     1       1.102   2.061  -0.117  0.00  0.00    +0.001 A 
ATOM      8  C   UNL     1       2.332   1.432  -0.051  0.00  0.00    +0.017 A 
ATOM      9  C   UNL     1       2.389   0.060  -0.047  0.00  0.00    +0.040 A 
ATOM     10  C   UNL     1       1.230  -0.751  -0.107  0.00  0.00    +0.079 A 
ATOM     11  C   UNL     1      -0.007  -0.066  -0.173  0.00  0.00    +0.029 A 
ATOM     12  N   UNL     1       1.446  -2.080  -0.094  0.00  0.00    -0.236 NA
ATOM     13  C   UNL     1       2.656  -2.600  -0.030  0.00  0.00    +0.144 A 
ATOM     14  S   UNL     1       3.692  -1.145   0.023  0.00  0.00    -0.064 S 
ENDBRANCH   1  13
BRANCH   4  15
ATOM     15  C   UNL     1       2.361  -7.603  -0.051  0.00  0.00    +0.190 C 
BRANCH  15  16
ATOM     16  N   UNL     1       2.098  -8.057   1.317  0.00  0.00    -0.351 N 
ATOM     17  C   UNL     1       1.575  -9.309   1.537  0.00  0.00    +0.169 C 
ATOM     18  N   UNL     1       1.341  -9.713   2.754  0.00  0.00    -0.355 N 
ATOM     19  N   UNL     1       1.298 -10.135   0.474  0.00  0.00    -0.371 N 
ATOM     20  H   UNL     1       2.294  -7.474   2.068  0.00  0.00    +0.163 HD
ATOM     21  H   UNL     1       1.545  -9.868  -0.425  0.00  0.00    +0.159 HD
ATOM     22  H   UNL     1       0.856 -10.986   0.622  0.00  0.00    +0.159 HD
ATOM     23  H   UNL     1       1.604  -9.161   3.507  0.00  0.00    +0.163 HD
BRANCH  18  24
ATOM     24  C   UNL     1       0.681 -11.001   2.985  0.00  0.00    +0.082 C 
ATOM     25  C   UNL     1       0.942 -11.699   4.321  0.00  0.00    +0.026 C 
ATOM     26  C   UNL     1       1.566 -12.248   3.037  0.00  0.00    +0.026 C 
ENDBRANCH  18  24
ENDBRANCH  15  16
ENDBRANCH   4  15
TORSDOF 4
