REMARK  Name = ZINC08513443
REMARK  2 active torsions:
REMARK  status: ('A' for Active; 'I' for Inactive)
REMARK    1  A    between atoms: C_3  and  C_10
REMARK    2  A    between atoms: C_5  and  N_7
REMARK                            x       y       z     vdW  Elec       q    Type
REMARK                         _______ _______ _______ _____ _____    ______ ____
ROOT
ATOM      1  C   UNL     1       3.672   2.182  -0.022  0.00  0.00    +0.091 C 
ATOM      2  C   UNL     1       3.757   2.981   1.258  0.00  0.00    +0.046 A 
ATOM      3  C   UNL     1       3.715   2.370   2.508  0.00  0.00    +0.127 A 
ATOM      4  N   UNL     1       3.795   3.124   3.604  0.00  0.00    -0.208 NA
ATOM      5  C   UNL     1       3.913   4.445   3.520  0.00  0.00    +0.180 A 
ATOM      6  S   UNL     1       4.012   5.364   4.961  0.00  0.00    -0.011 S 
ATOM      7  N   UNL     1       3.958   5.081   2.335  0.00  0.00    -0.318 N 
ATOM      8  H   UNL     1       4.045   6.047   2.306  0.00  0.00    +0.169 HD
ATOM      9  C   UNL     1       3.880   4.359   1.164  0.00  0.00    +0.140 A 
ATOM     10  N   UNL     1       3.925   4.977  -0.020  0.00  0.00    -0.234 NA
ATOM     11  C   UNL     1       3.862   4.390  -1.190  0.00  0.00    +0.051 C 
ATOM     12  C   UNL     1       3.732   2.997  -1.302  0.00  0.00    +0.028 C 
ATOM     13  C   UNL     1       3.663   2.381  -2.493  0.00  0.00    +0.162 C 
ATOM     14  O   UNL     1       3.540   1.039  -2.537  0.00  0.00    -0.292 OA
ATOM     15  C   UNL     1       3.720   3.159  -3.781  0.00  0.00    +0.080 C 
ATOM     16  C   UNL     1       3.137   4.556  -3.551  0.00  0.00    +0.014 C 
ATOM     17  C   UNL     1       3.929   5.237  -2.440  0.00  0.00    +0.056 C 
ATOM     18  N   UNL     1       3.591   1.000   2.611  0.00  0.00    -0.343 N 
ATOM     19  H   UNL     1       3.534   0.457   1.810  0.00  0.00    +0.144 HD
ATOM     20  H   UNL     1       3.563   0.580   3.485  0.00  0.00    +0.144 HD
ENDROOT
BRANCH   1  23
ATOM     21  C   UNL     1      -0.017   1.378   0.010  0.00  0.00    +0.003 A 
ATOM     22  C   UNL     1       1.171   2.085   0.002  0.00  0.00    +0.005 A 
ATOM     23  C   UNL     1       2.377   1.411  -0.013  0.00  0.00    -0.033 A 
ATOM     24  C   UNL     1       2.396   0.028  -0.020  0.00  0.00    +0.037 A 
ATOM     25  C   UNL     1       1.209  -0.679  -0.012  0.00  0.00    +0.126 A 
ATOM     26  C   UNL     1       0.002  -0.004   0.002  0.00  0.00    +0.033 A 
BRANCH  25  27
ATOM     27  N   UNL     1       1.229  -2.159  -0.020  0.00  0.00    +0.056 N 
ATOM     28  O   UNL     1       2.284  -2.749  -0.035  0.00  0.00    -0.126 OA
ATOM     29  O   UNL     1       0.190  -2.778  -0.013  0.00  0.00    -0.126 OA
ENDBRANCH  25  27
ENDBRANCH   1  23
TORSDOF 2
