REMARK  Name = ZINC04275268
REMARK  7 active torsions:
REMARK  status: ('A' for Active; 'I' for Inactive)
REMARK    1  A    between atoms: C_1  and  C_2
REMARK    2  A    between atoms: C_2  and  C_28
REMARK    3  A    between atoms: C_5  and  C_25
REMARK    4  A    between atoms: C_6  and  N_13
REMARK    5  A    between atoms: C_9  and  C_11
REMARK    6  A    between atoms: C_9  and  C_12
REMARK    7  A    between atoms: C_14  and  C_16
REMARK                            x       y       z     vdW  Elec       q    Type
REMARK                         _______ _______ _______ _____ _____    ______ ____
ROOT
ATOM      1  C   UNL     1      -0.019   1.526   0.010  0.00  0.00    -0.010 C 
ATOM      2  C   UNL     1       0.002  -0.004   0.002  0.00  0.00    -0.069 C 
ATOM      3  C   UNL     1      -1.434  -0.533  -0.098  0.00  0.00    +0.024 C 
ATOM      4  C   UNL     1      -2.142  -0.149   1.192  0.00  0.00    -0.026 A 
ATOM      5  C   UNL     1      -3.549   0.142   1.357  0.00  0.00    +0.068 A 
ATOM      6  C   UNL     1      -3.976   0.479   2.635  0.00  0.00    +0.085 A 
ATOM      7  S   UNL     1      -2.581   0.407   3.568  0.00  0.00    -0.079 S 
ATOM      8  C   UNL     1      -1.412  -0.065   2.329  0.00  0.00    -0.016 A 
ATOM      9  C   UNL     1       0.050  -0.329   2.463  0.00  0.00    -0.041 C 
ATOM     10  N   UNL     1       0.699  -0.528   1.169  0.00  0.00    +0.389 N 
ATOM     11  C   UNL     1       0.235  -1.604   3.309  0.00  0.00    -0.005 C 
ATOM     12  C   UNL     1       0.712   0.834   3.217  0.00  0.00    -0.005 C 
ATOM     13  C   UNL     1       0.760  -0.459  -1.260  0.00  0.00    -0.010 C 
ATOM     14  H   UNL     1       0.851  -1.529   1.033  0.00  0.00    -0.084 HD
ATOM     15  H   UNL     1       1.631  -0.111   1.204  0.00  0.00    -0.084 HD
ENDROOT
BRANCH   5  16
ATOM     16  C   UNL     1      -4.491   0.084   0.235  0.00  0.00    +0.244 C 
ATOM     17  O   UNL     1      -5.068  -0.956  -0.022  0.00  0.00    -0.270 OA
ATOM     18  N   UNL     1      -4.719   1.183  -0.511  0.00  0.00    -0.325 N 
ATOM     19  H   UNL     1      -4.259   2.012  -0.306  0.00  0.00    +0.145 HD
ATOM     20  H   UNL     1      -5.342   1.145  -1.253  0.00  0.00    +0.145 HD
ENDBRANCH   5  16
BRANCH   6  21
ATOM     21  N   UNL     1      -5.260   0.800   3.045  0.00  0.00    -0.275 N 
ATOM     22  C   UNL     1      -5.499   1.105   4.336  0.00  0.00    +0.249 C 
ATOM     23  O   UNL     1      -4.588   1.097   5.141  0.00  0.00    -0.270 OA
ATOM     24  H   UNL     1      -5.987   0.807   2.402  0.00  0.00    +0.156 HD
BRANCH  22  25
ATOM     25  C   UNL     1      -6.866   1.448   4.772  0.00  0.00    +0.038 A 
ATOM     26  C   UNL     1      -7.924   1.454   3.851  0.00  0.00    +0.015 A 
ATOM     27  C   UNL     1      -9.189   1.766   4.230  0.00  0.00    +0.029 A 
ATOM     28  C   UNL     1      -9.482   2.097   5.572  0.00  0.00    +0.078 A 
ATOM     29  C   UNL     1      -8.400   2.085   6.486  0.00  0.00    +0.040 A 
ATOM     30  C   UNL     1      -7.123   1.764   6.109  0.00  0.00    +0.030 A 
ATOM     31  S   UNL     1      -9.196   2.545   8.003  0.00  0.00    -0.075 S 
ATOM     32  C   UNL     1     -10.761   2.713   7.407  0.00  0.00    +0.157 A 
ATOM     33  N   UNL     1     -10.656   2.432   6.140  0.00  0.00    -0.247 NA
ENDBRANCH  22  25
ENDBRANCH   6  21
TORSDOF 3
