REMARK  Name = ZINC23038455
REMARK  9 active torsions:
REMARK  status: ('A' for Active; 'I' for Inactive)
REMARK    1  A    between atoms: C_1  and  C_2
REMARK    2  A    between atoms: C_2  and  C_4
REMARK    3  A    between atoms: C_2  and  N_16
REMARK    4  A    between atoms: N_6  and  C_7
REMARK    5  A    between atoms: N_16  and  C_17
REMARK    6  A    between atoms: N_16  and  C_18
REMARK    7  A    between atoms: C_18  and  C_19
REMARK    8  A    between atoms: N_21  and  C_22
REMARK    9  A    between atoms: C_26  and  C_28
REMARK                            x       y       z     vdW  Elec       q    Type
REMARK                         _______ _______ _______ _____ _____    ______ ____
ROOT
ATOM      1  N   UNL     1       3.668  -2.376  -0.646  0.00  0.00    +0.391 N 
ATOM      2  C   UNL     1       3.051  -2.705  -1.938  0.00  0.00    -0.094 C 
ATOM      3  H   UNL     1       2.953  -2.640   0.147  0.00  0.00    -0.080 HD
ENDROOT
BRANCH   1   5
ATOM      4  C   UNL     1       5.124  -0.578  -1.450  0.00  0.00    -0.004 C 
ATOM      5  C   UNL     1       3.942  -0.936  -0.546  0.00  0.00    +0.017 C 
BRANCH   5   6
ATOM      6  C   UNL     1       4.278  -0.587   0.881  0.00  0.00    +0.203 C 
ATOM      7  O   UNL     1       4.412  -1.467   1.705  0.00  0.00    -0.277 OA
ATOM      8  N   UNL     1       4.430   0.703   1.241  0.00  0.00    -0.284 N 
ATOM      9  H   UNL     1       4.221   1.504   0.517  0.00  0.00    +0.155 HD
BRANCH   8  10
ATOM     10  C   UNL     1       4.853   1.023   2.539  0.00  0.00    +0.072 A 
ATOM     11  C   UNL     1       5.534   0.082   3.299  0.00  0.00    +0.029 A 
ATOM     12  C   UNL     1       5.946   0.396   4.580  0.00  0.00    +0.043 A 
ATOM     13  C   UNL     1       5.691   1.653   5.103  0.00  0.00    +0.161 A 
ATOM     14  C   UNL     1       5.011   2.595   4.347  0.00  0.00    +0.195 A 
ATOM     15  C   UNL     1       4.591   2.282   3.065  0.00  0.00    +0.182 A 
ATOM     16  F   UNL     1       3.929   3.200   2.327  0.00  0.00    -0.200 F 
ATOM     17  F   UNL     1       4.758   3.819   4.861  0.00  0.00    -0.199 F 
ATOM     18  F   UNL     1       6.101   1.959   6.353  0.00  0.00    -0.202 F 
ENDBRANCH   8  10
ENDBRANCH   5   6
ENDBRANCH   1   5
BRANCH   1  19
ATOM     19  C   UNL     1       4.891  -3.161  -0.431  0.00  0.00    +0.020 C 
BRANCH  19  20
ATOM     20  C   UNL     1       4.534  -4.619  -0.297  0.00  0.00    +0.201 C 
ATOM     21  O   UNL     1       3.376  -4.970  -0.373  0.00  0.00    -0.278 OA
ATOM     22  N   UNL     1       5.503  -5.534  -0.092  0.00  0.00    -0.287 N 
ATOM     23  H   UNL     1       6.544  -5.209   0.052  0.00  0.00    +0.155 HD
BRANCH  22  24
ATOM     24  C   UNL     1       5.184  -6.896  -0.064  0.00  0.00    +0.034 A 
ATOM     25  C   UNL     1       3.986  -7.319   0.498  0.00  0.00    +0.025 A 
ATOM     26  C   UNL     1       3.672  -8.664   0.520  0.00  0.00    +0.022 A 
ATOM     27  C   UNL     1       4.554  -9.591  -0.007  0.00  0.00    +0.053 A 
ATOM     28  C   UNL     1       5.751  -9.172  -0.563  0.00  0.00    +0.075 A 
ATOM     29  C   UNL     1       6.067  -7.828  -0.592  0.00  0.00    +0.037 A 
ATOM     30 CL   UNL     1       4.159 -11.280   0.028  0.00  0.00    -0.083 Cl
BRANCH  28  31
ATOM     31  C   UNL     1       6.709 -10.184  -1.136  0.00  0.00    +0.419 C 
ATOM     32  F   UNL     1       7.838  -9.527  -1.636  0.00  0.00    -0.166 F 
ATOM     33  F   UNL     1       7.096 -11.080  -0.134  0.00  0.00    -0.166 F 
ATOM     34  F   UNL     1       6.082 -10.886  -2.171  0.00  0.00    -0.166 F 
ENDBRANCH  28  31
ENDBRANCH  22  24
ENDBRANCH  19  20
ENDBRANCH   1  19
TORSDOF 7
