REMARK  Name = ZINC59489280
REMARK  8 active torsions:
REMARK  status: ('A' for Active; 'I' for Inactive)
REMARK    1  A    between atoms: C_1  and  C_2
REMARK    2  A    between atoms: C_2  and  C_23
REMARK    3  A    between atoms: N_3  and  N_4
REMARK    4  A    between atoms: C_5  and  S_7
REMARK    5  A    between atoms: S_7  and  C_8
REMARK    6  A    between atoms: N_13  and  C_16
REMARK    7  A    between atoms: C_23  and  C_24
REMARK    8  A    between atoms: C_24  and  C_25
REMARK                            x       y       z     vdW  Elec       q    Type
REMARK                         _______ _______ _______ _____ _____    ______ ____
ROOT
ATOM      1  N   UNL     1      -0.323   0.899   2.592  0.00  0.00    -0.259 N 
ATOM      2  C   UNL     1      -0.245   0.032   3.580  0.00  0.00    +0.146 C 
ATOM      3  N   UNL     1      -0.305  -1.315   3.318  0.00  0.00    -0.338 N 
ATOM      4  H   UNL     1      -0.405  -1.627   2.405  0.00  0.00    +0.144 HD
ATOM      5  H   UNL     1      -0.247  -1.954   4.045  0.00  0.00    +0.144 HD
ATOM      6  H   UNL     1      -0.281   1.850   2.777  0.00  0.00    +0.191 HD
ENDROOT
BRANCH   1   9
ATOM      7  C   UNL     1      -0.479   2.777   0.591  0.00  0.00    +0.062 C 
ATOM      8  C   UNL     1      -0.545   1.300   0.303  0.00  0.00    +0.036 C 
ATOM      9  N   UNL     1      -0.468   0.448   1.274  0.00  0.00    -0.182 NA
BRANCH   8  10
ATOM     10  C   UNL     1      -0.700   0.814  -1.115  0.00  0.00    +0.057 C 
BRANCH  10  11
ATOM     11  C   UNL     1      -2.059   1.259  -1.660  0.00  0.00    +0.041 C 
BRANCH  11  12
ATOM     12  C   UNL     1      -2.215   0.774  -3.078  0.00  0.00    -0.043 A 
ATOM     13  C   UNL     1      -1.787   1.565  -4.129  0.00  0.00    +0.007 A 
ATOM     14  C   UNL     1      -1.927   1.123  -5.431  0.00  0.00    +0.050 A 
ATOM     15  C   UNL     1      -2.497  -0.113  -5.687  0.00  0.00    +0.166 A 
ATOM     16  C   UNL     1      -2.928  -0.909  -4.629  0.00  0.00    +0.166 A 
ATOM     17  C   UNL     1      -2.779  -0.463  -3.326  0.00  0.00    +0.053 A 
ATOM     18  O   UNL     1      -3.448  -2.065  -5.136  0.00  0.00    -0.453 OA
ATOM     19  C   UNL     1      -3.704  -1.794  -6.527  0.00  0.00    +0.466 C 
ATOM     20  O   UNL     1      -2.747  -0.770  -6.857  0.00  0.00    -0.453 OA
ENDBRANCH  11  12
ENDBRANCH  10  11
ENDBRANCH   8  10
ENDBRANCH   1   9
BRANCH   2  21
ATOM     21  S   UNL     1      -0.063   0.599   5.238  0.00  0.00    -0.078 S 
BRANCH  21  22
ATOM     22  C   UNL     1      -0.001  -0.925   6.219  0.00  0.00    +0.149 C 
ATOM     23  C   UNL     1       0.230  -0.603   7.710  0.00  0.00    +0.120 C 
ATOM     24  C   UNL     1      -1.009  -1.147   8.387  0.00  0.00    +0.228 C 
ATOM     25  O   UNL     1      -1.236  -1.101   9.576  0.00  0.00    -0.275 OA
ATOM     26  N   UNL     1      -1.814  -1.688   7.463  0.00  0.00    -0.209 N 
ATOM     27  C   UNL     1      -1.345  -1.621   6.207  0.00  0.00    +0.240 C 
ATOM     28  O   UNL     1      -1.907  -2.047   5.221  0.00  0.00    -0.274 OA
BRANCH  26  29
ATOM     29  C   UNL     1      -3.045  -2.278   7.782  0.00  0.00    +0.044 A 
ATOM     30  C   UNL     1      -3.220  -3.647   7.631  0.00  0.00    +0.025 A 
ATOM     31  C   UNL     1      -4.434  -4.226   7.945  0.00  0.00    +0.017 A 
ATOM     32  C   UNL     1      -5.475  -3.443   8.411  0.00  0.00    +0.018 A 
ATOM     33  C   UNL     1      -5.303  -2.078   8.563  0.00  0.00    +0.017 A 
ATOM     34  C   UNL     1      -4.090  -1.495   8.255  0.00  0.00    +0.025 A 
ATOM     35 BR   UNL     1      -7.136  -4.239   8.840  0.00  0.00    -0.050 Br
ENDBRANCH  26  29
ENDBRANCH  21  22
ENDBRANCH   2  21
TORSDOF 7
