REMARK  Name = ZINC02240385
REMARK  10 active torsions:
REMARK  status: ('A' for Active; 'I' for Inactive)
REMARK    1  A    between atoms: C_1  and  C_2
REMARK    2  A    between atoms: C_2  and  C_35
REMARK    3  A    between atoms: C_6  and  C_24
REMARK    4  A    between atoms: C_8  and  C_22
REMARK    5  A    between atoms: C_9  and  N_21
REMARK    6  A    between atoms: N_10  and  C_11
REMARK    7  A    between atoms: C_14  and  S_17
REMARK    8  A    between atoms: S_17  and  N_20
REMARK    9  A    between atoms: C_28  and  O_30
REMARK   10  A    between atoms: O_30  and  C_31
REMARK                            x       y       z     vdW  Elec       q    Type
REMARK                         _______ _______ _______ _____ _____    ______ ____
ROOT
ATOM      1  C   UNL     1       0.119   3.392   3.127  0.00  0.00    +0.011 C 
ATOM      2  C   UNL     1      -0.743   3.670   1.893  0.00  0.00    -0.023 C 
ATOM      3  C   UNL     1       0.110   4.332   0.809  0.00  0.00    +0.058 C 
ATOM      4  C   UNL     1       1.225   3.401   0.403  0.00  0.00    +0.025 C 
ATOM      5  C   UNL     1       1.063   2.061   0.447  0.00  0.00    +0.025 C 
ATOM      6  C   UNL     1       2.170   1.132   0.018  0.00  0.00    +0.097 C 
ATOM      7  C   UNL     1       3.494   1.839  -0.004  0.00  0.00    +0.077 C 
ATOM      8  C   UNL     1       3.564   3.196  -0.022  0.00  0.00    +0.107 C 
ATOM      9  N   UNL     1       2.410   3.947  -0.015  0.00  0.00    -0.260 N 
ATOM     10  C   UNL     1      -0.143   1.492   0.890  0.00  0.00    +0.162 C 
ATOM     11  O   UNL     1      -0.260   0.282   0.909  0.00  0.00    -0.292 OA
ATOM     12  C   UNL     1      -1.295   2.351   1.336  0.00  0.00    +0.086 C 
ATOM     13  C   UNL     1      -1.901   4.595   2.273  0.00  0.00    +0.011 C 
ENDROOT
BRANCH   9  14
ATOM     14  C   UNL     1       2.448   5.281  -0.439  0.00  0.00    +0.040 A 
ATOM     15  C   UNL     1       2.766   6.288   0.463  0.00  0.00    +0.026 A 
ATOM     16  C   UNL     1       2.807   7.603   0.041  0.00  0.00    +0.030 A 
ATOM     17  C   UNL     1       2.522   7.917  -1.275  0.00  0.00    +0.105 A 
ATOM     18  C   UNL     1       2.200   6.917  -2.174  0.00  0.00    +0.030 A 
ATOM     19  C   UNL     1       2.162   5.600  -1.760  0.00  0.00    +0.026 A 
BRANCH  17  20
ATOM     20  S   UNL     1       2.569   9.596  -1.808  0.00  0.00    +0.056 S 
ATOM     21  O   UNL     1       3.428  10.284  -0.909  0.00  0.00    -0.153 OA
ATOM     22  O   UNL     1       2.797   9.571  -3.211  0.00  0.00    -0.153 OA
BRANCH  20  23
ATOM     23  N   UNL     1       1.052  10.223  -1.587  0.00  0.00    -0.204 NA
ATOM     24  H   UNL     1       0.941  11.167  -1.394  0.00  0.00    +0.144 HD
ATOM     25  H   UNL     1       0.275   9.646  -1.649  0.00  0.00    +0.144 HD
ENDBRANCH  20  23
ENDBRANCH  17  20
ENDBRANCH   9  14
BRANCH   6  26
ATOM     26  C   UNL     1       1.868   0.607  -1.362  0.00  0.00    -0.031 A 
ATOM     27  C   UNL     1       1.727   1.487  -2.420  0.00  0.00    +0.005 A 
ATOM     28  C   UNL     1       1.455   1.008  -3.688  0.00  0.00    +0.004 A 
ATOM     29  C   UNL     1       1.312  -0.350  -3.900  0.00  0.00    +0.045 A 
ATOM     30  C   UNL     1       1.447  -1.234  -2.839  0.00  0.00    +0.120 A 
ATOM     31  C   UNL     1       1.726  -0.751  -1.568  0.00  0.00    +0.050 A 
BRANCH  30  32
ATOM     32  O   UNL     1       1.308  -2.570  -3.044  0.00  0.00    -0.495 OA
ATOM     33  C   UNL     1       1.021  -2.994  -4.378  0.00  0.00    +0.277 C 
ENDBRANCH  30  32
ENDBRANCH   6  26
BRANCH   8  34
ATOM     34  N   UNL     1       4.788   3.819  -0.049  0.00  0.00    -0.345 N 
ATOM     35  H   UNL     1       4.843   4.785   0.026  0.00  0.00    +0.144 HD
ATOM     36  H   UNL     1       5.598   3.293  -0.142  0.00  0.00    +0.144 HD
ENDBRANCH   8  34
BRANCH   7  37
ATOM     37  C   UNL     1       4.702   1.072  -0.005  0.00  0.00    +0.099 C 
ATOM     38  N   UNL     1       5.662   0.463  -0.005  0.00  0.00    -0.191 NA
ENDBRANCH   7  37
TORSDOF 7
