REMARK  Name = ZINC08951410
REMARK  8 active torsions:
REMARK  status: ('A' for Active; 'I' for Inactive)
REMARK    1  A    between atoms: C_1  and  C_2
REMARK    2  A    between atoms: C_2  and  C_34
REMARK    3  A    between atoms: C_3  and  N_22
REMARK    4  A    between atoms: N_5  and  N_9
REMARK    5  A    between atoms: C_10  and  C_11
REMARK    6  A    between atoms: C_20  and  O_21
REMARK    7  A    between atoms: N_22  and  O_33
REMARK    8  A    between atoms: N_25  and  C_26
REMARK                            x       y       z     vdW  Elec       q    Type
REMARK                         _______ _______ _______ _____ _____    ______ ____
ROOT
ATOM      1  C   UNL     1       0.042   1.550  -2.613  0.00  0.00    +0.026 C 
ATOM      2  C   UNL     1       0.092   0.029  -2.450  0.00  0.00    +0.056 C 
ATOM      3  C   UNL     1      -0.332  -0.404  -1.022  0.00  0.00    +0.232 C 
ATOM      4  N   UNL     1       0.817  -0.521  -0.142  0.00  0.00    -0.187 N 
ATOM      5  C   UNL     1       2.051  -0.669  -0.662  0.00  0.00    +0.132 C 
ATOM      6  S   UNL     1       3.519  -0.886   0.191  0.00  0.00    -0.026 S 
ATOM      7  S   UNL     1       1.827  -0.592  -2.432  0.00  0.00    -0.091 S 
ATOM      8  C   UNL     1      -0.744  -0.672  -3.522  0.00  0.00    +0.026 C 
ENDROOT
BRANCH   3   9
ATOM      9  N   UNL     1      -1.011  -1.700  -1.096  0.00  0.00    -0.143 N 
ATOM     10  C   UNL     1      -0.304  -2.840  -0.964  0.00  0.00    +0.331 C 
ATOM     11  O   UNL     1       0.874  -2.793  -0.667  0.00  0.00    -0.250 OA
ATOM     12  N   UNL     1      -0.903  -4.031  -1.163  0.00  0.00    -0.268 N 
ATOM     13  H   UNL     1      -1.831  -4.066  -1.444  0.00  0.00    +0.156 HD
BRANCH  12  14
ATOM     14  C   UNL     1      -0.186  -5.216  -0.962  0.00  0.00    +0.035 A 
ATOM     15  C   UNL     1       0.603  -5.369   0.170  0.00  0.00    +0.025 A 
ATOM     16  C   UNL     1       1.309  -6.540   0.365  0.00  0.00    +0.022 A 
ATOM     17  C   UNL     1       1.231  -7.560  -0.566  0.00  0.00    +0.041 A 
ATOM     18  C   UNL     1       0.446  -7.410  -1.696  0.00  0.00    +0.022 A 
ATOM     19  C   UNL     1      -0.267  -6.244  -1.893  0.00  0.00    +0.025 A 
ATOM     20 CL   UNL     1       2.120  -9.030  -0.318  0.00  0.00    -0.084 Cl
ENDBRANCH  12  14
BRANCH   9  21
ATOM     21  O   UNL     1      -2.411  -1.755  -1.306  0.00  0.00    -0.289 OA
ATOM     22  H   UNL     1      -2.782  -2.646  -1.248  0.00  0.00    +0.242 HD
ENDBRANCH   9  21
ENDBRANCH   3   9
BRANCH   4  23
ATOM     23  N   UNL     1       0.642  -0.479   1.247  0.00  0.00    -0.184 NA
ATOM     24  C   UNL     1      -0.555  -0.436   1.751  0.00  0.00    +0.142 C 
BRANCH  24  25
ATOM     25  C   UNL     1      -0.743  -0.505   3.207  0.00  0.00    +0.044 A 
ATOM     26  C   UNL     1      -2.083  -0.464   3.790  0.00  0.00    -0.006 A 
ATOM     27  C   UNL     1      -3.226  -0.358   2.988  0.00  0.00    +0.009 A 
ATOM     28  C   UNL     1      -4.457  -0.323   3.571  0.00  0.00    +0.001 A 
ATOM     29  C   UNL     1      -4.595  -0.391   4.955  0.00  0.00    +0.001 A 
ATOM     30  C   UNL     1      -3.505  -0.494   5.764  0.00  0.00    +0.008 A 
ATOM     31  C   UNL     1      -2.220  -0.533   5.198  0.00  0.00    -0.017 A 
ATOM     32  C   UNL     1      -1.071  -0.640   6.001  0.00  0.00    +0.012 A 
ATOM     33  C   UNL     1       0.168  -0.677   5.442  0.00  0.00    +0.046 A 
ATOM     34  C   UNL     1       0.353  -0.617   4.062  0.00  0.00    +0.126 A 
BRANCH  34  35
ATOM     35  O   UNL     1       1.608  -0.664   3.547  0.00  0.00    -0.506 OA
ATOM     36  H   UNL     1       2.024   0.203   3.446  0.00  0.00    +0.292 HD
ENDBRANCH  34  35
ENDBRANCH  24  25
ENDBRANCH   4  23
TORSDOF 6
