REMARK  Name = ZINC26651235
REMARK  6 active torsions:
REMARK  status: ('A' for Active; 'I' for Inactive)
REMARK    1  A    between atoms: C_3  and  C_10
REMARK    2  A    between atoms: C_5  and  C_7
REMARK    3  A    between atoms: C_10  and  N_11
REMARK    4  A    between atoms: C_14  and  N_18
REMARK    5  A    between atoms: N_18  and  S_19
REMARK    6  A    between atoms: S_19  and  C_22
REMARK                            x       y       z     vdW  Elec       q    Type
REMARK                         _______ _______ _______ _____ _____    ______ ____
ROOT
ATOM      1  N   UNL     1       1.143   4.081   1.394  0.00  0.00    -0.296 N 
ATOM      2  C   UNL     1       2.356   4.376   2.165  0.00  0.00    +0.110 C 
ATOM      3  C   UNL     1       1.906   4.418   3.642  0.00  0.00    +0.049 C 
ATOM      4  C   UNL     1       0.410   4.788   3.505  0.00  0.00    +0.164 C 
ATOM      5  C   UNL     1       0.035   4.314   2.119  0.00  0.00    +0.235 C 
ATOM      6  O   UNL     1      -1.101   4.163   1.720  0.00  0.00    -0.274 OA
ENDROOT
BRANCH   4   7
ATOM      7  N   UNL     1      -0.384   4.093   4.521  0.00  0.00    -0.178 NA
ATOM      8  H   UNL     1      -0.213   3.024   4.718  0.00  0.00    +0.149 HD
BRANCH   7   9
ATOM      9  S   UNL     1      -1.699   4.839   5.197  0.00  0.00    +0.065 S 
ATOM     10  O   UNL     1      -2.266   3.912   6.113  0.00  0.00    -0.153 OA
ATOM     11  O   UNL     1      -1.273   6.136   5.591  0.00  0.00    -0.153 OA
BRANCH   9  12
ATOM     12  C   UNL     1      -2.885   5.067   3.913  0.00  0.00    +0.145 A 
ATOM     13  C   UNL     1      -3.861   4.232   3.525  0.00  0.00    +0.064 A 
ATOM     14  C   UNL     1      -4.741   4.621   2.435  0.00  0.00    +0.082 A 
ATOM     15  C   UNL     1      -4.455   5.884   1.872  0.00  0.00    +0.040 A 
ATOM     16  S   UNL     1      -3.069   6.460   2.816  0.00  0.00    -0.067 S 
ATOM     17  C   UNL     1      -5.193   6.398   0.827  0.00  0.00    +0.020 A 
ATOM     18  C   UNL     1      -6.239   5.635   0.332  0.00  0.00    +0.041 A 
ATOM     19  C   UNL     1      -6.490   4.398   0.911  0.00  0.00    +0.130 A 
ATOM     20  N   UNL     1      -5.773   3.933   1.903  0.00  0.00    -0.235 NA
ATOM     21 CL   UNL     1      -7.798   3.435   0.298  0.00  0.00    -0.062 Cl
ENDBRANCH   9  12
ENDBRANCH   7   9
ENDBRANCH   4   7
BRANCH   1  22
ATOM     22  C   UNL     1       1.139   3.599   0.010  0.00  0.00    +0.143 C 
BRANCH  22  25
ATOM     23  C   UNL     1       0.002  -0.004   0.002  0.00  0.00    +0.001 A 
ATOM     24  C   UNL     1      -0.017   1.379   0.010  0.00  0.00    +0.005 A 
ATOM     25  C   UNL     1       1.168   2.093   0.002  0.00  0.00    -0.029 A 
ATOM     26  C   UNL     1       2.377   1.428  -0.013  0.00  0.00    +0.016 A 
ATOM     27  C   UNL     1       2.403   0.033  -0.021  0.00  0.00    +0.012 A 
ATOM     28  C   UNL     1       1.204  -0.680  -0.013  0.00  0.00    +0.011 A 
BRANCH  27  29
ATOM     29  C   UNL     1       3.697  -0.686  -0.038  0.00  0.00    +0.094 C 
ATOM     30  N   UNL     1       4.814  -0.017  -0.045  0.00  0.00    -0.387 N 
ATOM     31  N   UNL     1       3.719  -2.064  -0.046  0.00  0.00    -0.345 N 
ATOM     32  H   UNL     1       5.775  -0.552  -0.057  0.00  0.00    +0.157 HD
ATOM     33  H   UNL     1       4.680  -2.599  -0.058  0.00  0.00    +0.144 HD
ATOM     34  H   UNL     1       2.775  -2.629  -0.040  0.00  0.00    +0.144 HD
ATOM     35  H   UNL     1       4.797   1.082  -0.038  0.00  0.00    +0.157 HD
ENDBRANCH  27  29
ENDBRANCH  22  25
ENDBRANCH   1  22
TORSDOF 6
