REMARK  Name = ZINC20833144
REMARK  13 active torsions:
REMARK  status: ('A' for Active; 'I' for Inactive)
REMARK    1  A    between atoms: C_1  and  C_2
REMARK    2  A    between atoms: C_2  and  O_3
REMARK    3  A    between atoms: O_3  and  C_4
REMARK    4  A    between atoms: C_7  and  C_10
REMARK    5  A    between atoms: N_11  and  N_12
REMARK    6  A    between atoms: C_15  and  S_18
REMARK    7  A    between atoms: S_18  and  C_19
REMARK    8  A    between atoms: C_19  and  C_20
REMARK    9  A    between atoms: N_22  and  C_23
REMARK   10  A    between atoms: C_25  and  C_31
REMARK   11  A    between atoms: C_25  and  C_32
REMARK   12  A    between atoms: C_27  and  C_29
REMARK   13  A    between atoms: C_27  and  C_30
REMARK                            x       y       z     vdW  Elec       q    Type
REMARK                         _______ _______ _______ _____ _____    ______ ____
ROOT
ATOM      1  N   UNL     1      -4.837   0.932   0.029  0.00  0.00    -0.205 N 
ATOM      2  C   UNL     1      -6.046   1.612   0.038  0.00  0.00    +0.232 A 
ATOM      3  N   UNL     1      -7.289   1.042   0.041  0.00  0.00    -0.186 NA
ATOM      4  C   UNL     1      -8.214   2.048   0.052  0.00  0.00    +0.211 A 
ATOM      5  N   UNL     1      -7.571   3.191   0.056  0.00  0.00    -0.144 NA
ATOM      6  N   UNL     1      -6.197   2.914   0.052  0.00  0.00    -0.245 N 
ATOM      7  H   UNL     1      -4.825  -0.168   0.023  0.00  0.00    +0.177 HD
ATOM      8  H   UNL     1      -5.315   3.571   0.059  0.00  0.00    +0.192 HD
ENDROOT
BRANCH   1  10
ATOM      9  C   UNL     1      -2.500   1.008   0.019  0.00  0.00    +0.138 C 
ATOM     10  N   UNL     1      -3.632   1.645   0.028  0.00  0.00    -0.188 NA
BRANCH   9  14
ATOM     11  C   UNL     1       1.153   3.171   0.008  0.00  0.00    +0.121 A 
ATOM     12  C   UNL     1       1.171   1.782   0.001  0.00  0.00    +0.046 A 
ATOM     13  C   UNL     1      -0.013   1.076   0.008  0.00  0.00    +0.013 A 
ATOM     14  C   UNL     1      -1.232   1.759   0.017  0.00  0.00    -0.005 A 
ATOM     15  C   UNL     1      -1.244   3.156   0.031  0.00  0.00    +0.013 A 
ATOM     16  C   UNL     1      -0.056   3.854   0.022  0.00  0.00    +0.046 A 
BRANCH  11  17
ATOM     17  O   UNL     1       2.322   3.863  -0.000  0.00  0.00    -0.492 OA
BRANCH  17  19
ATOM     18  C   UNL     1       3.639   5.889  -0.003  0.00  0.00    +0.048 C 
ATOM     19  C   UNL     1       2.232   5.289   0.008  0.00  0.00    +0.225 C 
ENDBRANCH  17  19
ENDBRANCH  11  17
ENDBRANCH   9  14
ENDBRANCH   1  10
BRANCH   4  20
ATOM     20  S   UNL     1      -9.964   1.844   0.059  0.00  0.00    -0.075 S 
BRANCH  20  21
ATOM     21  C   UNL     1     -10.604   3.542   0.073  0.00  0.00    +0.173 C 
BRANCH  21  22
ATOM     22  C   UNL     1     -12.110   3.511   0.080  0.00  0.00    +0.224 C 
ATOM     23  O   UNL     1     -12.695   2.449   0.077  0.00  0.00    -0.275 OA
ATOM     24  N   UNL     1     -12.807   4.665   0.091  0.00  0.00    -0.312 N 
ATOM     25  H   UNL     1     -12.277   5.628   0.094  0.00  0.00    +0.149 HD
BRANCH  24  26
ATOM     26  C   UNL     1     -14.275   4.635   0.098  0.00  0.00    +0.070 C 
ATOM     27  C   UNL     1     -14.784   4.544  -1.340  0.00  0.00    +0.009 C 
ATOM     28  C   UNL     1     -16.311   4.535  -1.365  0.00  0.00    -0.072 C 
ATOM     29  N   UNL     1     -16.896   5.592  -0.567  0.00  0.00    +0.386 N 
ATOM     30  C   UNL     1     -16.329   5.934   0.720  0.00  0.00    -0.072 C 
ATOM     31  C   UNL     1     -14.802   5.929   0.719  0.00  0.00    +0.009 C 
ATOM     32  C   UNL     1     -16.844   4.997   1.819  0.00  0.00    -0.010 C 
ATOM     33  C   UNL     1     -16.788   7.363   1.085  0.00  0.00    -0.010 C 
ATOM     34  C   UNL     1     -16.822   3.159  -0.921  0.00  0.00    -0.010 C 
ATOM     35  C   UNL     1     -16.753   4.736  -2.832  0.00  0.00    -0.010 C 
ATOM     36  H   UNL     1     -16.862   6.537  -1.129  0.00  0.00    -0.084 HD
ATOM     37  H   UNL     1     -17.942   5.341  -0.336  0.00  0.00    -0.084 HD
ENDBRANCH  24  26
ENDBRANCH  21  22
ENDBRANCH  20  21
ENDBRANCH   4  20
TORSDOF 8
