REMARK  Name = ZINC19113044
REMARK  11 active torsions:
REMARK  status: ('A' for Active; 'I' for Inactive)
REMARK    1  A    between atoms: C_1  and  C_2
REMARK    2  A    between atoms: C_2  and  N_3
REMARK    3  A    between atoms: C_4  and  C_23
REMARK    4  A    between atoms: C_6  and  C_13
REMARK    5  A    between atoms: C_9  and  C_10
REMARK    6  A    between atoms: C_9  and  C_11
REMARK    7  A    between atoms: C_11  and  O_12
REMARK    8  A    between atoms: C_13  and  N_14
REMARK    9  A    between atoms: N_14  and  C_15
REMARK   10  A    between atoms: C_15  and  C_16
REMARK   11  A    between atoms: C_21  and  O_22
REMARK                            x       y       z     vdW  Elec       q    Type
REMARK                         _______ _______ _______ _____ _____    ______ ____
ROOT
ATOM      1  N   UNL     1       0.690  -0.478  -1.207  0.00  0.00    +0.389 N 
ATOM      2  C   UNL     1      -0.096  -0.112  -2.400  0.00  0.00    -0.033 C 
ATOM      3  C   UNL     1      -0.446  -1.422  -3.136  0.00  0.00    -0.008 C 
ATOM      4  C   UNL     1       0.640  -2.408  -2.630  0.00  0.00    -0.007 C 
ATOM      5  C   UNL     1       0.819  -1.950  -1.161  0.00  0.00    -0.044 C 
ATOM      6  C   UNL     1      -0.275  -2.553  -0.278  0.00  0.00    -0.007 C 
ATOM      7  H   UNL     1       1.606  -0.058  -1.264  0.00  0.00    -0.080 HD
ENDROOT
BRANCH   2   8
ATOM      8  C   UNL     1       0.721   0.781  -3.297  0.00  0.00    -0.061 A 
ATOM      9  C   UNL     1       2.066   0.524  -3.490  0.00  0.00    +0.003 A 
ATOM     10  C   UNL     1       2.816   1.343  -4.312  0.00  0.00    +0.020 A 
ATOM     11  C   UNL     1       2.220   2.421  -4.943  0.00  0.00    +0.041 A 
ATOM     12  C   UNL     1       0.875   2.678  -4.750  0.00  0.00    +0.020 A 
ATOM     13  C   UNL     1       0.125   1.855  -3.932  0.00  0.00    +0.003 A 
ATOM     14 CL   UNL     1       3.162   3.451  -5.977  0.00  0.00    -0.084 Cl
ENDBRANCH   2   8
BRANCH   1  16
ATOM     15  C   UNL     1      -0.019   1.526   0.010  0.00  0.00    -0.017 C 
ATOM     16  C   UNL     1       0.002  -0.004   0.002  0.00  0.00    -0.081 C 
ENDBRANCH   1  16
BRANCH   5  17
ATOM     17  C   UNL     1       2.202  -2.348  -0.643  0.00  0.00    +0.143 C 
BRANCH  17  18
ATOM     18  O   UNL     1       2.306  -3.772  -0.607  0.00  0.00    -0.396 OA
ATOM     19  H   UNL     1       3.159  -4.097  -0.288  0.00  0.00    +0.209 HD
ENDBRANCH  17  18
ENDBRANCH   5  17
BRANCH   3  20
ATOM     20  C   UNL     1      -0.347  -1.235  -4.651  0.00  0.00    +0.083 C 
BRANCH  20  21
ATOM     21  N   UNL     1      -0.800  -2.458  -5.327  0.00  0.00    -0.312 NA
ATOM     22  H   UNL     1      -0.274  -3.260  -5.013  0.00  0.00    +0.122 HD
BRANCH  21  23
ATOM     23  C   UNL     1      -0.719  -2.314  -6.786  0.00  0.00    +0.120 C 
BRANCH  23  24
ATOM     24  C   UNL     1      -1.190  -3.586  -7.444  0.00  0.00    +0.008 A 
ATOM     25  C   UNL     1      -0.270  -4.506  -7.907  0.00  0.00    +0.008 A 
ATOM     26  C   UNL     1      -0.702  -5.673  -8.510  0.00  0.00    +0.001 A 
ATOM     27  C   UNL     1      -2.055  -5.921  -8.651  0.00  0.00    +0.004 A 
ATOM     28  C   UNL     1      -2.979  -5.004  -8.189  0.00  0.00    +0.046 A 
ATOM     29  C   UNL     1      -2.548  -3.835  -7.579  0.00  0.00    +0.121 A 
BRANCH  29  30
ATOM     30  O   UNL     1      -3.455  -2.934  -7.118  0.00  0.00    -0.506 OA
ATOM     31  H   UNL     1      -3.713  -2.268  -7.770  0.00  0.00    +0.292 HD
ENDBRANCH  29  30
ENDBRANCH  23  24
ENDBRANCH  21  23
ENDBRANCH  20  21
ENDBRANCH   3  20
TORSDOF 9
