REMARK  Name = ZINC59171143
REMARK  5 active torsions:
REMARK  status: ('A' for Active; 'I' for Inactive)
REMARK    1  A    between atoms: C_1  and  O_2
REMARK    2  A    between atoms: O_2  and  C_3
REMARK    3  A    between atoms: C_6  and  N_9
REMARK    4  A    between atoms: C_11  and  C_24
REMARK    5  A    between atoms: C_24  and  N_26
REMARK                            x       y       z     vdW  Elec       q    Type
REMARK                         _______ _______ _______ _____ _____    ______ ____
ROOT
ATOM      1  N   UNL     1      -5.184  -2.286  -0.156  0.00  0.00    -0.325 N 
ATOM      2  C   UNL     1      -5.216  -3.403  -0.850  0.00  0.00    +0.209 A 
ATOM      3  C   UNL     1      -6.334  -4.358  -0.710  0.00  0.00    +0.064 A 
ATOM      4  C   UNL     1      -6.596  -5.189  -1.795  0.00  0.00    +0.027 A 
ATOM      5  C   UNL     1      -5.764  -5.084  -2.930  0.00  0.00    +0.026 A 
ATOM      6  C   UNL     1      -6.112  -5.763  -4.179  0.00  0.00    -0.007 A 
ATOM      7  C   UNL     1      -7.260  -6.551  -4.290  0.00  0.00    +0.009 A 
ATOM      8  C   UNL     1      -7.546  -7.166  -5.474  0.00  0.00    +0.001 A 
ATOM      9  C   UNL     1      -6.707  -7.019  -6.574  0.00  0.00    +0.001 A 
ATOM     10  C   UNL     1      -5.580  -6.258  -6.500  0.00  0.00    +0.008 A 
ATOM     11  C   UNL     1      -5.256  -5.610  -5.297  0.00  0.00    -0.017 A 
ATOM     12  C   UNL     1      -4.100  -4.814  -5.183  0.00  0.00    +0.012 A 
ATOM     13  C   UNL     1      -3.786  -4.197  -4.015  0.00  0.00    +0.047 A 
ATOM     14  C   UNL     1      -4.590  -4.321  -2.879  0.00  0.00    +0.138 A 
ATOM     15  O   UNL     1      -4.226  -3.718  -1.724  0.00  0.00    -0.439 OA
ATOM     16  H   UNL     1      -5.943  -2.033   0.392  0.00  0.00    +0.169 HD
ENDROOT
BRANCH   1  20
ATOM     17  C   UNL     1      -1.841   0.151  -0.312  0.00  0.00    +0.120 A 
ATOM     18  C   UNL     1      -3.108   0.709  -0.410  0.00  0.00    +0.047 A 
ATOM     19  C   UNL     1      -4.225  -0.099  -0.358  0.00  0.00    +0.029 A 
ATOM     20  C   UNL     1      -4.079  -1.480  -0.208  0.00  0.00    +0.042 A 
ATOM     21  C   UNL     1      -2.801  -2.036  -0.111  0.00  0.00    +0.029 A 
ATOM     22  C   UNL     1      -1.690  -1.221  -0.168  0.00  0.00    +0.047 A 
BRANCH  17  24
ATOM     23  C   UNL     1      -0.969   2.355  -0.512  0.00  0.00    +0.277 C 
ATOM     24  O   UNL     1      -0.743   0.952  -0.363  0.00  0.00    -0.495 OA
ENDBRANCH  17  24
ENDBRANCH   1  20
BRANCH   3  25
ATOM     25  C   UNL     1      -7.134  -4.427   0.520  0.00  0.00    +0.082 C 
ATOM     26  S   UNL     1      -6.684  -3.501   1.888  0.00  0.00    -0.035 S 
BRANCH  25  27
ATOM     27  N   UNL     1      -8.223  -5.221   0.573  0.00  0.00    -0.352 N 
ATOM     28  H   UNL     1      -8.477  -5.746  -0.202  0.00  0.00    +0.143 HD
ATOM     29  H   UNL     1      -8.751  -5.266   1.385  0.00  0.00    +0.143 HD
ENDBRANCH  25  27
ENDBRANCH   3  25
TORSDOF 4
