REMARK  Name = ZINC02245706
REMARK  6 active torsions:
REMARK  status: ('A' for Active; 'I' for Inactive)
REMARK    1  A    between atoms: C_1  and  O_2
REMARK    2  A    between atoms: O_2  and  C_3
REMARK    3  A    between atoms: C_6  and  C_9
REMARK    4  A    between atoms: C_20  and  C_22
REMARK    5  A    between atoms: C_34  and  S_36
REMARK    6  A    between atoms: S_36  and  C_37
REMARK                            x       y       z     vdW  Elec       q    Type
REMARK                         _______ _______ _______ _____ _____    ______ ____
ROOT
ATOM      1  C   UNL     1      -5.020  -2.000  -0.007  0.00  0.00    +0.159 C 
ATOM      2  C   UNL     1      -5.198  -2.816   1.254  0.00  0.00    +0.025 C 
ATOM      3  C   UNL     1      -5.268  -4.157   1.138  0.00  0.00    +0.058 C 
ATOM      4  C   UNL     1      -5.452  -4.944   2.385  0.00  0.00    +0.042 A 
ATOM      5  C   UNL     1      -5.219  -6.312   2.419  0.00  0.00    +0.033 A 
ATOM      6  C   UNL     1      -5.401  -7.005   3.602  0.00  0.00    +0.042 A 
ATOM      7  C   UNL     1      -5.813  -6.339   4.744  0.00  0.00    +0.023 A 
ATOM      8  C   UNL     1      -6.047  -4.976   4.716  0.00  0.00    +0.048 A 
ATOM      9  C   UNL     1      -5.870  -4.270   3.539  0.00  0.00    +0.131 A 
ATOM     10  O   UNL     1      -6.100  -2.934   3.482  0.00  0.00    -0.479 OA
ATOM     11  C   UNL     1      -5.284  -2.159   2.601  0.00  0.00    +0.237 C 
ATOM     12 CL   UNL     1      -5.112  -8.716   3.655  0.00  0.00    -0.084 Cl
ATOM     13  N   UNL     1      -5.176  -4.771  -0.067  0.00  0.00    -0.326 N 
ATOM     14  C   UNL     1      -5.021  -4.139  -1.211  0.00  0.00    +0.216 C 
ATOM     15  N   UNL     1      -4.935  -2.765  -1.258  0.00  0.00    -0.209 N 
ATOM     16  N   UNL     1      -4.775  -2.416  -2.601  0.00  0.00    -0.239 N 
ATOM     17  C   UNL     1      -4.767  -3.591  -3.305  0.00  0.00    +0.174 C 
ATOM     18  N   UNL     1      -4.915  -4.591  -2.474  0.00  0.00    -0.192 NA
ATOM     19  H   UNL     1      -5.228  -5.739  -0.087  0.00  0.00    +0.169 HD
ATOM     20  H   UNL     1      -4.688  -1.520  -2.963  0.00  0.00    +0.172 HD
ENDROOT
BRANCH  11  21
ATOM     21  C   UNL     1      -3.900  -2.034   3.184  0.00  0.00    +0.032 A 
ATOM     22  C   UNL     1      -3.217  -3.164   3.592  0.00  0.00    +0.010 A 
ATOM     23  C   UNL     1      -1.948  -3.050   4.127  0.00  0.00    +0.001 A 
ATOM     24  C   UNL     1      -1.360  -1.804   4.255  0.00  0.00    +0.003 A 
ATOM     25  C   UNL     1      -2.041  -0.673   3.848  0.00  0.00    +0.039 A 
ATOM     26  C   UNL     1      -3.311  -0.787   3.307  0.00  0.00    +0.130 A 
ATOM     27  F   UNL     1      -3.976   0.318   2.905  0.00  0.00    -0.205 F 
ENDBRANCH  11  21
BRANCH   1  31
ATOM     28  C   UNL     1      -1.446   0.309   0.391  0.00  0.00    +0.120 A 
ATOM     29  C   UNL     1      -2.686   0.925   0.482  0.00  0.00    +0.046 A 
ATOM     30  C   UNL     1      -3.840   0.177   0.353  0.00  0.00    +0.009 A 
ATOM     31  C   UNL     1      -3.760  -1.186   0.133  0.00  0.00    -0.021 A 
ATOM     32  C   UNL     1      -2.526  -1.803   0.042  0.00  0.00    +0.009 A 
ATOM     33  C   UNL     1      -1.369  -1.058   0.164  0.00  0.00    +0.046 A 
BRANCH  28  35
ATOM     34  C   UNL     1      -0.465   2.445   0.749  0.00  0.00    +0.277 C 
ATOM     35  O   UNL     1      -0.310   1.043   0.517  0.00  0.00    -0.495 OA
ENDBRANCH  28  35
ENDBRANCH   1  31
BRANCH  17  36
ATOM     36  S   UNL     1      -4.591  -3.734  -5.053  0.00  0.00    -0.092 S 
ATOM     37  C   UNL     1      -4.659  -5.522  -5.356  0.00  0.00    +0.093 C 
ENDBRANCH  17  36
TORSDOF 4
