REMARK  Name = ZINC47968174
REMARK  5 active torsions:
REMARK  status: ('A' for Active; 'I' for Inactive)
REMARK    1  A    between atoms: C_1  and  S_2
REMARK    2  A    between atoms: S_2  and  C_5
REMARK    3  A    between atoms: C_9  and  C_11
REMARK    4  A    between atoms: N_13  and  N_14
REMARK    5  A    between atoms: N_17  and  C_18
REMARK                            x       y       z     vdW  Elec       q    Type
REMARK                         _______ _______ _______ _____ _____    ______ ____
ROOT
ATOM      1  N   UNL     1       6.382  -1.607  -3.789  0.00  0.00    -0.218 N 
ATOM      2  C   UNL     1       7.021  -1.951  -4.924  0.00  0.00    +0.320 C 
ATOM      3  O   UNL     1       8.227  -2.106  -4.920  0.00  0.00    -0.251 OA
ATOM      4  N   UNL     1       6.324  -2.124  -6.064  0.00  0.00    -0.268 N 
ATOM      5  H   UNL     1       6.884  -1.482  -2.968  0.00  0.00    +0.174 HD
ATOM      6  H   UNL     1       5.355  -2.081  -6.051  0.00  0.00    +0.156 HD
ENDROOT
BRANCH   4   7
ATOM      7  C   UNL     1       6.996  -2.364  -7.264  0.00  0.00    +0.043 A 
ATOM      8  C   UNL     1       8.297  -1.940  -7.430  0.00  0.00    +0.024 A 
ATOM      9  C   UNL     1       8.976  -2.175  -8.622  0.00  0.00    +0.002 A 
ATOM     10  C   UNL     1       8.377  -2.829  -9.655  0.00  0.00    +0.008 A 
ATOM     11  C   UNL     1       7.051  -3.278  -9.527  0.00  0.00    -0.016 A 
ATOM     12  C   UNL     1       6.352  -3.049  -8.316  0.00  0.00    +0.003 A 
ATOM     13  C   UNL     1       5.030  -3.504  -8.188  0.00  0.00    +0.010 A 
ATOM     14  C   UNL     1       4.439  -4.161  -9.223  0.00  0.00    +0.001 A 
ATOM     15  C   UNL     1       5.129  -4.392 -10.412  0.00  0.00    +0.001 A 
ATOM     16  C   UNL     1       6.407  -3.956 -10.576  0.00  0.00    +0.008 A 
ENDBRANCH   4   7
BRANCH   1  19
ATOM     17  C   UNL     1       4.353  -1.084  -2.658  0.00  0.00    +0.260 C 
ATOM     18  O   UNL     1       4.982  -0.928  -1.630  0.00  0.00    -0.269 OA
ATOM     19  N   UNL     1       4.993  -1.428  -3.794  0.00  0.00    -0.229 N 
ATOM     20  H   UNL     1       4.491  -1.552  -4.614  0.00  0.00    +0.173 HD
BRANCH  17  25
ATOM     21  C   UNL     1       0.853  -0.366  -1.500  0.00  0.00    +0.089 A 
ATOM     22  C   UNL     1       0.140  -0.544  -2.673  0.00  0.00    +0.027 A 
ATOM     23  C   UNL     1       0.793  -0.897  -3.840  0.00  0.00    +0.003 A 
ATOM     24  C   UNL     1       2.162  -1.074  -3.842  0.00  0.00    +0.013 A 
ATOM     25  C   UNL     1       2.887  -0.896  -2.663  0.00  0.00    +0.040 A 
ATOM     26  C   UNL     1       2.222  -0.534  -1.490  0.00  0.00    +0.040 A 
BRANCH  21  28
ATOM     27  C   UNL     1       0.000   1.897  -0.022  0.00  0.00    +0.200 C 
ATOM     28  S   UNL     1       0.012   0.083  -0.019  0.00  0.00    -0.006 S 
ATOM     29  O   UNL     1       0.840  -0.399   1.030  0.00  0.00    -0.170 OA
ATOM     30  O   UNL     1      -1.308  -0.415  -0.187  0.00  0.00    -0.170 OA
ENDBRANCH  21  28
ENDBRANCH  17  25
ENDBRANCH   1  19
TORSDOF 4
