REMARK  Name = ZINC27396275
REMARK  9 active torsions:
REMARK  status: ('A' for Active; 'I' for Inactive)
REMARK    1  A    between atoms: C_1  and  C_2
REMARK    2  A    between atoms: C_8  and  N_10
REMARK    3  A    between atoms: N_10  and  C_11
REMARK    4  A    between atoms: C_11  and  C_12
REMARK    5  A    between atoms: C_14  and  O_24
REMARK    6  A    between atoms: C_15  and  O_19
REMARK    7  A    between atoms: O_19  and  C_20
REMARK    8  A    between atoms: C_20  and  C_21
REMARK    9  A    between atoms: O_24  and  C_25
REMARK                            x       y       z     vdW  Elec       q    Type
REMARK                         _______ _______ _______ _____ _____    ______ ____
ROOT
ATOM      1  C   UNL     1       1.127  -2.026   0.744  0.00  0.00    -0.059 A 
ATOM      2  C   UNL     1       0.448  -2.730   1.721  0.00  0.00    +0.051 A 
ATOM      3  C   UNL     1       0.430  -4.115   1.691  0.00  0.00    +0.163 A 
ATOM      4  C   UNL     1       1.107  -4.795   0.683  0.00  0.00    +0.181 A 
ATOM      5  C   UNL     1       1.791  -4.084  -0.290  0.00  0.00    +0.086 A 
ATOM      6  C   UNL     1       1.799  -2.701  -0.258  0.00  0.00    +0.025 A 
ATOM      7 CL   UNL     1       2.635  -4.928  -1.550  0.00  0.00    -0.080 Cl
ENDROOT
BRANCH   3   8
ATOM      8  O   UNL     1      -0.242  -4.809   2.648  0.00  0.00    -0.491 OA
ATOM      9  C   UNL     1      -0.914  -4.045   3.652  0.00  0.00    +0.277 C 
ENDBRANCH   3   8
BRANCH   1  10
ATOM     10  C   UNL     1       1.140  -0.519   0.775  0.00  0.00    -0.046 C 
BRANCH  10  11
ATOM     11  N   UNL     1       0.002  -0.004   0.002  0.00  0.00    +0.384 N 
ATOM     12  H   UNL     1      -0.929  -0.386   0.447  0.00  0.00    -0.085 HD
ATOM     13  H   UNL     1       0.088  -0.364  -1.034  0.00  0.00    -0.085 HD
BRANCH  11  20
ATOM     14  C   UNL     1      -2.193   1.442  -1.219  0.00  0.00    +0.006 C 
ATOM     15  C   UNL     1      -0.758   1.972  -1.229  0.00  0.00    -0.028 C 
ATOM     16  C   UNL     1      -0.779   3.501  -1.221  0.00  0.00    +0.002 C 
ATOM     17  C   UNL     1      -1.495   3.995   0.038  0.00  0.00    +0.000 C 
ATOM     18  C   UNL     1      -0.755   3.488   1.277  0.00  0.00    -0.002 C 
ATOM     19  C   UNL     1      -0.734   1.958   1.269  0.00  0.00    -0.015 C 
ATOM     20  C   UNL     1      -0.018   1.465   0.010  0.00  0.00    -0.069 C 
ENDBRANCH  11  20
ENDBRANCH  10  11
ENDBRANCH   1  10
BRANCH   4  21
ATOM     21  O   UNL     1       1.097  -6.155   0.653  0.00  0.00    -0.478 OA
BRANCH  21  22
ATOM     22  C   UNL     1       2.142  -6.828   1.359  0.00  0.00    +0.324 C 
BRANCH  22  23
ATOM     23  C   UNL     1       1.968  -8.318   1.214  0.00  0.00    +0.248 C 
ATOM     24  O   UNL     1       1.041  -8.760   0.570  0.00  0.00    -0.272 OA
ATOM     25  N   UNL     1       2.844  -9.158   1.800  0.00  0.00    -0.327 N 
ATOM     26  H   UNL     1       2.717 -10.246   1.694  0.00  0.00    +0.145 HD
ATOM     27  H   UNL     1       3.685  -8.757   2.384  0.00  0.00    +0.145 HD
ENDBRANCH  22  23
ENDBRANCH  21  22
ENDBRANCH   4  21
TORSDOF 7
