REMARK  Name = ZINC37626889
REMARK  8 active torsions:
REMARK  status: ('A' for Active; 'I' for Inactive)
REMARK    1  A    between atoms: C_3  and  N_15
REMARK    2  A    between atoms: C_6  and  O_9
REMARK    3  A    between atoms: O_9  and  C_10
REMARK    4  A    between atoms: C_10  and  C_11
REMARK    5  A    between atoms: C_16  and  C_18
REMARK    6  A    between atoms: C_18  and  C_20
REMARK    7  A    between atoms: C_18  and  N_24
REMARK    8  A    between atoms: C_20  and  C_21
REMARK                            x       y       z     vdW  Elec       q    Type
REMARK                         _______ _______ _______ _____ _____    ______ ____
ROOT
ATOM      1  N   UNL     1       1.424   2.047  -2.446  0.00  0.00    -0.314 N 
ATOM      2  C   UNL     1       1.689   3.276  -2.933  0.00  0.00    +0.199 C 
ATOM      3  O   UNL     1       2.513   3.979  -2.390  0.00  0.00    -0.278 OA
ATOM      4  H   UNL     1       0.765   1.484  -2.881  0.00  0.00    +0.149 HD
ENDROOT
BRANCH   1   7
ATOM      5  C   UNL     1      -0.019   1.526   0.010  0.00  0.00    +0.004 C 
ATOM      6  C   UNL     1       1.417   2.055  -0.000  0.00  0.00    +0.022 C 
ATOM      7  C   UNL     1       2.133   1.562  -1.259  0.00  0.00    +0.075 C 
ATOM      8  C   UNL     1       2.154   0.032  -1.268  0.00  0.00    +0.054 C 
ATOM      9  C   UNL     1       0.718  -0.497  -1.257  0.00  0.00    +0.120 C 
ATOM     10  C   UNL     1       0.002  -0.004   0.002  0.00  0.00    +0.032 C 
BRANCH   9  11
ATOM     11  O   UNL     1       0.738  -1.926  -1.265  0.00  0.00    -0.368 OA
BRANCH  11  12
ATOM     12  C   UNL     1      -0.391  -2.519  -1.910  0.00  0.00    +0.273 C 
BRANCH  12  13
ATOM     13  C   UNL     1      -0.265  -4.043  -1.859  0.00  0.00    +0.413 C 
ATOM     14  F   UNL     1      -0.217  -4.463  -0.525  0.00  0.00    -0.168 F 
ATOM     15  F   UNL     1      -1.370  -4.624  -2.490  0.00  0.00    -0.168 F 
ATOM     16  F   UNL     1       0.906  -4.437  -2.514  0.00  0.00    -0.168 F 
ENDBRANCH  12  13
ENDBRANCH  11  12
ENDBRANCH   9  11
ENDBRANCH   1   7
BRANCH   2  17
ATOM     17  C   UNL     1       0.960   3.775  -4.154  0.00  0.00    +0.021 C 
BRANCH  17  18
ATOM     18  N   UNL     1       1.720   4.875  -4.763  0.00  0.00    +0.386 N 
ATOM     19  H   UNL     1       2.635   4.545  -5.029  0.00  0.00    -0.089 HD
ATOM     20  H   UNL     1       1.232   5.209  -5.580  0.00  0.00    -0.089 HD
ATOM     21  H   UNL     1       1.814   5.627  -4.096  0.00  0.00    -0.089 HD
ENDBRANCH  17  18
BRANCH  17  22
ATOM     22  C   UNL     1      -0.428   4.276  -3.750  0.00  0.00    +0.088 C 
BRANCH  22  23
ATOM     23  C   UNL     1      -1.202   4.660  -4.985  0.00  0.00    +0.209 C 
ATOM     24  O   UNL     1      -0.694   4.545  -6.080  0.00  0.00    -0.276 OA
ATOM     25  N   UNL     1      -2.460   5.133  -4.872  0.00  0.00    -0.329 N 
ATOM     26  H   UNL     1      -2.866   5.225  -3.996  0.00  0.00    +0.145 HD
ATOM     27  H   UNL     1      -2.958   5.380  -5.667  0.00  0.00    +0.145 HD
ENDBRANCH  22  23
ENDBRANCH  17  22
ENDBRANCH   2  17
TORSDOF 8
