REMARK  Name = ZINC09348055
REMARK  4 active torsions:
REMARK  status: ('A' for Active; 'I' for Inactive)
REMARK    1  A    between atoms: C_11  and  C_15
REMARK    2  A    between atoms: C_16  and  O_30
REMARK    3  A    between atoms: C_18  and  O_29
REMARK    4  A    between atoms: N_19  and  C_22
REMARK                            x       y       z     vdW  Elec       q    Type
REMARK                         _______ _______ _______ _____ _____    ______ ____
ROOT
ATOM      1  C   UNL     1       5.087  -2.693   0.888  0.00  0.00    +0.071 A 
ATOM      2  C   UNL     1       6.173  -3.441   0.468  0.00  0.00    +0.224 A 
ATOM      3  N   UNL     1       6.979  -4.008   1.372  0.00  0.00    -0.161 NA
ATOM      4  C   UNL     1       6.761  -3.870   2.660  0.00  0.00    +0.306 A 
ATOM      5  N   UNL     1       5.708  -3.146   3.127  0.00  0.00    -0.231 N 
ATOM      6  C   UNL     1       4.863  -2.546   2.263  0.00  0.00    +0.267 A 
ATOM      7  O   UNL     1       3.918  -1.890   2.671  0.00  0.00    -0.267 OA
ENDROOT
BRANCH   1  18
ATOM      8  C   UNL     1       3.778   4.013   0.328  0.00  0.00    +0.001 A 
ATOM      9  C   UNL     1       5.161   3.932   0.424  0.00  0.00    +0.002 A 
ATOM     10  C   UNL     1       5.798   2.712   0.376  0.00  0.00    +0.026 A 
ATOM     11  C   UNL     1       5.052   1.547   0.230  0.00  0.00    +0.047 A 
ATOM     12  C   UNL     1       3.649   1.633   0.133  0.00  0.00    +0.003 A 
ATOM     13  C   UNL     1       3.026   2.882   0.184  0.00  0.00    +0.010 A 
ATOM     14  C   UNL     1       3.176   0.262  -0.011  0.00  0.00    -0.022 A 
ATOM     15  C   UNL     1       4.259  -0.542   0.008  0.00  0.00    +0.011 A 
ATOM     16  N   UNL     1       5.386   0.212   0.151  0.00  0.00    -0.359 N 
ATOM     17  H   UNL     1       6.290  -0.139   0.191  0.00  0.00    +0.166 HD
ATOM     18  C   UNL     1       4.167  -2.046  -0.114  0.00  0.00    +0.018 C 
ATOM     19  C   UNL     1       1.826  -1.686  -0.665  0.00  0.00    -0.076 C 
ATOM     20  C   UNL     1       1.762  -0.238  -0.160  0.00  0.00    +0.018 C 
ATOM     21  N   UNL     1       2.773  -2.460   0.164  0.00  0.00    +0.388 N 
ATOM     22  H   UNL     1       2.564  -2.296   1.156  0.00  0.00    -0.084 HD
ATOM     23  H   UNL     1       2.669  -3.459  -0.047  0.00  0.00    -0.084 HD
ENDBRANCH   1  18
BRANCH   5  24
ATOM     24  C   UNL     1       5.503  -3.018   4.508  0.00  0.00    +0.056 A 
ATOM     25  C   UNL     1       6.085  -1.967   5.203  0.00  0.00    +0.026 A 
ATOM     26  C   UNL     1       5.882  -1.843   6.564  0.00  0.00    +0.003 A 
ATOM     27  C   UNL     1       5.100  -2.766   7.234  0.00  0.00    +0.020 A 
ATOM     28  C   UNL     1       4.518  -3.815   6.544  0.00  0.00    +0.043 A 
ATOM     29  C   UNL     1       4.714  -3.940   5.181  0.00  0.00    +0.046 A 
ATOM     30 CL   UNL     1       3.535  -4.970   7.389  0.00  0.00    -0.083 Cl
ENDBRANCH   5  24
BRANCH   4  31
ATOM     31  O   UNL     1       7.599  -4.458   3.539  0.00  0.00    -0.479 OA
ATOM     32  H   UNL     1       8.336  -4.964   3.171  0.00  0.00    +0.295 HD
ENDBRANCH   4  31
BRANCH   2  33
ATOM     33  O   UNL     1       6.419  -3.598  -0.854  0.00  0.00    -0.492 OA
ATOM     34  H   UNL     1       7.199  -4.136  -1.048  0.00  0.00    +0.294 HD
ENDBRANCH   2  33
TORSDOF 4
