REMARK  Name = ZINC38159573
REMARK  13 active torsions:
REMARK  status: ('A' for Active; 'I' for Inactive)
REMARK    1  A    between atoms: C_1  and  C_2
REMARK    2  A    between atoms: C_2  and  C_4
REMARK    3  A    between atoms: C_2  and  N_16
REMARK    4  A    between atoms: N_6  and  C_7
REMARK    5  A    between atoms: C_10  and  C_13
REMARK    6  A    between atoms: C_13  and  C_14
REMARK    7  A    between atoms: C_13  and  C_15
REMARK    8  A    between atoms: C_17  and  C_19
REMARK    9  A    between atoms: C_25  and  C_27
REMARK   10  A    between atoms: C_27  and  C_29
REMARK   11  A    between atoms: C_27  and  N_32
REMARK   12  A    between atoms: C_29  and  C_30
REMARK   13  A    between atoms: C_29  and  C_31
REMARK                            x       y       z     vdW  Elec       q    Type
REMARK                         _______ _______ _______ _____ _____    ______ ____
ROOT
ATOM      1  N   UNL     1       0.709  -0.491   1.189  0.00  0.00    -0.304 N 
ATOM      2  C   UNL     1       0.049  -0.642   2.354  0.00  0.00    +0.217 C 
ATOM      3  O   UNL     1      -1.133  -0.378   2.421  0.00  0.00    -0.275 OA
ATOM      4  H   UNL     1       1.654  -0.702   1.136  0.00  0.00    +0.149 HD
ENDROOT
BRANCH   2   5
ATOM      5  C   UNL     1       0.780  -1.138   3.575  0.00  0.00    +0.078 C 
ATOM      6  C   UNL     1       1.358  -2.527   3.295  0.00  0.00    +0.032 C 
ATOM      7  C   UNL     1       2.130  -3.013   4.525  0.00  0.00    +0.108 C 
ATOM      8  N   UNL     1       1.241  -2.954   5.694  0.00  0.00    -0.303 N 
ATOM      9  C   UNL     1       0.561  -1.689   6.002  0.00  0.00    +0.108 C 
ATOM     10  C   UNL     1      -0.193  -1.218   4.755  0.00  0.00    +0.032 C 
ATOM     11  C   UNL     1       1.053  -4.041   6.468  0.00  0.00    +0.201 C 
ATOM     12  O   UNL     1       1.619  -5.080   6.203  0.00  0.00    -0.277 OA
BRANCH  11  13
ATOM     13  C   UNL     1       0.138  -3.966   7.663  0.00  0.00    +0.016 C 
BRANCH  13  14
ATOM     14  N   UNL     1      -0.279  -5.321   8.047  0.00  0.00    +0.386 N 
ATOM     15  H   UNL     1       0.535  -5.870   8.281  0.00  0.00    -0.089 HD
ATOM     16  H   UNL     1      -0.892  -5.270   8.848  0.00  0.00    -0.089 HD
ATOM     17  H   UNL     1      -0.767  -5.754   7.277  0.00  0.00    -0.089 HD
ENDBRANCH  13  14
BRANCH  13  18
ATOM     18  C   UNL     1       0.877  -3.309   8.831  0.00  0.00    -0.023 C 
ATOM     19  C   UNL     1      -0.051  -3.233  10.044  0.00  0.00    +0.006 C 
ATOM     20  C   UNL     1       2.112  -4.142   9.185  0.00  0.00    +0.006 C 
ENDBRANCH  13  18
ENDBRANCH  11  13
ENDBRANCH   2   5
BRANCH   1  22
ATOM     21  C   UNL     1      -0.033   1.520   0.013  0.00  0.00    +0.038 C 
ATOM     22  C   UNL     1      -0.002  -0.009   0.002  0.00  0.00    +0.156 C 
BRANCH  22  23
ATOM     23  C   UNL     1       0.708  -0.488  -1.238  0.00  0.00    +0.237 C 
ATOM     24  O   UNL     1       1.710  -1.166  -1.140  0.00  0.00    -0.273 OA
ATOM     25  N   UNL     1       0.231  -0.164  -2.456  0.00  0.00    -0.284 N 
ATOM     26  H   UNL     1      -0.606   0.320  -2.535  0.00  0.00    +0.155 HD
BRANCH  25  27
ATOM     27  C   UNL     1       0.942  -0.526  -3.605  0.00  0.00    +0.033 A 
ATOM     28  C   UNL     1       0.954   0.315  -4.710  0.00  0.00    +0.023 A 
ATOM     29  C   UNL     1       1.657  -0.045  -5.843  0.00  0.00    +0.006 A 
ATOM     30  C   UNL     1       2.349  -1.242  -5.878  0.00  0.00    -0.045 A 
ATOM     31  C   UNL     1       2.339  -2.082  -4.780  0.00  0.00    +0.006 A 
ATOM     32  C   UNL     1       1.643  -1.725  -3.641  0.00  0.00    +0.023 A 
BRANCH  30  33
ATOM     33  C   UNL     1       3.115  -1.631  -7.116  0.00  0.00    +0.013 C 
ATOM     34  C   UNL     1       4.595  -1.802  -6.767  0.00  0.00    +0.012 C 
ATOM     35  C   UNL     1       2.564  -2.950  -7.662  0.00  0.00    +0.012 C 
ENDBRANCH  30  33
ENDBRANCH  25  27
ENDBRANCH  22  23
ENDBRANCH   1  22
TORSDOF 8
