REMARK  Name = ZINC01932404
REMARK  16 active torsions:
REMARK  status: ('A' for Active; 'I' for Inactive)
REMARK    1  A    between atoms: C_1  and  C_2
REMARK    2  A    between atoms: C_4  and  C_34
REMARK    3  A    between atoms: C_6  and  O_8
REMARK    4  A    between atoms: O_8  and  C_9
REMARK    5  A    between atoms: C_15  and  O_33
REMARK    6  A    between atoms: C_16  and  C_24
REMARK    7  A    between atoms: C_19  and  C_20
REMARK    8  A    between atoms: C_24  and  N_67
REMARK    9  A    between atoms: C_25  and  C_26
REMARK   10  A    between atoms: C_25  and  N_67
REMARK   11  A    between atoms: C_26  and  C_27
REMARK   12  A    between atoms: C_26  and  C_28
REMARK   13  A    between atoms: C_29  and  C_30
REMARK   14  A    between atoms: C_29  and  N_67
REMARK   15  A    between atoms: C_30  and  C_31
REMARK   16  A    between atoms: C_30  and  C_32
REMARK                            x       y       z     vdW  Elec       q    Type
REMARK                         _______ _______ _______ _____ _____    ______ ____
ROOT
ATOM      1  C   UNL     1      -4.681   2.407  -0.593  0.00  0.00    +0.222 A 
ATOM      2  C   UNL     1      -3.680   3.382  -0.870  0.00  0.00    +0.235 A 
ATOM      3  O   UNL     1      -3.974   4.534  -1.141  0.00  0.00    -0.283 OA
ATOM      4  C   UNL     1      -2.277   2.936  -0.833  0.00  0.00    +0.068 A 
ATOM      5  C   UNL     1      -1.228   3.814  -1.107  0.00  0.00    +0.019 A 
ATOM      6  C   UNL     1       0.061   3.365  -1.063  0.00  0.00    +0.046 A 
ATOM      7  C   UNL     1       0.333   2.035  -0.746  0.00  0.00    +0.122 A 
ATOM      8  C   UNL     1      -0.697   1.151  -0.472  0.00  0.00    +0.020 A 
ATOM      9  C   UNL     1      -2.013   1.591  -0.518  0.00  0.00    +0.144 A 
ATOM     10  O   UNL     1      -3.035   0.751  -0.260  0.00  0.00    -0.447 OA
ATOM     11  C   UNL     1      -4.314   1.144  -0.296  0.00  0.00    +0.254 A 
ENDROOT
BRANCH  11  12
ATOM     12  C   UNL     1      -5.390   0.132   0.006  0.00  0.00    +0.454 C 
ATOM     13  F   UNL     1      -5.784  -0.498  -1.179  0.00  0.00    -0.163 F 
ATOM     14  F   UNL     1      -4.893  -0.823   0.899  0.00  0.00    -0.163 F 
ATOM     15  F   UNL     1      -6.490   0.779   0.579  0.00  0.00    -0.163 F 
ENDBRANCH  11  12
BRANCH   7  16
ATOM     16  O   UNL     1       1.619   1.602  -0.707  0.00  0.00    -0.506 OA
ATOM     17  H   UNL     1       1.946   1.264  -1.551  0.00  0.00    +0.292 HD
ENDBRANCH   7  16
BRANCH   1  18
ATOM     18  O   UNL     1      -5.998   2.751  -0.615  0.00  0.00    -0.448 OA
BRANCH  18  24
ATOM     19  C   UNL     1      -5.361   4.557   3.874  0.00  0.00    +0.044 C 
ATOM     20  C   UNL     1      -6.249   4.218   2.704  0.00  0.00    -0.047 A 
ATOM     21  C   UNL     1      -7.603   4.492   2.763  0.00  0.00    +0.007 A 
ATOM     22  C   UNL     1      -8.420   4.184   1.691  0.00  0.00    -0.047 A 
ATOM     23  C   UNL     1      -7.885   3.601   0.558  0.00  0.00    +0.049 A 
ATOM     24  C   UNL     1      -6.526   3.325   0.497  0.00  0.00    +0.129 A 
ATOM     25  C   UNL     1      -5.710   3.630   1.577  0.00  0.00    +0.049 A 
ATOM     26  C   UNL     1      -9.895   4.484   1.758  0.00  0.00    +0.044 C 
ENDBRANCH  18  24
ENDBRANCH   1  18
BRANCH   8  27
ATOM     27  C   UNL     1      -0.391  -0.285  -0.131  0.00  0.00    -0.036 C 
BRANCH  27  28
ATOM     28  N   UNL     1       0.206  -0.333   1.220  0.00  0.00    +0.383 N 
ATOM     29  H   UNL     1       0.861   0.450   1.324  0.00  0.00    -0.081 HD
BRANCH  28  30
ATOM     30  C   UNL     1      -0.853  -0.212   2.245  0.00  0.00    -0.075 C 
BRANCH  30  31
ATOM     31  C   UNL     1      -1.155   1.272   2.461  0.00  0.00    -0.034 C 
ATOM     32  C   UNL     1      -2.310   1.418   3.454  0.00  0.00    +0.005 C 
ATOM     33  C   UNL     1       0.087   1.970   3.018  0.00  0.00    +0.005 C 
ENDBRANCH  30  31
ENDBRANCH  28  30
BRANCH  28  34
ATOM     34  C   UNL     1       0.942  -1.602   1.402  0.00  0.00    -0.075 C 
BRANCH  34  35
ATOM     35  C   UNL     1       2.288  -1.495   0.683  0.00  0.00    -0.034 C 
ATOM     36  C   UNL     1       3.135  -0.406   1.345  0.00  0.00    +0.005 C 
ATOM     37  C   UNL     1       3.021  -2.835   0.770  0.00  0.00    +0.005 C 
ENDBRANCH  34  35
ENDBRANCH  28  34
ENDBRANCH  27  28
ENDBRANCH   8  27
TORSDOF 10
