REMARK  Name = ZINC65503271
REMARK  4 active torsions:
REMARK  status: ('A' for Active; 'I' for Inactive)
REMARK    1  A    between atoms: C_1  and  C_2
REMARK    2  A    between atoms: N_5  and  C_7
REMARK    3  A    between atoms: C_17  and  C_19
REMARK    4  A    between atoms: C_22  and  N_25
REMARK                            x       y       z     vdW  Elec       q    Type
REMARK                         _______ _______ _______ _____ _____    ______ ____
ROOT
ATOM      1  C   UNL     1      -0.018   1.503   0.010  0.00  0.00    +0.068 C 
ATOM      2  C   UNL     1       0.002  -0.004   0.002  0.00  0.00    +0.065 A 
ATOM      3  C   UNL     1       0.008  -0.812  -1.125  0.00  0.00    +0.019 A 
ATOM      4  C   UNL     1       0.024  -2.117  -0.710  0.00  0.00    +0.127 A 
ATOM      5  N   UNL     1       0.036  -2.117   0.631  0.00  0.00    -0.247 N 
ATOM      6  N   UNL     1       0.023  -0.780   1.060  0.00  0.00    -0.174 NA
ATOM      7  N   UNL     1       0.013  -3.179  -1.614  0.00  0.00    -0.270 N 
ATOM      8  C   UNL     1      -0.218  -2.902  -2.915  0.00  0.00    +0.219 C 
ATOM      9  O   UNL     1      -0.046  -3.775  -3.740  0.00  0.00    -0.275 OA
ATOM     10  C   UNL     1      -0.680  -1.548  -3.374  0.00  0.00    +0.104 C 
ATOM     11  C   UNL     1       0.005  -0.429  -2.584  0.00  0.00    +0.036 C 
ATOM     12  H   UNL     1       0.167  -4.089  -1.317  0.00  0.00    +0.156 HD
ENDROOT
BRANCH   5  13
ATOM     13  C   UNL     1       0.065  -3.301   1.494  0.00  0.00    +0.109 C 
ATOM     14  C   UNL     1      -1.176  -3.309   2.389  0.00  0.00    +0.027 C 
ATOM     15  C   UNL     1      -1.147  -4.545   3.291  0.00  0.00    +0.002 C 
ATOM     16  C   UNL     1       0.111  -4.511   4.162  0.00  0.00    +0.000 C 
ATOM     17  C   UNL     1       1.351  -4.503   3.267  0.00  0.00    +0.002 C 
ATOM     18  C   UNL     1       1.322  -3.267   2.365  0.00  0.00    +0.027 C 
ENDBRANCH   5  13
BRANCH  11  19
ATOM     19  C   UNL     1       1.444  -0.258  -3.075  0.00  0.00    -0.003 C 
ATOM     20  C   UNL     1       2.132   0.841  -2.263  0.00  0.00    +0.002 C 
ATOM     21  C   UNL     1       3.571   1.012  -2.754  0.00  0.00    -0.016 C 
ATOM     22  C   UNL     1       3.562   1.401  -4.234  0.00  0.00    -0.075 C 
ATOM     23  C   UNL     1       2.874   0.301  -5.045  0.00  0.00    -0.016 C 
ATOM     24  C   UNL     1       1.435   0.130  -4.554  0.00  0.00    +0.002 C 
BRANCH  22  25
ATOM     25  N   UNL     1       4.944   1.565  -4.706  0.00  0.00    +0.380 N 
ATOM     26  H   UNL     1       5.445   0.697  -4.588  0.00  0.00    -0.090 HD
ATOM     27  H   UNL     1       4.938   1.821  -5.682  0.00  0.00    -0.090 HD
ATOM     28  H   UNL     1       5.398   2.290  -4.170  0.00  0.00    -0.090 HD
ENDBRANCH  22  25
ENDBRANCH  11  19
TORSDOF 3
