REMARK  Name = ZINC40802086
REMARK  4 active torsions:
REMARK  status: ('A' for Active; 'I' for Inactive)
REMARK    1  A    between atoms: C_3  and  N_8
REMARK    2  A    between atoms: C_10  and  N_23
REMARK    3  A    between atoms: C_11  and  N_15
REMARK    4  A    between atoms: N_15  and  C_16
REMARK                            x       y       z     vdW  Elec       q    Type
REMARK                         _______ _______ _______ _____ _____    ______ ____
ROOT
ATOM      1  N   UNL     1       3.558   2.006  -0.628  0.00  0.00    -0.295 N 
ATOM      2  C   UNL     1       3.641   3.390  -0.734  0.00  0.00    +0.149 A 
ATOM      3  C   UNL     1       4.857   4.045  -0.531  0.00  0.00    +0.104 A 
ATOM      4  C   UNL     1       4.885   5.436  -0.649  0.00  0.00    +0.126 A 
ATOM      5  N   UNL     1       3.759   6.080  -0.949  0.00  0.00    -0.333 N 
ATOM      6  C   UNL     1       2.631   5.423  -1.132  0.00  0.00    +0.200 A 
ATOM      7  N   UNL     1       2.563   4.111  -1.035  0.00  0.00    -0.221 NA
ATOM      8  H   UNL     1       4.362   1.481  -0.495  0.00  0.00    +0.154 HD
ATOM      9  H   UNL     1       3.768   7.046  -1.032  0.00  0.00    +0.168 HD
ENDROOT
BRANCH   1  12
ATOM     10  C   UNL     1      -0.069   1.418  -0.610  0.00  0.00    +0.022 A 
ATOM     11  C   UNL     1       1.139   2.091  -0.515  0.00  0.00    +0.028 A 
ATOM     12  C   UNL     1       2.314   1.372  -0.714  0.00  0.00    +0.070 A 
ATOM     13  C   UNL     1       2.233   0.013  -1.000  0.00  0.00    +0.150 A 
ATOM     14  N   UNL     1       1.062  -0.587  -1.082  0.00  0.00    -0.242 NA
ATOM     15  C   UNL     1      -0.069   0.067  -0.898  0.00  0.00    +0.112 A 
ATOM     16 CL   UNL     1       3.688  -0.900  -1.252  0.00  0.00    -0.060 Cl
ENDBRANCH   1  12
BRANCH   3  17
ATOM     17  N   UNL     1       6.020   3.325  -0.217  0.00  0.00    -0.353 N 
ATOM     18  H   UNL     1       5.986   2.358  -0.138  0.00  0.00    +0.143 HD
ATOM     19  H   UNL     1       6.858   3.793  -0.079  0.00  0.00    +0.143 HD
ENDBRANCH   3  17
BRANCH   4  20
ATOM     20  N   UNL     1       6.070   6.137  -0.457  0.00  0.00    -0.297 N 
ATOM     21  H   UNL     1       6.903   5.657  -0.330  0.00  0.00    +0.154 HD
BRANCH  20  22
ATOM     22  C   UNL     1       6.061   7.535  -0.447  0.00  0.00    +0.070 A 
ATOM     23  C   UNL     1       6.446   8.253  -1.576  0.00  0.00    +0.028 A 
ATOM     24  C   UNL     1       6.420   9.637  -1.517  0.00  0.00    +0.022 A 
ATOM     25  C   UNL     1       6.015  10.256  -0.349  0.00  0.00    +0.112 A 
ATOM     26  N   UNL     1       5.656   9.549   0.704  0.00  0.00    -0.242 NA
ATOM     27  C   UNL     1       5.661   8.230   0.690  0.00  0.00    +0.150 A 
ATOM     28 CL   UNL     1       5.170   7.353   2.105  0.00  0.00    -0.060 Cl
ENDBRANCH  20  22
ENDBRANCH   4  20
TORSDOF 4
