REMARK  Name = ZINC48277172
REMARK  13 active torsions:
REMARK  status: ('A' for Active; 'I' for Inactive)
REMARK    1  A    between atoms: C_1  and  C_2
REMARK    2  A    between atoms: N_5  and  C_11
REMARK    3  A    between atoms: C_7  and  C_10
REMARK    4  A    between atoms: C_16  and  N_17
REMARK    5  A    between atoms: N_20  and  C_21
REMARK    6  A    between atoms: C_21  and  C_22
REMARK    7  A    between atoms: C_22  and  C_24
REMARK    8  A    between atoms: C_22  and  C_28
REMARK    9  A    between atoms: C_24  and  N_25
REMARK   10  A    between atoms: N_25  and  C_26
REMARK   11  A    between atoms: N_25  and  C_27
REMARK   12  A    between atoms: C_28  and  C_30
REMARK   13  A    between atoms: C_28  and  O_36
REMARK                            x       y       z     vdW  Elec       q    Type
REMARK                         _______ _______ _______ _____ _____    ______ ____
ROOT
ATOM      1  N   UNL     1      -4.092  -3.139   0.846  0.00  0.00    -0.268 N 
ATOM      2  C   UNL     1      -5.421  -3.254   1.039  0.00  0.00    +0.304 C 
ATOM      3  O   UNL     1      -6.090  -3.929   0.280  0.00  0.00    -0.253 OA
ATOM      4  N   UNL     1      -6.008  -2.622   2.074  0.00  0.00    -0.299 N 
ATOM      5  H   UNL     1      -3.548  -2.660   1.490  0.00  0.00    +0.156 HD
ATOM      6  H   UNL     1      -5.475  -2.084   2.680  0.00  0.00    +0.150 HD
ENDROOT
BRANCH   1  12
ATOM      7  C   UNL     1      -2.354  -3.137  -0.843  0.00  0.00    +0.051 A 
ATOM      8  C   UNL     1      -1.766  -3.712  -1.960  0.00  0.00    +0.025 A 
ATOM      9  C   UNL     1      -2.317  -4.848  -2.522  0.00  0.00    +0.002 A 
ATOM     10  C   UNL     1      -3.453  -5.415  -1.975  0.00  0.00    +0.002 A 
ATOM     11  C   UNL     1      -4.045  -4.848  -0.862  0.00  0.00    +0.025 A 
ATOM     12  C   UNL     1      -3.497  -3.712  -0.287  0.00  0.00    +0.056 A 
BRANCH   7  16
ATOM     13  C   UNL     1      -1.365   1.630  -1.295  0.00  0.00    +0.039 C 
ATOM     14  C   UNL     1      -0.969   0.176  -1.027  0.00  0.00    +0.133 C 
ATOM     15  C   UNL     1      -2.222  -0.645  -0.706  0.00  0.00    +0.136 C 
ATOM     16  N   UNL     1      -1.799  -1.986  -0.272  0.00  0.00    -0.324 N 
ATOM     17  C   UNL     1      -0.776  -2.081   0.781  0.00  0.00    +0.136 C 
ATOM     18  C   UNL     1       0.407  -1.189   0.388  0.00  0.00    +0.133 C 
ATOM     19  O   UNL     1      -0.072   0.123   0.085  0.00  0.00    -0.371 OA
ATOM     20  C   UNL     1       1.401  -1.117   1.549  0.00  0.00    +0.039 C 
ENDBRANCH   7  16
ENDBRANCH   1  12
BRANCH   4  21
ATOM     21  C   UNL     1      -7.453  -2.747   2.285  0.00  0.00    +0.110 C 
BRANCH  21  22
ATOM     22  C   UNL     1      -7.891  -1.791   3.396  0.00  0.00    +0.023 C 
BRANCH  22  23
ATOM     23  C   UNL     1      -7.793  -0.348   2.896  0.00  0.00    -0.072 C 
BRANCH  23  24
ATOM     24  N   UNL     1      -6.384  -0.010   2.650  0.00  0.00    +0.376 N 
ATOM     25  C   UNL     1      -6.295   1.354   2.113  0.00  0.00    -0.097 C 
ATOM     26  C   UNL     1      -5.634  -0.091   3.910  0.00  0.00    -0.097 C 
ATOM     27  H   UNL     1      -5.994  -0.660   1.984  0.00  0.00    -0.083 HD
ENDBRANCH  23  24
ENDBRANCH  22  23
BRANCH  22  28
ATOM     28  C   UNL     1      -9.337  -2.096   3.791  0.00  0.00    +0.147 C 
BRANCH  28  29
ATOM     29  C   UNL     1      -9.724  -1.248   4.975  0.00  0.00    -0.019 A 
ATOM     30  C   UNL     1     -10.254   0.013   4.779  0.00  0.00    +0.006 A 
ATOM     31  C   UNL     1     -10.609   0.790   5.865  0.00  0.00    +0.000 A 
ATOM     32  C   UNL     1     -10.435   0.306   7.148  0.00  0.00    +0.000 A 
ATOM     33  C   UNL     1      -9.906  -0.956   7.345  0.00  0.00    +0.000 A 
ATOM     34  C   UNL     1      -9.555  -1.735   6.258  0.00  0.00    +0.006 A 
ENDBRANCH  28  29
BRANCH  28  35
ATOM     35  O   UNL     1     -10.203  -1.803   2.692  0.00  0.00    -0.387 OA
ATOM     36  H   UNL     1     -10.174  -0.881   2.404  0.00  0.00    +0.210 HD
ENDBRANCH  28  35
ENDBRANCH  22  28
ENDBRANCH  21  22
ENDBRANCH   4  21
TORSDOF 9
