REMARK  Name = ZINC14276536
REMARK  13 active torsions:
REMARK  status: ('A' for Active; 'I' for Inactive)
REMARK    1  A    between atoms: C_1  and  C_2
REMARK    2  A    between atoms: C_2  and  C_3
REMARK    3  A    between atoms: C_2  and  O_4
REMARK    4  A    between atoms: O_4  and  C_5
REMARK    5  A    between atoms: C_8  and  C_11
REMARK    6  A    between atoms: N_13  and  C_14
REMARK    7  A    between atoms: C_14  and  N_16
REMARK    8  A    between atoms: N_16  and  C_17
REMARK    9  A    between atoms: C_18  and  C_31
REMARK   10  A    between atoms: C_23  and  C_27
REMARK   11  A    between atoms: C_27  and  C_28
REMARK   12  A    between atoms: C_27  and  C_29
REMARK   13  A    between atoms: C_27  and  C_30
REMARK                            x       y       z     vdW  Elec       q    Type
REMARK                         _______ _______ _______ _____ _____    ______ ____
ROOT
ATOM      1  N   UNL     1      -0.100   1.005  -1.105  0.00  0.00    -0.291 N 
ATOM      2  H   UNL     1      -0.065   0.046  -0.962  0.00  0.00    +0.154 HD
ENDROOT
BRANCH   1   3
ATOM      3  C   UNL     1       1.068   1.714  -1.332  0.00  0.00    +0.084 A 
ATOM      4  C   UNL     1       2.371   1.236  -1.385  0.00  0.00    +0.068 A 
ATOM      5  C   UNL     1       3.429   2.199  -1.644  0.00  0.00    -0.023 A 
ATOM      6  C   UNL     1       3.019   3.476  -1.798  0.00  0.00    -0.004 A 
ATOM      7  S   UNL     1       1.259   3.413  -1.612  0.00  0.00    -0.077 S 
ATOM      8  C   UNL     1       3.877   4.673  -2.069  0.00  0.00    +0.046 C 
ATOM      9  C   UNL     1       5.262   4.185  -2.518  0.00  0.00    -0.000 C 
ATOM     10  C   UNL     1       5.740   3.099  -1.549  0.00  0.00    +0.009 C 
ATOM     11  C   UNL     1       4.905   1.831  -1.735  0.00  0.00    +0.037 C 
BRANCH   4  12
ATOM     12  C   UNL     1       2.668  -0.186  -1.189  0.00  0.00    +0.244 C 
ATOM     13  O   UNL     1       2.690  -0.939  -2.145  0.00  0.00    -0.270 OA
ATOM     14  N   UNL     1       2.916  -0.658   0.048  0.00  0.00    -0.325 N 
ATOM     15  H   UNL     1       2.898  -0.058   0.809  0.00  0.00    +0.145 HD
ATOM     16  H   UNL     1       3.112  -1.599   0.177  0.00  0.00    +0.145 HD
ENDBRANCH   4  12
BRANCH   9  17
ATOM     17  C   UNL     1       6.248   5.355  -2.504  0.00  0.00    -0.035 C 
ATOM     18  C   UNL     1       6.344   5.924  -1.087  0.00  0.00    +0.011 C 
ATOM     19  C   UNL     1       7.626   4.865  -2.952  0.00  0.00    +0.011 C 
ATOM     20  C   UNL     1       5.759   6.445  -3.460  0.00  0.00    +0.011 C 
ENDBRANCH   9  17
ENDBRANCH   1   3
BRANCH   1  21
ATOM     21  C   UNL     1      -1.285   1.646  -1.090  0.00  0.00    +0.141 C 
ATOM     22  S   UNL     1      -1.347   3.338  -1.344  0.00  0.00    -0.018 S 
BRANCH  21  25
ATOM     23  C   UNL     1      -3.608   1.597  -0.860  0.00  0.00    +0.250 C 
ATOM     24  O   UNL     1      -3.651   2.798  -1.040  0.00  0.00    -0.270 OA
ATOM     25  N   UNL     1      -2.423   0.955  -0.875  0.00  0.00    -0.264 N 
ATOM     26  H   UNL     1      -2.388  -0.004  -0.731  0.00  0.00    +0.157 HD
BRANCH  23  30
ATOM     27  C   UNL     1      -7.190  -0.580  -0.182  0.00  0.00    +0.121 A 
ATOM     28  C   UNL     1      -7.242   0.794  -0.388  0.00  0.00    +0.046 A 
ATOM     29  C   UNL     1      -6.083   1.504  -0.608  0.00  0.00    +0.016 A 
ATOM     30  C   UNL     1      -4.853   0.840  -0.624  0.00  0.00    +0.037 A 
ATOM     31  C   UNL     1      -4.805  -0.542  -0.423  0.00  0.00    +0.016 A 
ATOM     32  C   UNL     1      -5.969  -1.243  -0.198  0.00  0.00    +0.046 A 
BRANCH  27  33
ATOM     33  O   UNL     1      -8.335  -1.275   0.035  0.00  0.00    -0.489 OA
BRANCH  33  35
ATOM     34  C   UNL     1     -10.110  -0.238  -1.237  0.00  0.00    +0.051 C 
ATOM     35  C   UNL     1      -9.541  -0.518   0.156  0.00  0.00    +0.167 C 
ATOM     36  C   UNL     1     -10.562  -1.312   0.974  0.00  0.00    +0.051 C 
ENDBRANCH  33  35
ENDBRANCH  27  33
ENDBRANCH  23  30
ENDBRANCH  21  25
ENDBRANCH   1  21
TORSDOF 8
