REMARK  Name = ZINC20976535
REMARK  8 active torsions:
REMARK  status: ('A' for Active; 'I' for Inactive)
REMARK    1  A    between atoms: C_1  and  N_2
REMARK    2  A    between atoms: N_5  and  C_8
REMARK    3  A    between atoms: C_9  and  N_15
REMARK    4  A    between atoms: N_15  and  C_16
REMARK    5  A    between atoms: C_16  and  N_18
REMARK    6  A    between atoms: C_19  and  C_21
REMARK    7  A    between atoms: C_24  and  N_30
REMARK    8  A    between atoms: C_25  and  N_27
REMARK                            x       y       z     vdW  Elec       q    Type
REMARK                         _______ _______ _______ _____ _____    ______ ____
ROOT
ATOM      1  C   UNL     1      -3.860   7.034   7.055  0.00  0.00    +0.141 C 
ATOM      2  S   UNL     1      -4.279   5.846   8.214  0.00  0.00    -0.018 S 
ENDROOT
BRANCH   1   3
ATOM      3  N   UNL     1      -3.372   6.663   5.854  0.00  0.00    -0.264 N 
ATOM      4  C   UNL     1      -3.214   5.356   5.566  0.00  0.00    +0.250 C 
ATOM      5  O   UNL     1      -3.512   4.512   6.389  0.00  0.00    -0.270 OA
ATOM      6  H   UNL     1      -3.103   7.426   5.110  0.00  0.00    +0.157 HD
BRANCH   4   7
ATOM      7  C   UNL     1      -2.681   4.949   4.253  0.00  0.00    +0.039 A 
ATOM      8  C   UNL     1      -2.338   5.919   3.306  0.00  0.00    +0.015 A 
ATOM      9  C   UNL     1      -1.844   5.542   2.090  0.00  0.00    +0.026 A 
ATOM     10  C   UNL     1      -1.679   4.193   1.788  0.00  0.00    +0.060 A 
ATOM     11  C   UNL     1      -2.022   3.220   2.724  0.00  0.00    +0.148 A 
ATOM     12  C   UNL     1      -2.516   3.594   3.953  0.00  0.00    +0.047 A 
BRANCH  10  13
ATOM     13  N   UNL     1      -1.176   3.815   0.548  0.00  0.00    -0.324 N 
ATOM     14  C   UNL     1      -2.034   4.306  -0.540  0.00  0.00    +0.133 C 
ATOM     15  C   UNL     1      -1.477   3.819  -1.880  0.00  0.00    +0.178 C 
ATOM     16  O   UNL     1      -0.123   4.260  -2.017  0.00  0.00    -0.377 OA
ATOM     17  C   UNL     1       0.740   3.799  -0.975  0.00  0.00    +0.178 C 
ATOM     18  C   UNL     1       0.206   4.286   0.375  0.00  0.00    +0.133 C 
ENDBRANCH  10  13
BRANCH  11  19
ATOM     19  N   UNL     1      -1.851   1.786   2.399  0.00  0.00    +0.058 N 
ATOM     20  O   UNL     1      -2.238   0.934   3.179  0.00  0.00    -0.126 OA
ATOM     21  O   UNL     1      -1.323   1.458   1.351  0.00  0.00    -0.126 OA
ENDBRANCH  11  19
ENDBRANCH   4   7
ENDBRANCH   1   3
BRANCH   1  22
ATOM     22  N   UNL     1      -4.018   8.341   7.343  0.00  0.00    -0.295 N 
ATOM     23  H   UNL     1      -3.819   9.102   6.573  0.00  0.00    +0.154 HD
BRANCH  22  25
ATOM     24  C   UNL     1      -3.772   9.759   9.292  0.00  0.00    +0.070 A 
ATOM     25  C   UNL     1      -4.436   8.731   8.622  0.00  0.00    +0.055 A 
ATOM     26  C   UNL     1      -5.508   8.093   9.228  0.00  0.00    +0.025 A 
ATOM     27  C   UNL     1      -5.919   8.479  10.490  0.00  0.00    +0.003 A 
ATOM     28  C   UNL     1      -5.265   9.501  11.153  0.00  0.00    +0.022 A 
ATOM     29  C   UNL     1      -4.195  10.143  10.556  0.00  0.00    +0.064 A 
ATOM     30 CL   UNL     1      -3.376  11.425  11.393  0.00  0.00    -0.082 Cl
BRANCH  24  35
ATOM     31  C   UNL     1       0.577  12.971   7.909  0.00  0.00    -0.096 C 
ATOM     32  N   UNL     1      -0.563  12.294   8.542  0.00  0.00    +0.380 N 
ATOM     33  C   UNL     1      -1.790  12.483   7.757  0.00  0.00    -0.060 C 
ATOM     34  C   UNL     1      -2.966  11.832   8.489  0.00  0.00    +0.086 C 
ATOM     35  N   UNL     1      -2.686  10.403   8.688  0.00  0.00    -0.331 N 
ATOM     36  C   UNL     1      -1.459  10.215   9.473  0.00  0.00    +0.086 C 
ATOM     37  C   UNL     1      -0.283  10.865   8.741  0.00  0.00    -0.060 C 
ATOM     38  H   UNL     1      -0.718  12.751   9.531  0.00  0.00    -0.082 HD
ENDBRANCH  24  35
ENDBRANCH  22  25
ENDBRANCH   1  22
TORSDOF 7
