REMARK  Name = ZINC61805344
REMARK  9 active torsions:
REMARK  status: ('A' for Active; 'I' for Inactive)
REMARK    1  A    between atoms: C_1  and  C_2
REMARK    2  A    between atoms: C_2  and  C_4
REMARK    3  A    between atoms: C_2  and  N_20
REMARK    4  A    between atoms: C_4  and  C_6
REMARK    5  A    between atoms: C_4  and  N_11
REMARK    6  A    between atoms: N_11  and  C_12
REMARK    7  A    between atoms: N_11  and  C_16
REMARK    8  A    between atoms: C_12  and  C_13
REMARK    9  A    between atoms: C_16  and  C_17
REMARK                            x       y       z     vdW  Elec       q    Type
REMARK                         _______ _______ _______ _____ _____    ______ ____
ROOT
ATOM      1  N   UNL     1       0.142   0.171  -2.979  0.00  0.00    -0.280 NA
ENDROOT
BRANCH   1   2
ATOM      2  C   UNL     1       0.550  -0.858  -2.013  0.00  0.00    +0.074 C 
BRANCH   2   3
ATOM      3  C   UNL     1      -0.019  -2.191  -2.428  0.00  0.00    -0.025 A 
ATOM      4  C   UNL     1       0.791  -3.309  -2.496  0.00  0.00    +0.012 A 
ATOM      5  C   UNL     1       0.248  -4.492  -2.873  0.00  0.00    +0.045 A 
ATOM      6  S   UNL     1      -1.458  -4.045  -3.146  0.00  0.00    -0.105 S 
ATOM      7  C   UNL     1      -1.333  -2.312  -2.735  0.00  0.00    +0.050 A 
ENDBRANCH   2   3
BRANCH   2   9
ATOM      8  C   UNL     1       0.557   0.888  -0.226  0.00  0.00    -0.012 C 
ATOM      9  C   UNL     1       0.025  -0.490  -0.624  0.00  0.00    -0.056 C 
BRANCH   9  10
ATOM     10  N   UNL     1       0.479  -1.490   0.352  0.00  0.00    +0.381 N 
ATOM     11  H   UNL     1       0.133  -1.247   1.268  0.00  0.00    -0.090 HD
ATOM     12  H   UNL     1       0.128  -2.399   0.090  0.00  0.00    -0.090 HD
ATOM     13  H   UNL     1       1.488  -1.511   0.368  0.00  0.00    -0.090 HD
ENDBRANCH   9  10
ENDBRANCH   2   9
ENDBRANCH   1   2
BRANCH   1  14
ATOM     14  C   UNL     1       0.133  -0.366  -4.347  0.00  0.00    +0.181 C 
BRANCH  14  15
ATOM     15  C   UNL     1       1.546  -0.452  -4.862  0.00  0.00    +0.225 C 
ATOM     16  O   UNL     1       2.471  -0.106  -4.157  0.00  0.00    -0.275 OA
ATOM     17  N   UNL     1       1.783  -0.914  -6.106  0.00  0.00    -0.328 N 
ATOM     18  H   UNL     1       1.044  -1.190  -6.670  0.00  0.00    +0.145 HD
ATOM     19  H   UNL     1       2.693  -0.969  -6.438  0.00  0.00    +0.145 HD
ENDBRANCH  14  15
ENDBRANCH   1  14
BRANCH   1  20
ATOM     20  C   UNL     1      -1.167   0.735  -2.626  0.00  0.00    +0.181 C 
BRANCH  20  21
ATOM     21  C   UNL     1      -1.373   2.029  -3.370  0.00  0.00    +0.225 C 
ATOM     22  O   UNL     1      -0.477   2.491  -4.043  0.00  0.00    -0.275 OA
ATOM     23  N   UNL     1      -2.555   2.673  -3.287  0.00  0.00    -0.328 N 
ATOM     24  H   UNL     1      -3.272   2.304  -2.748  0.00  0.00    +0.145 HD
ATOM     25  H   UNL     1      -2.687   3.506  -3.766  0.00  0.00    +0.145 HD
ENDBRANCH  20  21
ENDBRANCH   1  20
TORSDOF 8
