REMARK  Name = ZINC39935430
REMARK  8 active torsions:
REMARK  status: ('A' for Active; 'I' for Inactive)
REMARK    1  A    between atoms: C_1  and  C_2
REMARK    2  A    between atoms: C_6  and  N_12
REMARK    3  A    between atoms: C_9  and  C_11
REMARK    4  A    between atoms: C_13  and  C_15
REMARK    5  A    between atoms: C_15  and  S_16
REMARK    6  A    between atoms: S_16  and  C_17
REMARK    7  A    between atoms: C_21  and  C_26
REMARK    8  A    between atoms: N_22  and  C_23
REMARK                            x       y       z     vdW  Elec       q    Type
REMARK                         _______ _______ _______ _____ _____    ______ ____
ROOT
ATOM      1  N   UNL     1       2.175  -0.133  -4.768  0.00  0.00    -0.285 N 
ATOM      2  C   UNL     1       3.342  -0.405  -5.385  0.00  0.00    +0.225 C 
ATOM      3  O   UNL     1       3.617  -1.547  -5.686  0.00  0.00    -0.275 OA
ATOM      4  H   UNL     1       1.954   0.781  -4.527  0.00  0.00    +0.151 HD
ENDROOT
BRANCH   1   9
ATOM      5  C   UNL     1      -1.541   1.370  -2.046  0.00  0.00    +0.030 C 
ATOM      6  C   UNL     1      -1.656  -0.126  -2.341  0.00  0.00    +0.099 C 
ATOM      7  C   UNL     1      -0.702  -0.498  -3.443  0.00  0.00    -0.011 C 
ATOM      8  C   UNL     1       0.537  -0.944  -3.170  0.00  0.00    +0.065 C 
ATOM      9  C   UNL     1       1.238  -1.217  -4.461  0.00  0.00    +0.243 C 
ATOM     10  O   UNL     1       0.201  -1.281  -5.464  0.00  0.00    -0.347 OA
ATOM     11  C   UNL     1      -0.868  -0.468  -4.932  0.00  0.00    +0.146 C 
ATOM     12  C   UNL     1      -0.745   0.968  -5.447  0.00  0.00    +0.043 C 
ATOM     13  C   UNL     1       0.973  -1.093  -1.772  0.00  0.00    +0.258 C 
ATOM     14  O   UNL     1       2.125  -1.350  -1.479  0.00  0.00    -0.269 OA
ATOM     15  N   UNL     1       0.011  -0.924  -0.831  0.00  0.00    -0.247 N 
ATOM     16  N   UNL     1      -1.315  -0.894  -1.136  0.00  0.00    -0.233 NA
ATOM     17  H   UNL     1       0.278  -0.822   0.096  0.00  0.00    +0.169 HD
ATOM     18  H   UNL     1      -1.863  -0.590  -0.346  0.00  0.00    +0.145 HD
ENDBRANCH   1   9
BRANCH   2  19
ATOM     19  C   UNL     1       4.305   0.711  -5.700  0.00  0.00    +0.168 C 
BRANCH  19  20
ATOM     20  S   UNL     1       5.771   0.029  -6.524  0.00  0.00    -0.109 S 
BRANCH  20  21
ATOM     21  C   UNL     1       6.815   1.480  -6.831  0.00  0.00    +0.237 C 
ATOM     22  N   UNL     1       7.097   2.190  -5.572  0.00  0.00    -0.237 N 
ATOM     23  N   UNL     1       6.558   3.474  -5.715  0.00  0.00    -0.169 NA
ATOM     24  C   UNL     1       6.000   3.628  -6.871  0.00  0.00    +0.149 C 
ATOM     25  N   UNL     1       6.095   2.471  -7.649  0.00  0.00    -0.282 N 
ATOM     26  H   UNL     1       7.563   1.837  -4.797  0.00  0.00    +0.171 HD
BRANCH  24  27
ATOM     27  C   UNL     1       5.345   4.875  -7.316  0.00  0.00    +0.019 A 
ATOM     28  C   UNL     1       4.981   5.865  -6.395  0.00  0.00    +0.029 A 
ATOM     29  C   UNL     1       4.371   7.013  -6.855  0.00  0.00    +0.083 A 
ATOM     30  N   UNL     1       4.129   7.184  -8.141  0.00  0.00    -0.367 N 
ATOM     31  C   UNL     1       4.454   6.276  -9.042  0.00  0.00    +0.083 A 
ATOM     32  C   UNL     1       5.074   5.101  -8.671  0.00  0.00    +0.029 A 
ATOM     33  H   UNL     1       3.698   8.003  -8.433  0.00  0.00    +0.165 HD
ENDBRANCH  24  27
BRANCH  25  34
ATOM     34  C   UNL     1       5.581   2.279  -9.007  0.00  0.00    +0.078 C 
ATOM     35  C   UNL     1       5.752   0.896  -9.638  0.00  0.00    +0.024 C 
ATOM     36  C   UNL     1       6.603   2.070 -10.126  0.00  0.00    +0.024 C 
ENDBRANCH  25  34
ENDBRANCH  20  21
ENDBRANCH  19  20
ENDBRANCH   2  19
TORSDOF 6
