REMARK  Name = ZINC39709383
REMARK  10 active torsions:
REMARK  status: ('A' for Active; 'I' for Inactive)
REMARK    1  A    between atoms: C_1  and  C_2
REMARK    2  A    between atoms: C_2  and  C_3
REMARK    3  A    between atoms: C_8  and  C_12
REMARK    4  A    between atoms: C_12  and  C_14
REMARK    5  A    between atoms: C_14  and  S_15
REMARK    6  A    between atoms: S_15  and  C_16
REMARK    7  A    between atoms: C_20  and  C_28
REMARK    8  A    between atoms: N_22  and  C_23
REMARK    9  A    between atoms: C_23  and  C_24
REMARK   10  A    between atoms: C_24  and  C_25
REMARK                            x       y       z     vdW  Elec       q    Type
REMARK                         _______ _______ _______ _____ _____    ______ ____
ROOT
ATOM      1  C   UNL     1      -1.500  -2.010  10.069  0.00  0.00    +0.077 C 
ATOM      2  N   UNL     1      -2.310  -0.767   9.979  0.00  0.00    -0.262 NA
ATOM      3  N   UNL     1      -3.674  -1.238  10.269  0.00  0.00    -0.267 NA
ATOM      4  C   UNL     1      -3.757  -2.561   9.609  0.00  0.00    +0.049 C 
ATOM      5  N   UNL     1      -2.369  -3.058   9.484  0.00  0.00    +0.411 N 
ATOM      6  H   UNL     1      -2.009  -0.089  10.662  0.00  0.00    +0.140 HD
ATOM      7  H   UNL     1      -3.824  -1.320  11.263  0.00  0.00    +0.139 HD
ATOM      8  H   UNL     1      -2.137  -3.196   8.512  0.00  0.00    -0.075 HD
ENDROOT
BRANCH   4   9
ATOM      9  C   UNL     1      -4.570  -3.509  10.453  0.00  0.00    -0.046 A 
ATOM     10  C   UNL     1      -4.381  -3.550  11.822  0.00  0.00    +0.006 A 
ATOM     11  C   UNL     1      -5.126  -4.419  12.597  0.00  0.00    +0.038 A 
ATOM     12  C   UNL     1      -6.061  -5.248  12.001  0.00  0.00    +0.123 A 
ATOM     13  C   UNL     1      -6.250  -5.205  10.630  0.00  0.00    +0.038 A 
ATOM     14  C   UNL     1      -5.507  -4.332   9.858  0.00  0.00    +0.006 A 
ATOM     15  F   UNL     1      -6.790  -6.098  12.758  0.00  0.00    -0.205 F 
ENDBRANCH   4   9
BRANCH   1  16
ATOM     16  S   UNL     1       0.029  -1.843   9.107  0.00  0.00    -0.152 S 
BRANCH  16  17
ATOM     17  C   UNL     1      -0.547  -1.443   7.434  0.00  0.00    +0.148 C 
BRANCH  17  18
ATOM     18  C   UNL     1       0.639  -1.276   6.521  0.00  0.00    +0.171 C 
ATOM     19  O   UNL     1       1.765  -1.413   6.956  0.00  0.00    -0.291 OA
BRANCH  18  25
ATOM     20  C   UNL     1       1.609  -0.222   1.735  0.00  0.00    -0.024 A 
ATOM     21  C   UNL     1       2.950  -0.299   1.878  0.00  0.00    +0.005 A 
ATOM     22  C   UNL     1       3.550  -0.599   3.111  0.00  0.00    +0.001 A 
ATOM     23  C   UNL     1       2.831  -0.829   4.232  0.00  0.00    +0.010 A 
ATOM     24  C   UNL     1       1.417  -0.773   4.196  0.00  0.00    +0.006 A 
ATOM     25  C   UNL     1       0.443  -0.959   5.160  0.00  0.00    +0.024 C 
ATOM     26  C   UNL     1      -0.876  -0.754   4.449  0.00  0.00    +0.152 C 
ATOM     27  N   UNL     1      -0.543  -0.449   3.054  0.00  0.00    -0.380 N 
ATOM     28  C   UNL     1       0.751  -0.452   2.909  0.00  0.00    +0.046 A 
ATOM     29  H   UNL     1      -1.186  -0.267   2.351  0.00  0.00    +0.160 HD
BRANCH  20  31
ATOM     30  C   UNL     1       0.734   1.607   0.307  0.00  0.00    +0.009 C 
ATOM     31  C   UNL     1       1.000   0.103   0.396  0.00  0.00    +0.034 C 
ENDBRANCH  20  31
ENDBRANCH  18  25
ENDBRANCH  17  18
ENDBRANCH  16  17
ENDBRANCH   1  16
BRANCH   5  32
ATOM     32  C   UNL     1      -2.212  -4.316  10.226  0.00  0.00    -0.061 C 
BRANCH  32  33
ATOM     33  C   UNL     1      -0.796  -4.857  10.019  0.00  0.00    +0.107 C 
BRANCH  33  34
ATOM     34  C   UNL     1      -0.635  -6.147  10.780  0.00  0.00    +0.354 C 
ATOM     35  O   UNL     1      -1.566  -6.593  11.428  0.00  0.00    -0.246 OA
ATOM     36  O   UNL     1       0.427  -6.746  10.748  0.00  0.00    -0.246 OA
ENDBRANCH  33  34
ENDBRANCH  32  33
ENDBRANCH   5  32
TORSDOF 9
