REMARK  Name = ZINC56159672
REMARK  11 active torsions:
REMARK  status: ('A' for Active; 'I' for Inactive)
REMARK    1  A    between atoms: C_1  and  C_2
REMARK    2  A    between atoms: C_6  and  C_31
REMARK    3  A    between atoms: C_7  and  N_8
REMARK    4  A    between atoms: C_9  and  C_11
REMARK    5  A    between atoms: C_11  and  C_13
REMARK    6  A    between atoms: C_11  and  N_14
REMARK    7  A    between atoms: N_14  and  C_15
REMARK    8  A    between atoms: C_15  and  C_17
REMARK    9  A    between atoms: C_15  and  C_18
REMARK   10  A    between atoms: C_21  and  N_24
REMARK   11  A    between atoms: N_27  and  C_28
REMARK                            x       y       z     vdW  Elec       q    Type
REMARK                         _______ _______ _______ _____ _____    ______ ____
ROOT
ATOM      1  N   UNL     1      -0.895  -0.884   5.814  0.00  0.00    +0.391 N 
ATOM      2  H   UNL     1      -1.729  -1.431   5.663  0.00  0.00    -0.084 HD
ATOM      3  H   UNL     1      -0.105  -1.501   5.932  0.00  0.00    -0.084 HD
ENDROOT
BRANCH   1   4
ATOM      4  C   UNL     1      -0.666  -0.012   4.654  0.00  0.00    +0.014 C 
ATOM      5  C   UNL     1       0.663   0.726   4.826  0.00  0.00    -0.004 C 
BRANCH   4   7
ATOM      6  N   UNL     1      -0.419  -0.255   2.205  0.00  0.00    -0.286 N 
ATOM      7  C   UNL     1      -0.620  -0.845   3.400  0.00  0.00    +0.203 C 
ATOM      8  O   UNL     1      -0.763  -2.048   3.465  0.00  0.00    -0.277 OA
ATOM      9  H   UNL     1      -0.255   0.700   2.158  0.00  0.00    +0.155 HD
BRANCH   6  16
ATOM     10  C   UNL     1       1.643   0.152   0.287  0.00  0.00    +0.045 C 
ATOM     11  C   UNL     1       0.541  -0.853   0.071  0.00  0.00    -0.029 A 
ATOM     12  C   UNL     1       0.514  -1.613  -1.082  0.00  0.00    +0.005 A 
ATOM     13  C   UNL     1      -0.497  -2.534  -1.281  0.00  0.00    +0.001 A 
ATOM     14  C   UNL     1      -1.485  -2.698  -0.327  0.00  0.00    +0.005 A 
ATOM     15  C   UNL     1      -1.464  -1.941   0.828  0.00  0.00    -0.029 A 
ATOM     16  C   UNL     1      -0.446  -1.019   1.034  0.00  0.00    +0.039 A 
ATOM     17  C   UNL     1      -2.541  -2.120   1.867  0.00  0.00    +0.045 C 
ENDBRANCH   6  16
ENDBRANCH   4   7
ENDBRANCH   1   4
BRANCH   1  18
ATOM     18  C   UNL     1      -1.060  -0.062   7.020  0.00  0.00    -0.043 C 
ATOM     19  C   UNL     1      -2.329   0.783   6.893  0.00  0.00    -0.009 C 
BRANCH  18  20
ATOM     20  C   UNL     1      -1.172  -0.958   8.227  0.00  0.00    -0.062 A 
ATOM     21  C   UNL     1      -1.899  -2.132   8.150  0.00  0.00    +0.004 A 
ATOM     22  C   UNL     1      -2.004  -2.955   9.254  0.00  0.00    +0.023 A 
ATOM     23  C   UNL     1      -1.378  -2.602  10.443  0.00  0.00    +0.035 A 
ATOM     24  C   UNL     1      -0.649  -1.423  10.517  0.00  0.00    +0.023 A 
ATOM     25  C   UNL     1      -0.543  -0.607   9.408  0.00  0.00    +0.004 A 
BRANCH  23  26
ATOM     26  N   UNL     1      -1.483  -3.434  11.563  0.00  0.00    -0.269 N 
ATOM     27  C   UNL     1      -1.638  -4.763  11.404  0.00  0.00    +0.304 C 
ATOM     28  O   UNL     1      -1.582  -5.253  10.292  0.00  0.00    -0.253 OA
ATOM     29  N   UNL     1      -1.855  -5.550  12.477  0.00  0.00    -0.296 N 
ATOM     30  H   UNL     1      -1.444  -3.054  12.455  0.00  0.00    +0.156 HD
ATOM     31  H   UNL     1      -1.900  -5.159  13.363  0.00  0.00    +0.151 HD
BRANCH  29  32
ATOM     32  C   UNL     1      -2.024  -6.995  12.303  0.00  0.00    +0.075 C 
ATOM     33  C   UNL     1      -3.146  -7.674  13.091  0.00  0.00    +0.024 C 
ATOM     34  C   UNL     1      -1.687  -7.893  13.495  0.00  0.00    +0.024 C 
ENDBRANCH  29  32
ENDBRANCH  23  26
ENDBRANCH  18  20
ENDBRANCH   1  18
TORSDOF 7
