REMARK  Name = ZINC43285865
REMARK  7 active torsions:
REMARK  status: ('A' for Active; 'I' for Inactive)
REMARK    1  A    between atoms: C_1  and  C_2
REMARK    2  A    between atoms: C_2  and  C_4
REMARK    3  A    between atoms: C_2  and  N_22
REMARK    4  A    between atoms: C_4  and  C_6
REMARK    5  A    between atoms: C_4  and  N_12
REMARK    6  A    between atoms: C_15  and  C_18
REMARK    7  A    between atoms: N_20  and  C_21
REMARK                            x       y       z     vdW  Elec       q    Type
REMARK                         _______ _______ _______ _____ _____    ______ ____
ROOT
ATOM      1  C   UNL     1       0.713  -0.402   1.297  0.00  0.00    +0.079 C 
ENDROOT
BRANCH   1   2
ATOM      2  C   UNL     1       0.849  -1.902   1.328  0.00  0.00    +0.006 A 
ATOM      3  C   UNL     1       0.096  -2.814   1.992  0.00  0.00    +0.028 A 
ATOM      4  C   UNL     1       0.408  -4.155   1.873  0.00  0.00    +0.025 A 
ATOM      5  C   UNL     1       1.457  -4.519   1.095  0.00  0.00    +0.060 A 
ATOM      6  S   UNL     1       2.037  -2.941   0.494  0.00  0.00    -0.099 S 
ATOM      7 BR   UNL     1      -0.613  -5.463   2.781  0.00  0.00    -0.050 Br
ENDBRANCH   1   2
BRANCH   1   8
ATOM      8  N   UNL     1       2.048   0.211   1.331  0.00  0.00    -0.296 NA
ATOM      9  C   UNL     1       1.955   1.676   1.294  0.00  0.00    +0.085 C 
ATOM     10  C   UNL     1       3.359   2.275   1.183  0.00  0.00    +0.028 C 
ATOM     11  C   UNL     1       4.195   1.828   2.386  0.00  0.00    +0.077 C 
ATOM     12  C   UNL     1       4.236   0.298   2.429  0.00  0.00    +0.028 C 
ATOM     13  C   UNL     1       2.806  -0.243   2.503  0.00  0.00    +0.085 C 
BRANCH  11  14
ATOM     14  C   UNL     1       5.597   2.365   2.252  0.00  0.00    +0.216 C 
ATOM     15  O   UNL     1       5.899   3.039   1.291  0.00  0.00    -0.276 OA
ATOM     16  N   UNL     1       6.515   2.096   3.202  0.00  0.00    -0.318 N 
ATOM     17  C   UNL     1       7.878   2.619   3.072  0.00  0.00    +0.128 C 
ATOM     18  H   UNL     1       6.273   1.557   3.971  0.00  0.00    +0.148 HD
ENDBRANCH  11  14
ENDBRANCH   1   8
BRANCH   1  20
ATOM     19  C   UNL     1      -1.395  -0.626  -0.024  0.00  0.00    -0.012 C 
ATOM     20  C   UNL     1      -0.009   0.019   0.015  0.00  0.00    -0.056 C 
BRANCH  20  21
ATOM     21  N   UNL     1       0.769  -0.420  -1.151  0.00  0.00    +0.381 N 
ATOM     22  H   UNL     1       0.293  -0.143  -1.996  0.00  0.00    -0.090 HD
ATOM     23  H   UNL     1       1.683   0.005  -1.125  0.00  0.00    -0.090 HD
ATOM     24  H   UNL     1       0.865  -1.424  -1.133  0.00  0.00    -0.090 HD
ENDBRANCH  20  21
ENDBRANCH   1  20
TORSDOF 5
