REMARK  Name = ZINC16434552
REMARK  16 active torsions:
REMARK  status: ('A' for Active; 'I' for Inactive)
REMARK    1  A    between atoms: C_1  and  C_2
REMARK    2  A    between atoms: C_2  and  C_3
REMARK    3  A    between atoms: C_3  and  C_4
REMARK    4  A    between atoms: C_4  and  N_5
REMARK    5  A    between atoms: N_5  and  C_6
REMARK    6  A    between atoms: C_6  and  C_7
REMARK    7  A    between atoms: N_9  and  C_10
REMARK    8  A    between atoms: C_12  and  C_19
REMARK    9  A    between atoms: N_14  and  C_15
REMARK   10  A    between atoms: C_15  and  C_16
REMARK   11  A    between atoms: C_15  and  C_17
REMARK   12  A    between atoms: C_15  and  C_18
REMARK   13  A    between atoms: C_19  and  C_20
REMARK   14  A    between atoms: C_19  and  C_21
REMARK   15  A    between atoms: C_19  and  C_22
REMARK   16  A    between atoms: N_25  and  C_26
REMARK                            x       y       z     vdW  Elec       q    Type
REMARK                         _______ _______ _______ _____ _____    ______ ____
ROOT
ATOM      1  C   UNL     1       3.545   1.897   0.095  0.00  0.00    +0.205 C 
ENDROOT
BRANCH   1   2
ATOM      2  N   UNL     1       2.318   1.097   0.096  0.00  0.00    -0.277 N 
ATOM      3  C   UNL     1       1.117   1.703   0.007  0.00  0.00    +0.307 C 
ATOM      4  O   UNL     1       1.053   2.914  -0.074  0.00  0.00    -0.252 OA
ATOM      5  N   UNL     1      -0.011   0.966   0.007  0.00  0.00    -0.269 N 
ATOM      6  H   UNL     1       0.042  -0.003   0.003  0.00  0.00    +0.156 HD
BRANCH   5   7
ATOM      7  C   UNL     1      -1.260   1.598   0.008  0.00  0.00    +0.036 A 
ATOM      8  C   UNL     1      -2.326   1.032   0.695  0.00  0.00    +0.025 A 
ATOM      9  C   UNL     1      -3.556   1.661   0.700  0.00  0.00    +0.023 A 
ATOM     10  C   UNL     1      -3.730   2.848   0.011  0.00  0.00    +0.059 A 
ATOM     11  C   UNL     1      -2.671   3.412  -0.680  0.00  0.00    +0.061 A 
ATOM     12  C   UNL     1      -1.436   2.790  -0.682  0.00  0.00    +0.044 A 
ATOM     13 CL   UNL     1      -2.893   4.902  -1.542  0.00  0.00    -0.082 Cl
ATOM     14 CL   UNL     1      -5.279   3.632   0.013  0.00  0.00    -0.082 Cl
ENDBRANCH   5   7
BRANCH   2  15
ATOM     15  C   UNL     1       2.396  -0.363   0.193  0.00  0.00    +0.110 C 
BRANCH  15  16
ATOM     16  C   UNL     1       2.483  -0.964  -1.211  0.00  0.00    +0.019 C 
BRANCH  16  18
ATOM     17  C   UNL     1       2.652  -3.090  -2.514  0.00  0.00    +0.004 C 
ATOM     18  C   UNL     1       2.565  -2.489  -1.109  0.00  0.00    -0.002 C 
ENDBRANCH  16  18
ENDBRANCH  15  16
ENDBRANCH   2  15
ENDBRANCH   1   2
BRANCH   1  19
ATOM     19  C   UNL     1       3.907   2.264   1.511  0.00  0.00    +0.236 C 
ATOM     20  O   UNL     1       3.208   1.892   2.431  0.00  0.00    -0.274 OA
ATOM     21  N   UNL     1       5.006   3.004   1.756  0.00  0.00    -0.269 N 
ATOM     22  H   UNL     1       5.564   3.301   1.020  0.00  0.00    +0.156 HD
BRANCH  21  23
ATOM     23  C   UNL     1       5.341   3.343   3.067  0.00  0.00    +0.124 A 
ATOM     24  C   UNL     1       4.652   2.995   4.188  0.00  0.00    +0.069 A 
ATOM     25  C   UNL     1       5.325   3.535   5.288  0.00  0.00    +0.070 A 
ATOM     26  N   UNL     1       6.376   4.181   4.851  0.00  0.00    -0.174 NA
ATOM     27  N   UNL     1       6.412   4.071   3.455  0.00  0.00    -0.245 N 
BRANCH  27  28
ATOM     28  C   UNL     1       7.429   4.647   2.571  0.00  0.00    +0.057 C 
ATOM     29  C   UNL     1       6.765   5.619   1.594  0.00  0.00    +0.036 C 
ATOM     30  C   UNL     1       8.468   5.396   3.409  0.00  0.00    +0.036 C 
ATOM     31  C   UNL     1       8.117   3.527   1.788  0.00  0.00    +0.036 C 
ENDBRANCH  27  28
BRANCH  25  32
ATOM     32  C   UNL     1       4.911   3.396   6.730  0.00  0.00    +0.006 C 
ATOM     33  C   UNL     1       5.234   1.984   7.220  0.00  0.00    +0.017 C 
ATOM     34  C   UNL     1       5.672   4.417   7.579  0.00  0.00    +0.017 C 
ATOM     35  C   UNL     1       3.407   3.648   6.856  0.00  0.00    +0.017 C 
ENDBRANCH  25  32
ENDBRANCH  21  23
ENDBRANCH   1  19
TORSDOF 9
