REMARK  Name = ZINC44876107
REMARK  11 active torsions:
REMARK  status: ('A' for Active; 'I' for Inactive)
REMARK    1  A    between atoms: C_1  and  C_2
REMARK    2  A    between atoms: C_4  and  C_8
REMARK    3  A    between atoms: C_5  and  C_7
REMARK    4  A    between atoms: C_8  and  C_10
REMARK    5  A    between atoms: C_8  and  N_11
REMARK    6  A    between atoms: C_12  and  C_14
REMARK    7  A    between atoms: C_14  and  C_16
REMARK    8  A    between atoms: C_14  and  C_19
REMARK    9  A    between atoms: C_16  and  C_17
REMARK   10  A    between atoms: C_16  and  C_18
REMARK   11  A    between atoms: N_20  and  O_21
REMARK                            x       y       z     vdW  Elec       q    Type
REMARK                         _______ _______ _______ _____ _____    ______ ____
ROOT
ATOM      1  N   UNL     1      -3.241  -2.272   0.464  0.00  0.00    -0.308 N 
ATOM      2  C   UNL     1      -3.985  -3.160   1.153  0.00  0.00    +0.224 C 
ATOM      3  O   UNL     1      -3.594  -4.300   1.294  0.00  0.00    -0.275 OA
ATOM      4  H   UNL     1      -3.520  -1.345   0.408  0.00  0.00    +0.149 HD
ENDROOT
BRANCH   1   5
ATOM      5  C   UNL     1      -2.011  -2.708  -0.202  0.00  0.00    +0.101 C 
ATOM      6  C   UNL     1      -2.342  -3.216  -1.606  0.00  0.00    +0.033 C 
BRANCH   5  10
ATOM      7  C   UNL     1      -0.905   2.255  -0.473  0.00  0.00    +0.051 C 
ATOM      8  C   UNL     1      -0.642   0.772  -0.421  0.00  0.00    -0.013 A 
ATOM      9  C   UNL     1      -1.529  -0.249  -0.333  0.00  0.00    +0.016 A 
ATOM     10  C   UNL     1      -1.055  -1.547  -0.300  0.00  0.00    -0.017 A 
ATOM     11  C   UNL     1       0.283  -1.760  -0.358  0.00  0.00    -0.008 A 
ATOM     12  S   UNL     1       0.917  -0.095  -0.469  0.00  0.00    -0.098 S 
ATOM     13  C   UNL     1       1.038  -3.064  -0.340  0.00  0.00    +0.052 C 
ENDBRANCH   5  10
ENDBRANCH   1   5
BRANCH   2  14
ATOM     14  C   UNL     1      -5.303  -2.737   1.749  0.00  0.00    +0.144 C 
BRANCH  14  15
ATOM     15  C   UNL     1      -6.285  -3.876   1.657  0.00  0.00    +0.144 C 
ATOM     16  N   UNL     1      -6.440  -4.677   2.659  0.00  0.00    -0.076 NA
ATOM     17  N   UNL     1      -7.016  -4.064   0.506  0.00  0.00    -0.343 N 
ATOM     18  H   UNL     1      -6.900  -3.462  -0.246  0.00  0.00    +0.144 HD
ATOM     19  H   UNL     1      -7.649  -4.797   0.447  0.00  0.00    +0.144 HD
BRANCH  16  20
ATOM     20  O   UNL     1      -7.363  -5.748   2.573  0.00  0.00    -0.408 OA
ATOM     21  H   UNL     1      -7.410  -6.292   3.371  0.00  0.00    +0.328 HD
ENDBRANCH  16  20
ENDBRANCH  14  15
BRANCH  14  22
ATOM     22  C   UNL     1      -5.100  -2.356   3.217  0.00  0.00    +0.002 C 
ATOM     23  C   UNL     1      -4.052  -1.245   3.315  0.00  0.00    +0.008 C 
ATOM     24  C   UNL     1      -6.423  -1.861   3.803  0.00  0.00    +0.008 C 
ENDBRANCH  14  22
ENDBRANCH   2  14
TORSDOF 6
