REMARK  Name = ZINC21918373
REMARK  5 active torsions:
REMARK  status: ('A' for Active; 'I' for Inactive)
REMARK    1  A    between atoms: C_1  and  O_2
REMARK    2  A    between atoms: O_2  and  C_3
REMARK    3  A    between atoms: C_3  and  C_5
REMARK    4  A    between atoms: C_8  and  N_11
REMARK    5  A    between atoms: C_26  and  C_28
REMARK                            x       y       z     vdW  Elec       q    Type
REMARK                         _______ _______ _______ _____ _____    ______ ____
ROOT
ATOM      1  N   UNL     1      -6.484   4.538   1.990  0.00  0.00    -0.269 N 
ATOM      2  C   UNL     1      -6.130   3.723   3.003  0.00  0.00    +0.308 C 
ATOM      3  O   UNL     1      -6.984   3.237   3.719  0.00  0.00    -0.252 OA
ATOM      4  N   UNL     1      -4.829   3.448   3.224  0.00  0.00    -0.268 N 
ATOM      5  C   UNL     1      -3.765   4.018   2.378  0.00  0.00    +0.148 C 
ATOM      6  C   UNL     1      -2.660   3.027   2.086  0.00  0.00    +0.005 A 
ATOM      7  C   UNL     1      -2.432   2.488   0.803  0.00  0.00    -0.030 A 
ATOM      8  C   UNL     1      -1.384   1.635   0.654  0.00  0.00    -0.005 A 
ATOM      9  S   UNL     1      -0.684   1.533   2.282  0.00  0.00    -0.075 S 
ATOM     10  C   UNL     1      -1.818   2.629   3.078  0.00  0.00    +0.090 A 
ATOM     11  N   UNL     1      -1.925   3.039   4.401  0.00  0.00    -0.312 N 
ATOM     12  C   UNL     1      -0.995   3.473   5.282  0.00  0.00    +0.092 A 
ATOM     13  C   UNL     1      -1.631   3.816   6.426  0.00  0.00    +0.020 A 
ATOM     14  C   UNL     1      -3.007   3.561   6.240  0.00  0.00    +0.025 A 
ATOM     15  C   UNL     1      -3.161   3.064   5.004  0.00  0.00    +0.049 A 
ATOM     16  C   UNL     1      -4.400   2.557   4.329  0.00  0.00    +0.155 C 
ATOM     17  C   UNL     1      -0.939   0.947  -0.595  0.00  0.00    +0.043 C 
ATOM     18  C   UNL     1      -2.066   1.054  -1.633  0.00  0.00    +0.005 C 
ATOM     19  C   UNL     1      -2.558   2.503  -1.677  0.00  0.00    +0.005 C 
ATOM     20  C   UNL     1      -3.314   2.840  -0.392  0.00  0.00    +0.036 C 
ATOM     21  H   UNL     1      -5.719   4.917   1.296  0.00  0.00    +0.156 HD
ENDROOT
BRANCH  16  22
ATOM     22  C   UNL     1      -4.129   1.183   3.772  0.00  0.00    -0.018 A 
ATOM     23  C   UNL     1      -3.288   0.318   4.448  0.00  0.00    +0.006 A 
ATOM     24  C   UNL     1      -3.038  -0.943   3.939  0.00  0.00    +0.003 A 
ATOM     25  C   UNL     1      -3.629  -1.340   2.753  0.00  0.00    +0.038 A 
ATOM     26  C   UNL     1      -4.471  -0.474   2.076  0.00  0.00    +0.124 A 
ATOM     27  C   UNL     1      -4.725   0.787   2.591  0.00  0.00    +0.044 A 
ATOM     28  F   UNL     1      -5.049  -0.861   0.918  0.00  0.00    -0.205 F 
ENDBRANCH  16  22
BRANCH   1  32
ATOM     29  C   UNL     1     -10.474   5.619   1.482  0.00  0.00    +0.059 A 
ATOM     30  C   UNL     1      -9.458   6.533   1.189  0.00  0.00    +0.017 A 
ATOM     31  C   UNL     1      -8.140   6.172   1.358  0.00  0.00    +0.024 A 
ATOM     32  C   UNL     1      -7.819   4.900   1.820  0.00  0.00    +0.035 A 
ATOM     33  C   UNL     1      -8.828   3.985   2.107  0.00  0.00    +0.024 A 
ATOM     34  C   UNL     1     -10.148   4.341   1.946  0.00  0.00    +0.017 A 
BRANCH  29  35
ATOM     35  C   UNL     1     -11.887   6.002   1.303  0.00  0.00    +0.339 C 
ATOM     36  O   UNL     1     -12.168   7.113   0.900  0.00  0.00    -0.245 OA
BRANCH  35  38
ATOM     37  C   UNL     1     -14.232   5.565   1.385  0.00  0.00    +0.280 C 
ATOM     38  O   UNL     1     -12.865   5.119   1.585  0.00  0.00    -0.464 OA
ENDBRANCH  35  38
ENDBRANCH  29  35
ENDBRANCH   1  32
TORSDOF 4
