REMARK  Name = ZINC50369191
REMARK  5 active torsions:
REMARK  status: ('A' for Active; 'I' for Inactive)
REMARK    1  A    between atoms: C_1  and  O_2
REMARK    2  A    between atoms: O_2  and  C_3
REMARK    3  A    between atoms: C_8  and  N_10
REMARK    4  A    between atoms: N_10  and  C_11
REMARK    5  A    between atoms: C_20  and  N_21
REMARK                            x       y       z     vdW  Elec       q    Type
REMARK                         _______ _______ _______ _____ _____    ______ ____
ROOT
ATOM      1  C   UNL     1      -1.370  -2.892   2.989  0.00  0.00    +0.059 A 
ATOM      2  C   UNL     1      -1.601  -2.721   4.372  0.00  0.00    +0.022 A 
ATOM      3  C   UNL     1      -2.213  -1.562   4.872  0.00  0.00    +0.027 A 
ATOM      4  C   UNL     1      -2.419  -1.433   6.213  0.00  0.00    +0.019 A 
ATOM      5  C   UNL     1      -2.030  -2.439   7.095  0.00  0.00    +0.017 A 
ATOM      6  C   UNL     1      -1.434  -3.576   6.643  0.00  0.00    +0.027 A 
ATOM      7  C   UNL     1      -1.204  -3.745   5.266  0.00  0.00    +0.048 A 
ATOM      8  N   UNL     1      -0.621  -4.854   4.798  0.00  0.00    -0.359 N 
ATOM      9  C   UNL     1      -0.400  -5.029   3.516  0.00  0.00    +0.107 A 
ATOM     10  C   UNL     1      -0.764  -4.072   2.572  0.00  0.00    +0.062 A 
ATOM     11 BR   UNL     1      -3.243   0.131   6.885  0.00  0.00    -0.050 Br
ATOM     12  H   UNL     1      -0.355  -5.547   5.423  0.00  0.00    +0.165 HD
ENDROOT
BRANCH  10  13
ATOM     13  N   UNL     1      -0.518  -4.295   1.209  0.00  0.00    -0.355 N 
ATOM     14  H   UNL     1      -0.682  -3.589   0.565  0.00  0.00    +0.142 HD
ATOM     15  H   UNL     1      -0.183  -5.155   0.911  0.00  0.00    +0.142 HD
ENDBRANCH  10  13
BRANCH   1  16
ATOM     16  N   UNL     1      -1.742  -1.913   2.073  0.00  0.00    -0.337 N 
ATOM     17  H   UNL     1      -2.681  -1.747   1.896  0.00  0.00    +0.147 HD
BRANCH  16  22
ATOM     18  C   UNL     1      -0.187  -0.014   2.297  0.00  0.00    +0.138 C 
ATOM     19  C   UNL     1       0.047   1.185   1.345  0.00  0.00    +0.033 C 
ATOM     20  C   UNL     1      -1.146   1.081   0.363  0.00  0.00    +0.004 C 
ATOM     21  C   UNL     1      -1.324  -0.436   0.144  0.00  0.00    +0.025 C 
ATOM     22  C   UNL     1      -0.716  -1.134   1.376  0.00  0.00    +0.099 C 
BRANCH  18  24
ATOM     23  C   UNL     1       1.277   0.198   4.183  0.00  0.00    +0.194 C 
ATOM     24  O   UNL     1       1.040  -0.411   2.912  0.00  0.00    -0.378 OA
ENDBRANCH  18  24
ENDBRANCH  16  22
ENDBRANCH   1  16
TORSDOF 4
