REMARK  Name = ZINC67358730
REMARK  8 active torsions:
REMARK  status: ('A' for Active; 'I' for Inactive)
REMARK    1  A    between atoms: C_1  and  C_2
REMARK    2  A    between atoms: C_2  and  C_4
REMARK    3  A    between atoms: C_2  and  N_15
REMARK    4  A    between atoms: C_8  and  S_10
REMARK    5  A    between atoms: S_10  and  N_13
REMARK    6  A    between atoms: N_13  and  C_14
REMARK    7  A    between atoms: N_18  and  C_19
REMARK    8  A    between atoms: C_22  and  O_25
REMARK                            x       y       z     vdW  Elec       q    Type
REMARK                         _______ _______ _______ _____ _____    ______ ____
ROOT
ATOM      1  C   UNL     1      -0.019   1.526   0.010  0.00  0.00    +0.033 C 
ATOM      2  C   UNL     1       0.002  -0.004   0.002  0.00  0.00    +0.102 C 
ENDROOT
BRANCH   2   3
ATOM      3  C   UNL     1      -1.412  -0.526   0.013  0.00  0.00    -0.026 A 
ATOM      4  C   UNL     1      -2.123  -0.571   1.198  0.00  0.00    +0.005 A 
ATOM      5  C   UNL     1      -3.420  -1.049   1.207  0.00  0.00    +0.002 A 
ATOM      6  C   UNL     1      -4.006  -1.482   0.032  0.00  0.00    +0.028 A 
ATOM      7  C   UNL     1      -3.295  -1.436  -1.152  0.00  0.00    +0.106 A 
ATOM      8  C   UNL     1      -1.999  -0.954  -1.163  0.00  0.00    +0.034 A 
BRANCH   7   9
ATOM      9  S   UNL     1      -4.042  -1.988  -2.650  0.00  0.00    +0.058 S 
ATOM     10  O   UNL     1      -2.981  -2.351  -3.523  0.00  0.00    -0.153 OA
ATOM     11  O   UNL     1      -5.069  -2.898  -2.280  0.00  0.00    -0.153 OA
BRANCH   9  12
ATOM     12  N   UNL     1      -4.792  -0.680  -3.334  0.00  0.00    -0.193 NA
ATOM     13  C   UNL     1      -3.997   0.458  -3.803  0.00  0.00    +0.127 C 
ATOM     14  H   UNL     1      -5.757  -0.667  -3.425  0.00  0.00    +0.148 HD
ENDBRANCH   9  12
ENDBRANCH   7   9
ENDBRANCH   2   3
BRANCH   2  15
ATOM     15  N   UNL     1       0.711  -0.489   1.189  0.00  0.00    -0.293 N 
ATOM     16  C   UNL     1       2.054  -0.600   1.174  0.00  0.00    +0.300 C 
ATOM     17  O   UNL     1       2.677  -0.297   0.175  0.00  0.00    -0.253 OA
ATOM     18  N   UNL     1       2.706  -1.046   2.266  0.00  0.00    -0.297 N 
ATOM     19  H   UNL     1       0.213  -0.731   1.986  0.00  0.00    +0.151 HD
ATOM     20  H   UNL     1       2.208  -1.288   3.062  0.00  0.00    +0.151 HD
BRANCH  18  21
ATOM     21  C   UNL     1       4.166  -1.166   2.249  0.00  0.00    +0.075 C 
ATOM     22  C   UNL     1       4.560  -2.515   1.643  0.00  0.00    +0.025 C 
ATOM     23  C   UNL     1       6.084  -2.640   1.626  0.00  0.00    +0.033 C 
ATOM     24  C   UNL     1       6.620  -2.548   3.056  0.00  0.00    +0.115 C 
ATOM     25  C   UNL     1       6.226  -1.200   3.662  0.00  0.00    +0.033 C 
ATOM     26  C   UNL     1       4.701  -1.074   3.679  0.00  0.00    +0.025 C 
BRANCH  24  27
ATOM     27  O   UNL     1       8.044  -2.665   3.040  0.00  0.00    -0.392 OA
ATOM     28  H   UNL     1       8.453  -2.615   3.915  0.00  0.00    +0.210 HD
ENDBRANCH  24  27
ENDBRANCH  18  21
ENDBRANCH   2  15
TORSDOF 6
