REMARK  Name = ZINC40125437
REMARK  7 active torsions:
REMARK  status: ('A' for Active; 'I' for Inactive)
REMARK    1  A    between atoms: C_1  and  C_2
REMARK    2  A    between atoms: C_5  and  C_9
REMARK    3  A    between atoms: C_9  and  C_11
REMARK    4  A    between atoms: C_16  and  C_18
REMARK    5  A    between atoms: C_21  and  O_24
REMARK    6  A    between atoms: O_24  and  C_25
REMARK    7  A    between atoms: C_25  and  C_26
REMARK                            x       y       z     vdW  Elec       q    Type
REMARK                         _______ _______ _______ _____ _____    ______ ____
ROOT
ATOM      1  C   UNL     1       0.137  -4.918   1.289  0.00  0.00    +0.076 C 
ATOM      2  C   UNL     1       0.240  -6.247   1.528  0.00  0.00    +0.249 C 
ATOM      3  C   UNL     1       0.276  -6.475   2.989  0.00  0.00    +0.285 C 
ATOM      4  O   UNL     1       0.364  -7.562   3.522  0.00  0.00    -0.267 OA
ATOM      5  N   UNL     1       0.196  -5.300   3.639  0.00  0.00    -0.298 N 
ATOM      6  C   UNL     1       0.110  -4.233   2.635  0.00  0.00    +0.142 C 
ATOM      7  O   UNL     1       0.300  -7.212   0.583  0.00  0.00    -0.282 OA
ATOM      8  H   UNL     1       0.199  -5.179   4.601  0.00  0.00    +0.150 HD
ENDROOT
BRANCH   6   9
ATOM      9  C   UNL     1       1.285  -3.299   2.765  0.00  0.00    -0.022 A 
ATOM     10  C   UNL     1       2.552  -3.809   2.975  0.00  0.00    +0.009 A 
ATOM     11  C   UNL     1       3.631  -2.954   3.095  0.00  0.00    +0.046 A 
ATOM     12  C   UNL     1       3.442  -1.583   3.004  0.00  0.00    +0.121 A 
ATOM     13  C   UNL     1       2.169  -1.073   2.793  0.00  0.00    +0.046 A 
ATOM     14  C   UNL     1       1.094  -1.932   2.668  0.00  0.00    +0.009 A 
BRANCH  12  15
ATOM     15  O   UNL     1       4.501  -0.740   3.122  0.00  0.00    -0.483 OA
BRANCH  15  16
ATOM     16  C   UNL     1       4.232   0.659   3.018  0.00  0.00    +0.324 C 
BRANCH  16  17
ATOM     17  C   UNL     1       5.517   1.431   3.173  0.00  0.00    +0.248 C 
ATOM     18  O   UNL     1       6.561   0.841   3.355  0.00  0.00    -0.272 OA
ATOM     19  N   UNL     1       5.506   2.777   3.110  0.00  0.00    -0.327 N 
ATOM     20  H   UNL     1       4.672   3.249   2.964  0.00  0.00    +0.145 HD
ATOM     21  H   UNL     1       6.333   3.274   3.209  0.00  0.00    +0.145 HD
ENDBRANCH  16  17
ENDBRANCH  15  16
ENDBRANCH  12  15
ENDBRANCH   6   9
BRANCH   1  22
ATOM     22  C   UNL     1       0.072  -4.269  -0.024  0.00  0.00    +0.195 C 
ATOM     23  O   UNL     1       1.030  -4.312  -0.772  0.00  0.00    -0.287 OA
BRANCH  22  28
ATOM     24  C   UNL     1      -4.717  -1.518  -1.645  0.00  0.00    +0.047 C 
ATOM     25  C   UNL     1      -3.464  -2.238  -1.220  0.00  0.00    -0.015 A 
ATOM     26  C   UNL     1      -2.349  -2.222  -2.039  0.00  0.00    +0.007 A 
ATOM     27  C   UNL     1      -1.198  -2.880  -1.657  0.00  0.00    +0.012 A 
ATOM     28  C   UNL     1      -1.159  -3.563  -0.439  0.00  0.00    +0.025 A 
ATOM     29  C   UNL     1      -2.286  -3.576   0.384  0.00  0.00    +0.050 A 
ATOM     30  C   UNL     1      -3.431  -2.909  -0.008  0.00  0.00    +0.127 A 
ATOM     31  F   UNL     1      -4.521  -2.915   0.789  0.00  0.00    -0.205 F 
ENDBRANCH  22  28
ENDBRANCH   1  22
TORSDOF 6
