REMARK  Name = ZINC05352485
REMARK  6 active torsions:
REMARK  status: ('A' for Active; 'I' for Inactive)
REMARK    1  A    between atoms: C_1  and  C_2
REMARK    2  A    between atoms: C_4  and  O_30
REMARK    3  A    between atoms: C_6  and  N_48
REMARK    4  A    between atoms: C_9  and  O_12
REMARK    5  A    between atoms: O_12  and  C_13
REMARK    6  A    between atoms: C_13  and  C_14
REMARK                            x       y       z     vdW  Elec       q    Type
REMARK                         _______ _______ _______ _____ _____    ______ ____
ROOT
ATOM      1  C   UNL     1       6.115   3.283  -0.036  0.00  0.00    -0.021 A 
ATOM      2  C   UNL     1       6.143   1.901  -0.044  0.00  0.00    +0.006 A 
ATOM      3  C   UNL     1       4.964   1.176  -0.037  0.00  0.00    +0.013 A 
ATOM      4  C   UNL     1       3.741   1.841  -0.023  0.00  0.00    +0.033 A 
ATOM      5  C   UNL     1       3.712   3.247  -0.015  0.00  0.00    +0.033 A 
ATOM      6  C   UNL     1       4.908   3.960  -0.022  0.00  0.00    +0.018 A 
ATOM      7  C   UNL     1       2.419   3.961  -0.000  0.00  0.00    +0.195 C 
ATOM      8  O   UNL     1       2.394   5.176   0.006  0.00  0.00    -0.287 OA
ATOM      9  C   UNL     1       1.154   3.195   0.008  0.00  0.00    +0.033 A 
ATOM     10  C   UNL     1      -0.069   3.860   0.024  0.00  0.00    +0.012 A 
ATOM     11  C   UNL     1      -1.248   3.135   0.031  0.00  0.00    +0.001 A 
ATOM     12  C   UNL     1      -1.220   1.753   0.017  0.00  0.00    +0.001 A 
ATOM     13  C   UNL     1      -0.013   1.076   0.008  0.00  0.00    +0.012 A 
ATOM     14  C   UNL     1       1.183   1.789   0.000  0.00  0.00    +0.033 A 
ATOM     15  C   UNL     1       2.477   1.075  -0.015  0.00  0.00    +0.195 C 
ATOM     16  O   UNL     1       2.501  -0.140  -0.022  0.00  0.00    -0.287 OA
ENDROOT
BRANCH   1  17
ATOM     17  C   UNL     1       7.407   4.058  -0.045  0.00  0.00    +0.198 C 
BRANCH  17  18
ATOM     18  O   UNL     1       7.803   4.310  -1.395  0.00  0.00    -0.347 OA
BRANCH  18  24
ATOM     19  C   UNL     1      11.147   6.485  -0.245  0.00  0.00    +0.040 C 
ATOM     20  C   UNL     1      10.021   7.168  -1.025  0.00  0.00    +0.145 C 
ATOM     21  C   UNL     1      10.451   7.357  -2.482  0.00  0.00    +0.129 C 
ATOM     22  C   UNL     1      10.690   5.984  -3.118  0.00  0.00    -0.039 C 
ATOM     23  C   UNL     1       9.414   5.146  -2.992  0.00  0.00    +0.048 C 
ATOM     24  C   UNL     1       9.024   5.043  -1.515  0.00  0.00    +0.249 C 
ATOM     25  O   UNL     1       8.847   6.355  -0.977  0.00  0.00    -0.346 OA
BRANCH  22  28
ATOM     26  H   UNL     1      11.191   5.259  -4.979  0.00  0.00    -0.090 HD
ATOM     27  H   UNL     1      10.312   6.670  -5.022  0.00  0.00    -0.090 HD
ATOM     28  N   UNL     1      11.051   6.165  -4.535  0.00  0.00    +0.382 N 
ATOM     29  H   UNL     1      11.921   6.707  -4.595  0.00  0.00    -0.090 HD
ENDBRANCH  22  28
BRANCH  21  30
ATOM     30  O   UNL     1      11.658   8.121  -2.529  0.00  0.00    -0.391 OA
ATOM     31  H   UNL     1      11.580   9.002  -2.138  0.00  0.00    +0.210 HD
ENDBRANCH  21  30
ENDBRANCH  18  24
ENDBRANCH  17  18
ENDBRANCH   1  17
TORSDOF 5
