REMARK  Name = ZINC09128575
REMARK  7 active torsions:
REMARK  status: ('A' for Active; 'I' for Inactive)
REMARK    1  A    between atoms: C_1  and  C_2
REMARK    2  A    between atoms: N_5  and  N_25
REMARK    3  A    between atoms: C_6  and  S_9
REMARK    4  A    between atoms: S_9  and  C_10
REMARK    5  A    between atoms: C_10  and  C_11
REMARK    6  A    between atoms: N_13  and  C_14
REMARK    7  A    between atoms: C_15  and  C_22
REMARK                            x       y       z     vdW  Elec       q    Type
REMARK                         _______ _______ _______ _____ _____    ______ ____
ROOT
ATOM      1  C   UNL     1      -3.922   1.375   6.925  0.00  0.00    +0.228 C 
ATOM      2  O   UNL     1      -4.174   2.482   7.351  0.00  0.00    -0.275 OA
ATOM      3  N   UNL     1      -4.303   0.284   7.619  0.00  0.00    -0.279 N 
ATOM      4  H   UNL     1      -4.102  -0.602   7.279  0.00  0.00    +0.155 HD
ENDROOT
BRANCH   3   5
ATOM      5  C   UNL     1      -4.983   0.428   8.819  0.00  0.00    +0.084 A 
ATOM      6  C   UNL     1      -5.457  -0.562   9.664  0.00  0.00    +0.068 A 
ATOM      7  C   UNL     1      -6.144  -0.139  10.883  0.00  0.00    -0.023 A 
ATOM      8  C   UNL     1      -6.249   1.192  11.047  0.00  0.00    -0.004 A 
ATOM      9  S   UNL     1      -5.452   1.888   9.621  0.00  0.00    -0.077 S 
ATOM     10  C   UNL     1      -6.969   1.548  12.320  0.00  0.00    +0.043 C 
ATOM     11  C   UNL     1      -6.929   0.255  13.164  0.00  0.00    +0.010 C 
ATOM     12  C   UNL     1      -6.811  -0.828  12.074  0.00  0.00    +0.037 C 
BRANCH   6  13
ATOM     13  C   UNL     1      -5.273  -1.982   9.348  0.00  0.00    +0.244 C 
ATOM     14  O   UNL     1      -4.279  -2.567   9.737  0.00  0.00    -0.270 OA
ATOM     15  N   UNL     1      -6.204  -2.638   8.629  0.00  0.00    -0.325 N 
ATOM     16  H   UNL     1      -6.996  -2.172   8.319  0.00  0.00    +0.145 HD
ATOM     17  H   UNL     1      -6.082  -3.578   8.420  0.00  0.00    +0.145 HD
ENDBRANCH   6  13
ENDBRANCH   3   5
BRANCH   1  18
ATOM     18  C   UNL     1      -3.184   1.218   5.621  0.00  0.00    +0.173 C 
BRANCH  18  19
ATOM     19  S   UNL     1      -2.814   2.853   4.937  0.00  0.00    -0.075 S 
BRANCH  19  25
ATOM     20  C   UNL     1      -0.013   1.086   0.008  0.00  0.00    +0.073 C 
ATOM     21  C   UNL     1      -0.718   1.572   1.248  0.00  0.00    +0.126 A 
ATOM     22  C   UNL     1      -0.862   2.955   1.489  0.00  0.00    +0.293 A 
ATOM     23  O   UNL     1      -0.421   3.777   0.704  0.00  0.00    -0.264 OA
ATOM     24  N   UNL     1      -1.507   3.344   2.613  0.00  0.00    -0.206 N 
ATOM     25  C   UNL     1      -1.975   2.384   3.460  0.00  0.00    +0.210 A 
ATOM     26  N   UNL     1      -1.804   1.102   3.180  0.00  0.00    -0.122 NA
ATOM     27  N   UNL     1      -1.199   0.713   2.116  0.00  0.00    -0.146 NA
BRANCH  24  28
ATOM     28  N   UNL     1      -1.680   4.669   2.896  0.00  0.00    -0.293 N 
ATOM     29  H   UNL     1      -1.278   5.248   2.174  0.00  0.00    +0.163 HD
ATOM     30  H   UNL     1      -2.656   4.885   3.032  0.00  0.00    +0.163 HD
ENDBRANCH  24  28
ENDBRANCH  19  25
ENDBRANCH  18  19
ENDBRANCH   1  18
TORSDOF 6
