REMARK  Name = ZINC35344329
REMARK  7 active torsions:
REMARK  status: ('A' for Active; 'I' for Inactive)
REMARK    1  A    between atoms: C_1  and  C_2
REMARK    2  A    between atoms: N_8  and  C_9
REMARK    3  A    between atoms: C_9  and  C_10
REMARK    4  A    between atoms: C_10  and  C_11
REMARK    5  A    between atoms: C_11  and  N_12
REMARK    6  A    between atoms: N_12  and  C_13
REMARK    7  A    between atoms: C_18  and  N_19
REMARK                            x       y       z     vdW  Elec       q    Type
REMARK                         _______ _______ _______ _____ _____    ______ ____
ROOT
ATOM      1  N   UNL     1       0.983  -0.177   6.069  0.00  0.00    -0.342 N 
ATOM      2  H   UNL     1       1.787  -0.710   5.968  0.00  0.00    +0.146 HD
ENDROOT
BRANCH   1   3
ATOM      3  C   UNL     1       0.562   0.225   7.346  0.00  0.00    +0.050 A 
ATOM      4  C   UNL     1      -0.597   0.985   7.476  0.00  0.00    +0.026 A 
ATOM      5  C   UNL     1      -1.014   1.382   8.733  0.00  0.00    +0.019 A 
ATOM      6  C   UNL     1      -0.281   1.022   9.838  0.00  0.00    +0.041 A 
ATOM      7  C   UNL     1       0.900   0.253   9.749  0.00  0.00    +0.100 A 
ATOM      8  C   UNL     1       1.304  -0.146   8.453  0.00  0.00    +0.073 A 
ATOM      9  N   UNL     1       1.472   0.007  10.946  0.00  0.00    -0.246 NA
ATOM     10  C   UNL     1       0.965   0.447  12.060  0.00  0.00    +0.157 A 
ATOM     11  S   UNL     1      -0.415   1.288  11.587  0.00  0.00    -0.075 S 
BRANCH   8  12
ATOM     12  N   UNL     1       2.463  -0.915   8.289  0.00  0.00    -0.355 N 
ATOM     13  H   UNL     1       2.744  -1.187   7.402  0.00  0.00    +0.142 HD
ATOM     14  H   UNL     1       2.985  -1.177   9.064  0.00  0.00    +0.142 HD
ENDBRANCH   8  12
ENDBRANCH   1   3
BRANCH   1  15
ATOM     15  C   UNL     1       0.207   0.209   4.887  0.00  0.00    +0.100 C 
BRANCH  15  16
ATOM     16  C   UNL     1       0.877  -0.353   3.631  0.00  0.00    +0.000 C 
BRANCH  16  17
ATOM     17  C   UNL     1       0.067   0.050   2.397  0.00  0.00    -0.077 C 
BRANCH  17  24
ATOM     18  C   UNL     1      -0.019   1.526   0.010  0.00  0.00    -0.013 C 
ATOM     19  C   UNL     1       0.002  -0.004   0.002  0.00  0.00    -0.072 C 
ATOM     20  C   UNL     1       0.717  -0.497  -1.258  0.00  0.00    -0.016 C 
ATOM     21  C   UNL     1       0.735  -2.028  -1.262  0.00  0.00    -0.003 C 
ATOM     22  C   UNL     1       1.410  -2.524   0.020  0.00  0.00    -0.019 C 
ATOM     23  C   UNL     1       0.669  -1.956   1.232  0.00  0.00    -0.078 C 
ATOM     24  N   UNL     1       0.711  -0.490   1.192  0.00  0.00    +0.381 N 
ATOM     25  H   UNL     1       1.671  -0.182   1.159  0.00  0.00    -0.081 HD
ENDBRANCH  17  24
ENDBRANCH  16  17
ENDBRANCH  15  16
ENDBRANCH   1  15
TORSDOF 6
