REMARK  Name = ZINC63020589
REMARK  8 active torsions:
REMARK  status: ('A' for Active; 'I' for Inactive)
REMARK    1  A    between atoms: C_1  and  C_2
REMARK    2  A    between atoms: C_5  and  S_9
REMARK    3  A    between atoms: S_9  and  N_12
REMARK    4  A    between atoms: N_12  and  C_13
REMARK    5  A    between atoms: C_13  and  C_14
REMARK    6  A    between atoms: C_13  and  C_15
REMARK    7  A    between atoms: C_13  and  C_16
REMARK    8  A    between atoms: C_16  and  N_17
REMARK                            x       y       z     vdW  Elec       q    Type
REMARK                         _______ _______ _______ _____ _____    ______ ____
ROOT
ATOM      1  S   UNL     1       0.953  -5.008  -0.429  0.00  0.00    +0.060 S 
ATOM      2  O   UNL     1       1.531  -5.695  -1.530  0.00  0.00    -0.153 OA
ATOM      3  O   UNL     1       0.633  -3.624  -0.476  0.00  0.00    -0.153 OA
ENDROOT
BRANCH   1   8
ATOM      4  C   UNL     1      -4.162  -7.912   0.921  0.00  0.00    +0.044 C 
ATOM      5  C   UNL     1      -2.884  -7.188   0.584  0.00  0.00    -0.049 A 
ATOM      6  C   UNL     1      -2.893  -5.816   0.409  0.00  0.00    +0.005 A 
ATOM      7  C   UNL     1      -1.722  -5.151   0.100  0.00  0.00    +0.030 A 
ATOM      8  C   UNL     1      -0.540  -5.856  -0.034  0.00  0.00    +0.119 A 
ATOM      9  C   UNL     1      -0.531  -7.228   0.141  0.00  0.00    +0.044 A 
ATOM     10  C   UNL     1      -1.703  -7.893   0.456  0.00  0.00    +0.020 A 
ATOM     11 BR   UNL     1       1.084  -8.194  -0.043  0.00  0.00    -0.048 Br
ENDBRANCH   1   8
BRANCH   1  12
ATOM     12  N   UNL     1       1.985  -5.212   0.850  0.00  0.00    -0.186 NA
ATOM     13  H   UNL     1       2.798  -5.729   0.740  0.00  0.00    +0.149 HD
BRANCH  12  14
ATOM     14  C   UNL     1       1.669  -4.612   2.149  0.00  0.00    +0.019 C 
ATOM     15  C   UNL     1       1.489  -3.102   1.982  0.00  0.00    +0.027 C 
ATOM     16  C   UNL     1       0.376  -5.223   2.693  0.00  0.00    +0.027 C 
BRANCH  14  17
ATOM     17  C   UNL     1       2.813  -4.884   3.128  0.00  0.00    -0.063 C 
BRANCH  17  18
ATOM     18  N   UNL     1       4.054  -4.297   2.606  0.00  0.00    +0.379 N 
ATOM     19  H   UNL     1       4.272  -4.711   1.711  0.00  0.00    -0.090 HD
ATOM     20  H   UNL     1       3.936  -3.301   2.496  0.00  0.00    -0.090 HD
ATOM     21  H   UNL     1       4.809  -4.477   3.251  0.00  0.00    -0.090 HD
ENDBRANCH  17  18
ENDBRANCH  14  17
ENDBRANCH  12  14
ENDBRANCH   1  12
TORSDOF 5
