REMARK  Name = ZINC14151882
REMARK  11 active torsions:
REMARK  status: ('A' for Active; 'I' for Inactive)
REMARK    1  A    between atoms: C_1  and  C_2
REMARK    2  A    between atoms: C_2  and  O_3
REMARK    3  A    between atoms: O_3  and  C_4
REMARK    4  A    between atoms: N_6  and  C_7
REMARK    5  A    between atoms: C_11  and  C_18
REMARK    6  A    between atoms: C_18  and  O_19
REMARK    7  A    between atoms: O_19  and  C_20
REMARK    8  A    between atoms: C_20  and  C_22
REMARK    9  A    between atoms: C_23  and  N_33
REMARK   10  A    between atoms: C_25  and  C_32
REMARK   11  A    between atoms: C_27  and  C_31
REMARK                            x       y       z     vdW  Elec       q    Type
REMARK                         _______ _______ _______ _____ _____    ______ ____
ROOT
ATOM      1  C   UNL     1       1.082  -8.885  -2.418  0.00  0.00    +0.269 C 
ENDROOT
BRANCH   1   6
ATOM      2  C   UNL     1       0.672  -3.761  -3.058  0.00  0.00    +0.040 A 
ATOM      3  C   UNL     1       0.291  -4.649  -2.052  0.00  0.00    +0.024 A 
ATOM      4  C   UNL     1       0.545  -5.984  -2.177  0.00  0.00    +0.014 A 
ATOM      5  C   UNL     1       1.193  -6.465  -3.321  0.00  0.00    +0.024 A 
ATOM      6  C   UNL     1       1.478  -7.893  -3.481  0.00  0.00    +0.007 A 
ATOM      7  C   UNL     1       2.109  -8.298  -4.614  0.00  0.00    +0.099 A 
ATOM      8  C   UNL     1       2.469  -7.350  -5.593  0.00  0.00    +0.338 A 
ATOM      9  O   UNL     1       3.034  -7.727  -6.605  0.00  0.00    -0.245 OA
ATOM     10  O   UNL     1       2.205  -6.043  -5.440  0.00  0.00    -0.422 OA
ATOM     11  C   UNL     1       1.581  -5.574  -4.339  0.00  0.00    +0.141 A 
ATOM     12  C   UNL     1       1.310  -4.221  -4.199  0.00  0.00    +0.070 A 
BRANCH   2  15
ATOM     13  C   UNL     1       1.334  -1.489  -3.272  0.00  0.00    +0.405 C 
ATOM     14  O   UNL     1       2.408  -1.855  -3.705  0.00  0.00    -0.226 OA
ATOM     15  N   UNL     1       0.405  -2.399  -2.916  0.00  0.00    -0.251 N 
ATOM     16  H   UNL     1      -0.449  -2.107  -2.561  0.00  0.00    +0.158 HD
BRANCH  13  17
ATOM     17  O   UNL     1       1.071  -0.174  -3.148  0.00  0.00    -0.450 OA
BRANCH  17  19
ATOM     18  C   UNL     1       1.622   2.171  -3.333  0.00  0.00    +0.048 C 
ATOM     19  C   UNL     1       2.100   0.734  -3.544  0.00  0.00    +0.230 C 
ENDBRANCH  17  19
ENDBRANCH  13  17
ENDBRANCH   2  15
ENDBRANCH   1   6
BRANCH   1  20
ATOM     20  O   UNL     1       1.474 -10.198  -2.823  0.00  0.00    -0.456 OA
BRANCH  20  21
ATOM     21  C   UNL     1       1.191 -11.210  -1.976  0.00  0.00    +0.348 C 
ATOM     22  O   UNL     1       0.626 -10.983  -0.923  0.00  0.00    -0.244 OA
BRANCH  21  23
ATOM     23  C   UNL     1       1.551 -12.537  -2.314  0.00  0.00    +0.119 A 
ATOM     24  C   UNL     1       1.342 -13.690  -1.588  0.00  0.00    +0.055 A 
ATOM     25  C   UNL     1       1.805 -14.950  -2.147  0.00  0.00    +0.030 A 
ATOM     26  C   UNL     1       1.707 -16.252  -1.595  0.00  0.00    -0.037 A 
ATOM     27  C   UNL     1       2.218 -17.315  -2.301  0.00  0.00    +0.025 A 
ATOM     28  C   UNL     1       2.820 -17.114  -3.535  0.00  0.00    +0.014 A 
ATOM     29  N   UNL     1       2.910 -15.902  -4.045  0.00  0.00    -0.353 N 
ATOM     30  C   UNL     1       2.436 -14.852  -3.408  0.00  0.00    +0.088 A 
ATOM     31  S   UNL     1       2.375 -13.118  -3.783  0.00  0.00    -0.062 S 
ATOM     32  C   UNL     1       3.376 -18.290  -4.296  0.00  0.00    +0.063 C 
ATOM     33  C   UNL     1       1.053 -16.468  -0.255  0.00  0.00    +0.044 C 
ATOM     34  H   UNL     1       3.336 -15.780  -4.908  0.00  0.00    +0.166 HD
BRANCH  24  35
ATOM     35  N   UNL     1       0.707 -13.649  -0.355  0.00  0.00    -0.356 N 
ATOM     36  H   UNL     1       0.806 -12.872   0.216  0.00  0.00    +0.142 HD
ATOM     37  H   UNL     1       0.164 -14.398  -0.065  0.00  0.00    +0.142 HD
ENDBRANCH  24  35
ENDBRANCH  21  23
ENDBRANCH  20  21
ENDBRANCH   1  20
TORSDOF 8
