REMARK  Name = ZINC38984488
REMARK  10 active torsions:
REMARK  status: ('A' for Active; 'I' for Inactive)
REMARK    1  A    between atoms: C_1  and  C_2
REMARK    2  A    between atoms: C_5  and  S_9
REMARK    3  A    between atoms: C_7  and  C_8
REMARK    4  A    between atoms: S_9  and  N_12
REMARK    5  A    between atoms: C_14  and  N_24
REMARK    6  A    between atoms: N_24  and  C_25
REMARK    7  A    between atoms: C_28  and  O_33
REMARK    8  A    between atoms: C_30  and  O_31
REMARK    9  A    between atoms: O_31  and  C_32
REMARK   10  A    between atoms: O_33  and  C_34
REMARK                            x       y       z     vdW  Elec       q    Type
REMARK                         _______ _______ _______ _____ _____    ______ ____
ROOT
ATOM      1  N   UNL     1       1.500  -5.144  -0.236  0.00  0.00    -0.110 NA
ATOM      2  C   UNL     1       1.912  -6.374  -0.142  0.00  0.00    +0.192 C 
ATOM      3  C   UNL     1       3.389  -6.683  -0.043  0.00  0.00    +0.237 C 
ATOM      4  N   UNL     1       3.790  -8.095   0.060  0.00  0.00    -0.359 N 
ATOM      5  C   UNL     1       2.859  -9.008   0.062  0.00  0.00    +0.063 A 
ATOM      6  C   UNL     1       3.208 -10.433   0.164  0.00  0.00    +0.027 A 
ATOM      7  C   UNL     1       2.215 -11.350   0.163  0.00  0.00    +0.002 A 
ATOM      8  C   UNL     1       0.864 -10.976   0.067  0.00  0.00    +0.002 A 
ATOM      9  C   UNL     1       0.468  -9.688  -0.029  0.00  0.00    +0.030 A 
ATOM     10  C   UNL     1       1.425  -8.642  -0.037  0.00  0.00    +0.089 A 
ATOM     11  N   UNL     1       1.032  -7.388  -0.127  0.00  0.00    -0.226 NA
ATOM     12  H   UNL     1       4.726  -8.341   0.126  0.00  0.00    +0.162 HD
ENDROOT
BRANCH   1  13
ATOM     13  S   UNL     1      -0.120  -4.820  -0.336  0.00  0.00    +0.100 S 
ATOM     14  O   UNL     1      -0.690  -5.206   0.907  0.00  0.00    -0.146 OA
ATOM     15  O   UNL     1      -0.565  -5.352  -1.576  0.00  0.00    -0.146 OA
BRANCH  13  20
ATOM     16  C   UNL     1      -0.722   1.172  -0.720  0.00  0.00    +0.044 C 
ATOM     17  C   UNL     1      -0.571  -0.325  -0.624  0.00  0.00    -0.047 A 
ATOM     18  C   UNL     1      -0.441  -1.081  -1.774  0.00  0.00    +0.005 A 
ATOM     19  C   UNL     1      -0.303  -2.454  -1.686  0.00  0.00    +0.029 A 
ATOM     20  C   UNL     1      -0.295  -3.070  -0.448  0.00  0.00    +0.113 A 
ATOM     21  C   UNL     1      -0.424  -2.313   0.701  0.00  0.00    +0.032 A 
ATOM     22  C   UNL     1      -0.558  -0.940   0.613  0.00  0.00    -0.046 A 
ATOM     23  C   UNL     1      -0.693  -0.115   1.867  0.00  0.00    +0.044 C 
ENDBRANCH  13  20
ENDBRANCH   1  13
BRANCH   3  24
ATOM     24  N   UNL     1       4.044  -6.119  -1.226  0.00  0.00    -0.315 N 
ATOM     25  H   UNL     1       3.639  -6.224  -2.101  0.00  0.00    +0.149 HD
BRANCH  24  26
ATOM     26  C   UNL     1       5.256  -5.426  -1.093  0.00  0.00    +0.073 A 
ATOM     27  C   UNL     1       5.900  -5.384   0.135  0.00  0.00    +0.050 A 
ATOM     28  C   UNL     1       7.096  -4.702   0.266  0.00  0.00    +0.084 A 
ATOM     29  C   UNL     1       7.653  -4.058  -0.830  0.00  0.00    +0.142 A 
ATOM     30  C   UNL     1       7.013  -4.098  -2.059  0.00  0.00    +0.094 A 
ATOM     31  C   UNL     1       5.818  -4.786  -2.195  0.00  0.00    +0.144 A 
ATOM     32 CL   UNL     1       7.900  -4.649   1.804  0.00  0.00    -0.080 Cl
BRANCH  31  33
ATOM     33  O   UNL     1       5.191  -4.830  -3.401  0.00  0.00    -0.493 OA
ATOM     34  C   UNL     1       5.824  -4.151  -4.487  0.00  0.00    +0.277 C 
ENDBRANCH  31  33
BRANCH  29  35
ATOM     35  O   UNL     1       8.830  -3.388  -0.699  0.00  0.00    -0.494 OA
ATOM     36  C   UNL     1       9.346  -2.749  -1.868  0.00  0.00    +0.277 C 
ENDBRANCH  29  35
ENDBRANCH  24  26
ENDBRANCH   3  24
TORSDOF 6
