REMARK  Name = ZINC41586508
REMARK  8 active torsions:
REMARK  status: ('A' for Active; 'I' for Inactive)
REMARK    1  A    between atoms: C_1  and  C_2
REMARK    2  A    between atoms: C_2  and  O_3
REMARK    3  A    between atoms: O_3  and  C_4
REMARK    4  A    between atoms: C_4  and  C_6
REMARK    5  A    between atoms: N_11  and  C_13
REMARK    6  A    between atoms: C_13  and  C_14
REMARK    7  A    between atoms: C_15  and  O_32
REMARK    8  A    between atoms: C_22  and  C_23
REMARK                            x       y       z     vdW  Elec       q    Type
REMARK                         _______ _______ _______ _____ _____    ______ ____
ROOT
ATOM      1  C   UNL     1       2.763  -5.976  -5.133  0.00  0.00    +0.020 A 
ATOM      2  C   UNL     1       1.924  -6.245  -6.202  0.00  0.00    +0.122 A 
ATOM      3  C   UNL     1       2.362  -7.029  -7.266  0.00  0.00    +0.046 A 
ATOM      4  C   UNL     1       3.629  -7.543  -7.264  0.00  0.00    +0.019 A 
ATOM      5  C   UNL     1       4.484  -7.280  -6.194  0.00  0.00    +0.068 A 
ATOM      6  C   UNL     1       4.055  -6.486  -5.118  0.00  0.00    +0.144 A 
ATOM      7  O   UNL     1       5.051  -6.368  -4.213  0.00  0.00    -0.451 OA
ATOM      8  C   UNL     1       6.164  -7.035  -4.599  0.00  0.00    +0.176 C 
ATOM      9  C   UNL     1       7.332  -7.111  -3.913  0.00  0.00    +0.058 C 
ATOM     10  C   UNL     1       5.872  -7.674  -5.892  0.00  0.00    +0.231 C 
ATOM     11  O   UNL     1       6.616  -8.362  -6.569  0.00  0.00    -0.283 OA
ENDROOT
BRANCH   9  12
ATOM     12  C   UNL     1       7.426  -6.549  -2.559  0.00  0.00    -0.021 A 
ATOM     13  C   UNL     1       6.276  -6.087  -1.907  0.00  0.00    +0.009 A 
ATOM     14  C   UNL     1       6.373  -5.561  -0.637  0.00  0.00    +0.016 A 
ATOM     15  C   UNL     1       7.604  -5.488  -0.005  0.00  0.00    +0.018 A 
ATOM     16  C   UNL     1       8.746  -5.942  -0.644  0.00  0.00    +0.016 A 
ATOM     17  C   UNL     1       8.665  -6.477  -1.911  0.00  0.00    +0.009 A 
ATOM     18 BR   UNL     1       7.725  -4.764   1.737  0.00  0.00    -0.050 Br
ENDBRANCH   9  12
BRANCH   2  19
ATOM     19  O   UNL     1       0.665  -5.739  -6.213  0.00  0.00    -0.506 OA
ATOM     20  H   UNL     1       0.594  -4.869  -6.628  0.00  0.00    +0.292 HD
ENDBRANCH   2  19
BRANCH   1  21
ATOM     21  C   UNL     1       2.275  -5.126  -3.988  0.00  0.00    -0.036 C 
BRANCH  21  26
ATOM     22  C   UNL     1       2.221  -1.400  -3.540  0.00  0.00    +0.081 C 
ATOM     23  C   UNL     1       3.727  -1.136  -3.623  0.00  0.00    +0.011 C 
ATOM     24  C   UNL     1       4.342  -2.068  -4.671  0.00  0.00    -0.018 C 
ATOM     25  C   UNL     1       4.027  -3.520  -4.302  0.00  0.00    -0.078 C 
ATOM     26  N   UNL     1       2.572  -3.714  -4.265  0.00  0.00    +0.383 N 
ATOM     27  C   UNL     1       1.983  -2.876  -3.214  0.00  0.00    -0.064 C 
ATOM     28  H   UNL     1       2.177  -3.459  -5.158  0.00  0.00    -0.081 HD
BRANCH  22  29
ATOM     29  C   UNL     1       1.618  -0.542  -2.457  0.00  0.00    +0.308 C 
ATOM     30  O   UNL     1       1.055  -1.058  -1.521  0.00  0.00    -0.251 OA
BRANCH  29  31
ATOM     31  O   UNL     1       1.707   0.795  -2.533  0.00  0.00    -0.465 OA
BRANCH  31  33
ATOM     32  C   UNL     1       1.315   3.040  -1.730  0.00  0.00    +0.048 C 
ATOM     33  C   UNL     1       1.114   1.546  -1.472  0.00  0.00    +0.229 C 
ENDBRANCH  31  33
ENDBRANCH  29  31
ENDBRANCH  22  29
ENDBRANCH  21  26
ENDBRANCH   1  21
TORSDOF 7
