REMARK  Name = ZINC44713879
REMARK  7 active torsions:
REMARK  status: ('A' for Active; 'I' for Inactive)
REMARK    1  A    between atoms: C_1  and  C_2
REMARK    2  A    between atoms: C_3  and  C_9
REMARK    3  A    between atoms: C_4  and  C_8
REMARK    4  A    between atoms: C_9  and  C_11
REMARK    5  A    between atoms: C_9  and  N_12
REMARK    6  A    between atoms: C_13  and  C_15
REMARK    7  A    between atoms: C_26  and  C_28
REMARK                            x       y       z     vdW  Elec       q    Type
REMARK                         _______ _______ _______ _____ _____    ______ ____
ROOT
ATOM      1  C   UNL     1       2.115  -0.858  -5.228  0.00  0.00    +0.100 C 
ATOM      2  C   UNL     1       1.698  -2.307  -5.564  0.00  0.00    +0.121 C 
ATOM      3  N   UNL     1       1.306  -2.263  -6.992  0.00  0.00    -0.296 N 
ATOM      4  C   UNL     1       2.297  -1.355  -7.618  0.00  0.00    +0.115 C 
ATOM      5  C   UNL     1       2.511  -0.238  -6.578  0.00  0.00    -0.004 C 
ATOM      6  C   UNL     1       3.975   0.189  -6.554  0.00  0.00    -0.010 C 
ATOM      7  C   UNL     1       4.330   0.856  -7.886  0.00  0.00    -0.082 C 
ATOM      8  N   UNL     1       3.463   2.021  -8.098  0.00  0.00    +0.379 N 
ATOM      9  C   UNL     1       2.064   1.591  -8.213  0.00  0.00    -0.082 C 
ATOM     10  C   UNL     1       1.614   0.955  -6.895  0.00  0.00    -0.010 C 
ATOM     11  C   UNL     1       0.280  -2.902  -7.588  0.00  0.00    +0.248 C 
ATOM     12  O   UNL     1       0.143  -2.840  -8.794  0.00  0.00    -0.270 OA
ATOM     13  H   UNL     1       3.556   2.654  -7.318  0.00  0.00    -0.086 HD
ATOM     14  H   UNL     1       3.739   2.494  -8.946  0.00  0.00    -0.086 HD
ENDROOT
BRANCH  11  15
ATOM     15  C   UNL     1      -0.679  -3.679  -6.774  0.00  0.00    +0.057 A 
ATOM     16  C   UNL     1      -0.238  -4.379  -5.649  0.00  0.00    +0.014 A 
ATOM     17  C   UNL     1      -1.137  -5.103  -4.894  0.00  0.00    +0.002 A 
ATOM     18  C   UNL     1      -2.474  -5.137  -5.248  0.00  0.00    +0.021 A 
ATOM     19  C   UNL     1      -2.920  -4.446  -6.361  0.00  0.00    +0.060 A 
ATOM     20  C   UNL     1      -2.030  -3.712  -7.124  0.00  0.00    +0.071 A 
ATOM     21 CL   UNL     1      -2.591  -2.840  -8.516  0.00  0.00    -0.081 Cl
ATOM     22 CL   UNL     1      -4.599  -4.497  -6.797  0.00  0.00    -0.082 Cl
ENDBRANCH  11  15
BRANCH   1  24
ATOM     23  N   UNL     1       1.186   0.919  -3.780  0.00  0.00    -0.308 N 
ATOM     24  C   UNL     1       0.957  -0.106  -4.624  0.00  0.00    +0.219 C 
ATOM     25  O   UNL     1      -0.181  -0.423  -4.898  0.00  0.00    -0.275 OA
ATOM     26  H   UNL     1       2.096   1.173  -3.560  0.00  0.00    +0.149 HD
BRANCH  23  27
ATOM     27  C   UNL     1       0.060   1.651  -3.193  0.00  0.00    +0.104 C 
ATOM     28  C   UNL     1      -0.426   0.919  -1.940  0.00  0.00    +0.033 C 
BRANCH  27  31
ATOM     29  C   UNL     1      -1.509   4.297  -3.760  0.00  0.00    +0.065 C 
ATOM     30  C   UNL     1      -0.175   4.186  -3.067  0.00  0.00    +0.038 A 
ATOM     31  C   UNL     1       0.504   3.042  -2.821  0.00  0.00    +0.015 A 
ATOM     32  C   UNL     1       1.690   3.379  -2.162  0.00  0.00    +0.065 A 
ATOM     33  N   UNL     1       1.722   4.679  -2.017  0.00  0.00    -0.179 NA
ATOM     34  N   UNL     1       0.558   5.212  -2.585  0.00  0.00    -0.281 N 
ATOM     35  H   UNL     1       0.320   6.151  -2.623  0.00  0.00    +0.189 HD
ATOM     36  C   UNL     1       2.749   2.412  -1.698  0.00  0.00    +0.068 C 
ENDBRANCH  27  31
ENDBRANCH  23  27
ENDBRANCH   1  24
TORSDOF 4
