REMARK  Name = ZINC64886244
REMARK  9 active torsions:
REMARK  status: ('A' for Active; 'I' for Inactive)
REMARK    1  A    between atoms: C_1  and  C_2
REMARK    2  A    between atoms: C_6  and  N_8
REMARK    3  A    between atoms: C_9  and  C_28
REMARK    4  A    between atoms: C_10  and  C_13
REMARK    5  A    between atoms: N_15  and  N_16
REMARK    6  A    between atoms: N_19  and  C_20
REMARK    7  A    between atoms: C_20  and  C_21
REMARK    8  A    between atoms: C_21  and  C_22
REMARK    9  A    between atoms: C_22  and  N_23
REMARK                            x       y       z     vdW  Elec       q    Type
REMARK                         _______ _______ _______ _____ _____    ______ ____
ROOT
ATOM      1  C   UNL     1      -0.761  -5.548   4.619  0.00  0.00    +0.263 C 
ATOM      2  O   UNL     1      -1.442  -6.360   4.023  0.00  0.00    -0.269 OA
ATOM      3  N   UNL     1      -0.430  -5.762   5.908  0.00  0.00    -0.229 N 
ATOM      4  H   UNL     1       0.114  -5.115   6.383  0.00  0.00    +0.173 HD
ENDROOT
BRANCH   1   7
ATOM      5  N   UNL     1       0.050  -2.798   2.395  0.00  0.00    -0.236 N 
ATOM      6  C   UNL     1      -0.555  -3.978   2.621  0.00  0.00    +0.054 A 
ATOM      7  C   UNL     1      -0.296  -4.329   3.931  0.00  0.00    +0.079 A 
ATOM      8  C   UNL     1       0.498  -3.302   4.490  0.00  0.00    +0.148 A 
ATOM      9  N   UNL     1       0.702  -2.402   3.568  0.00  0.00    -0.174 NA
ATOM     10  C   UNL     1      -1.366  -4.771   1.629  0.00  0.00    +0.066 C 
BRANCH   5  16
ATOM     11  C   UNL     1      -0.018   1.503   0.010  0.00  0.00    +0.044 C 
ATOM     12  C   UNL     1       0.002  -0.004   0.002  0.00  0.00    -0.048 A 
ATOM     13  C   UNL     1       0.006  -0.688  -1.200  0.00  0.00    +0.003 A 
ATOM     14  C   UNL     1       0.024  -2.071  -1.212  0.00  0.00    +0.002 A 
ATOM     15  C   UNL     1       0.039  -2.773  -0.022  0.00  0.00    +0.028 A 
ATOM     16  C   UNL     1       0.035  -2.089   1.186  0.00  0.00    +0.066 A 
ATOM     17  C   UNL     1       0.023  -0.700   1.194  0.00  0.00    +0.031 A 
ENDBRANCH   5  16
ENDBRANCH   1   7
BRANCH   3  18
ATOM     18  N   UNL     1      -0.872  -6.920   6.561  0.00  0.00    -0.218 N 
ATOM     19  C   UNL     1      -0.541  -7.134   7.850  0.00  0.00    +0.316 C 
ATOM     20  O   UNL     1      -0.924  -8.139   8.417  0.00  0.00    -0.251 OA
ATOM     21  N   UNL     1       0.214  -6.235   8.510  0.00  0.00    -0.298 N 
ATOM     22  H   UNL     1      -1.416  -7.568   6.086  0.00  0.00    +0.174 HD
ATOM     23  H   UNL     1       0.520  -5.433   8.058  0.00  0.00    +0.150 HD
BRANCH  21  24
ATOM     24  C   UNL     1       0.574  -6.468   9.911  0.00  0.00    +0.107 C 
BRANCH  24  25
ATOM     25  C   UNL     1       1.429  -5.304  10.419  0.00  0.00    +0.040 C 
BRANCH  25  26
ATOM     26  C   UNL     1       1.804  -5.548  11.882  0.00  0.00    +0.124 C 
BRANCH  26  27
ATOM     27  N   UNL     1       2.622  -4.434  12.368  0.00  0.00    -0.338 N 
ATOM     28  C   UNL     1       3.987  -4.343  12.310  0.00  0.00    +0.104 A 
ATOM     29  C   UNL     1       4.322  -3.162  12.864  0.00  0.00    +0.101 A 
ATOM     30  N   UNL     1       3.193  -2.549  13.250  0.00  0.00    -0.352 N 
ATOM     31  C   UNL     1       2.171  -3.303  12.951  0.00  0.00    +0.173 A 
ATOM     32  H   UNL     1       3.145  -1.681  13.679  0.00  0.00    +0.166 HD
ENDBRANCH  26  27
ENDBRANCH  25  26
ENDBRANCH  24  25
ENDBRANCH  21  24
ENDBRANCH   3  18
TORSDOF 7
