REMARK  Name = ZINC31170014
REMARK  16 active torsions:
REMARK  status: ('A' for Active; 'I' for Inactive)
REMARK    1  A    between atoms: C_3  and  O_38
REMARK    2  A    between atoms: C_6  and  C_7
REMARK    3  A    between atoms: C_7  and  C_8
REMARK    4  A    between atoms: C_8  and  C_9
REMARK    5  A    between atoms: C_9  and  C_11
REMARK    6  A    between atoms: C_11  and  C_12
REMARK    7  A    between atoms: C_12  and  C_14
REMARK    8  A    between atoms: C_12  and  O_24
REMARK    9  A    between atoms: C_14  and  C_15
REMARK   10  A    between atoms: C_15  and  C_16
REMARK   11  A    between atoms: C_19  and  O_23
REMARK   12  A    between atoms: C_20  and  O_22
REMARK   13  A    between atoms: O_24  and  C_25
REMARK   14  A    between atoms: C_27  and  O_37
REMARK   15  A    between atoms: C_29  and  O_36
REMARK   16  A    between atoms: C_31  and  O_35
REMARK                            x       y       z     vdW  Elec       q    Type
REMARK                         _______ _______ _______ _____ _____    ______ ____
ROOT
ATOM      1  C   UNL     1      -1.378  -6.330  -0.024  0.00  0.00    +0.129 C 
ENDROOT
BRANCH   1   2
ATOM      2  C   UNL     1      -1.286  -4.822   0.219  0.00  0.00    +0.037 C 
BRANCH   2   3
ATOM      3  C   UNL     1       0.183  -4.397   0.239  0.00  0.00    +0.038 C 
BRANCH   3   4
ATOM      4  C   UNL     1       0.273  -2.912   0.478  0.00  0.00    -0.044 A 
ATOM      5  C   UNL     1       0.276  -2.040  -0.594  0.00  0.00    +0.007 A 
ATOM      6  C   UNL     1       0.352  -0.676  -0.380  0.00  0.00    +0.049 A 
ATOM      7  C   UNL     1       0.438  -0.182   0.912  0.00  0.00    +0.158 A 
ATOM      8  C   UNL     1       0.436  -1.060   1.991  0.00  0.00    +0.158 A 
ATOM      9  C   UNL     1       0.353  -2.425   1.770  0.00  0.00    +0.052 A 
BRANCH   7  10
ATOM     10  O   UNL     1       0.520   1.159   1.124  0.00  0.00    -0.503 OA
ATOM     11  H   UNL     1       0.588   1.550   2.150  0.00  0.00    +0.292 HD
ENDBRANCH   7  10
BRANCH   8  12
ATOM     12  O   UNL     1       0.516  -0.579   3.261  0.00  0.00    -0.503 OA
ATOM     13  H   UNL     1       0.514  -1.274   4.114  0.00  0.00    +0.292 HD
ENDBRANCH   8  12
ENDBRANCH   3   4
ENDBRANCH   2   3
ENDBRANCH   1   2
BRANCH   1  14
ATOM     14  O   UNL     1      -0.878  -6.634  -1.328  0.00  0.00    -0.345 OA
BRANCH  14  15
ATOM     15  C   UNL     1      -0.319  -7.944  -1.446  0.00  0.00    +0.282 C 
ATOM     16  C   UNL     1      -0.064  -8.259  -2.922  0.00  0.00    +0.201 C 
ATOM     17  C   UNL     1       0.590  -9.640  -3.035  0.00  0.00    +0.178 C 
ATOM     18  C   UNL     1       1.879  -9.652  -2.207  0.00  0.00    +0.171 C 
ATOM     19  C   UNL     1       1.549  -9.282  -0.758  0.00  0.00    +0.197 C 
ATOM     20  O   UNL     1       0.915  -8.002  -0.727  0.00  0.00    -0.346 OA
BRANCH  16  21
ATOM     21  O   UNL     1      -1.304  -8.258  -3.632  0.00  0.00    -0.384 OA
ATOM     22  H   UNL     1      -1.320  -8.466  -4.712  0.00  0.00    +0.210 HD
ENDBRANCH  16  21
BRANCH  17  23
ATOM     23  O   UNL     1       0.897  -9.913  -4.404  0.00  0.00    -0.386 OA
ATOM     24  H   UNL     1       1.374 -10.864  -4.682  0.00  0.00    +0.210 HD
ENDBRANCH  17  23
BRANCH  18  25
ATOM     25  O   UNL     1       2.460 -10.957  -2.247  0.00  0.00    -0.387 OA
ATOM     26  H   UNL     1       3.397 -11.158  -1.706  0.00  0.00    +0.210 HD
ENDBRANCH  18  25
ENDBRANCH  14  15
ENDBRANCH   1  14
BRANCH   1  27
ATOM     27  C   UNL     1      -2.838  -6.776   0.079  0.00  0.00    +0.106 C 
BRANCH  27  28
ATOM     28  C   UNL     1      -3.647  -6.098  -0.996  0.00  0.00    +0.136 C 
ATOM     29  O   UNL     1      -3.096  -5.418  -1.829  0.00  0.00    -0.297 OA
BRANCH  28  30
ATOM     30  C   UNL     1      -5.144  -6.268  -1.033  0.00  0.00    +0.079 C 
BRANCH  30  31
ATOM     31  C   UNL     1      -5.718  -5.482  -2.214  0.00  0.00    +0.042 C 
BRANCH  31  37
ATOM     32  C   UNL     1      -7.774  -6.689  -2.975  0.00  0.00    +0.007 A 
ATOM     33  C   UNL     1      -9.145  -6.851  -3.006  0.00  0.00    +0.045 A 
ATOM     34  C   UNL     1      -9.962  -5.965  -2.319  0.00  0.00    +0.117 A 
ATOM     35  C   UNL     1      -9.399  -4.922  -1.598  0.00  0.00    +0.045 A 
ATOM     36  C   UNL     1      -8.027  -4.768  -1.565  0.00  0.00    +0.007 A 
ATOM     37  C   UNL     1      -7.215  -5.652  -2.251  0.00  0.00    -0.047 A 
BRANCH  34  38
ATOM     38  O   UNL     1     -11.312  -6.118  -2.353  0.00  0.00    -0.507 OA
ATOM     39  H   UNL     1     -11.960  -5.414  -1.808  0.00  0.00    +0.292 HD
ENDBRANCH  34  38
ENDBRANCH  31  37
ENDBRANCH  30  31
ENDBRANCH  28  30
ENDBRANCH  27  28
ENDBRANCH   1  27
TORSDOF 16
