REMARK  Name = ZINC20259500
REMARK  9 active torsions:
REMARK  status: ('A' for Active; 'I' for Inactive)
REMARK    1  A    between atoms: C_1  and  O_2
REMARK    2  A    between atoms: O_2  and  C_3
REMARK    3  A    between atoms: C_13  and  C_18
REMARK    4  A    between atoms: C_21  and  O_40
REMARK    5  A    between atoms: C_22  and  C_24
REMARK    6  A    between atoms: C_24  and  N_25
REMARK    7  A    between atoms: N_28  and  C_31
REMARK    8  A    between atoms: C_34  and  N_37
REMARK    9  A    between atoms: O_40  and  C_41
REMARK                            x       y       z     vdW  Elec       q    Type
REMARK                         _______ _______ _______ _____ _____    ______ ____
ROOT
ATOM      1  C   UNL     1      -1.003   5.630   1.677  0.00  0.00    -0.024 A 
ATOM      2  C   UNL     1      -0.367   5.117   0.561  0.00  0.00    +0.009 A 
ATOM      3  C   UNL     1      -0.253   3.751   0.396  0.00  0.00    +0.046 A 
ATOM      4  C   UNL     1      -0.787   2.892   1.346  0.00  0.00    +0.121 A 
ATOM      5  C   UNL     1      -1.425   3.409   2.465  0.00  0.00    -0.022 A 
ATOM      6  C   UNL     1      -1.531   4.776   2.627  0.00  0.00    +0.011 A 
ENDROOT
BRANCH   1  17
ATOM      7  C   UNL     1       4.032   9.877   3.453  0.00  0.00    +0.121 A 
ATOM      8  C   UNL     1       4.123   8.817   4.347  0.00  0.00    +0.047 A 
ATOM      9  C   UNL     1       3.158   7.829   4.419  0.00  0.00    +0.030 A 
ATOM     10  C   UNL     1       2.074   7.934   3.550  0.00  0.00    +0.047 A 
ATOM     11  C   UNL     1       1.978   9.015   2.636  0.00  0.00    +0.007 A 
ATOM     12  C   UNL     1       2.963  10.006   2.577  0.00  0.00    +0.056 A 
ATOM     13  C   UNL     1       0.748   8.809   1.904  0.00  0.00    -0.016 A 
ATOM     14  C   UNL     1       0.183   7.673   2.384  0.00  0.00    +0.042 A 
ATOM     15  N   UNL     1       0.971   7.145   3.366  0.00  0.00    -0.356 N 
ATOM     16  H   UNL     1       0.836   6.239   3.974  0.00  0.00    +0.166 HD
ATOM     17  C   UNL     1      -1.120   7.122   1.857  0.00  0.00    +0.131 C 
ATOM     18  N   UNL     1      -1.409   7.755   0.560  0.00  0.00    -0.304 NA
ATOM     19  C   UNL     1      -1.330   9.220   0.650  0.00  0.00    +0.086 C 
ATOM     20  C   UNL     1       0.136   9.644   0.808  0.00  0.00    +0.052 C 
ATOM     21  H   UNL     1      -0.679   7.411  -0.187  0.00  0.00    +0.123 HD
BRANCH   7  23
ATOM     22  C   UNL     1       6.096  10.638   4.356  0.00  0.00    +0.277 C 
ATOM     23  O   UNL     1       5.017  10.815   3.435  0.00  0.00    -0.495 OA
ENDBRANCH   7  23
ENDBRANCH   1  17
BRANCH   4  24
ATOM     24  O   UNL     1      -0.682   1.547   1.184  0.00  0.00    -0.495 OA
ATOM     25  C   UNL     1      -0.013   1.086   0.008  0.00  0.00    +0.277 C 
ENDBRANCH   4  24
BRANCH   5  26
ATOM     26  C   UNL     1      -2.001   2.479   3.501  0.00  0.00    -0.039 C 
BRANCH  26  27
ATOM     27  N   UNL     1      -3.242   1.883   2.989  0.00  0.00    +0.384 N 
ATOM     28  C   UNL     1      -4.286   2.903   2.820  0.00  0.00    -0.059 C 
ATOM     29  C   UNL     1      -5.533   2.258   2.211  0.00  0.00    +0.086 C 
ATOM     30  N   UNL     1      -5.997   1.173   3.087  0.00  0.00    -0.333 N 
ATOM     31  C   UNL     1      -4.953   0.153   3.256  0.00  0.00    +0.086 C 
ATOM     32  C   UNL     1      -3.706   0.798   3.865  0.00  0.00    -0.059 C 
ATOM     33  H   UNL     1      -3.025   1.452   2.000  0.00  0.00    -0.081 HD
BRANCH  30  34
ATOM     34  C   UNL     1      -7.177   0.607   2.600  0.00  0.00    +0.030 A 
ATOM     35  C   UNL     1      -7.239  -0.756   2.338  0.00  0.00    +0.025 A 
ATOM     36  C   UNL     1      -8.409  -1.314   1.862  0.00  0.00    +0.034 A 
ATOM     37  C   UNL     1      -9.515  -0.516   1.635  0.00  0.00    +0.126 A 
ATOM     38  C   UNL     1      -9.455   0.842   1.889  0.00  0.00    +0.034 A 
ATOM     39  C   UNL     1      -8.290   1.405   2.370  0.00  0.00    +0.025 A 
BRANCH  37  40
ATOM     40  N   UNL     1     -10.765  -1.117   1.119  0.00  0.00    +0.056 N 
ATOM     41  O   UNL     1     -11.740  -0.415   0.918  0.00  0.00    -0.126 OA
ATOM     42  O   UNL     1     -10.819  -2.313   0.894  0.00  0.00    -0.126 OA
ENDBRANCH  37  40
ENDBRANCH  30  34
ENDBRANCH  26  27
ENDBRANCH   5  26
TORSDOF 7
