REMARK  Name = ZINC12198160
REMARK  10 active torsions:
REMARK  status: ('A' for Active; 'I' for Inactive)
REMARK    1  A    between atoms: C_1  and  C_2
REMARK    2  A    between atoms: C_2  and  C_3
REMARK    3  A    between atoms: C_2  and  N_4
REMARK    4  A    between atoms: C_5  and  C_7
REMARK    5  A    between atoms: N_9  and  C_30
REMARK    6  A    between atoms: C_11  and  C_14
REMARK    7  A    between atoms: C_21  and  C_22
REMARK    8  A    between atoms: C_21  and  N_71
REMARK    9  A    between atoms: C_23  and  C_24
REMARK   10  A    between atoms: C_30  and  C_31
REMARK                            x       y       z     vdW  Elec       q    Type
REMARK                         _______ _______ _______ _____ _____    ______ ____
ROOT
ATOM      1  C   UNL     1      -1.272   2.004  -0.163  0.00  0.00    +0.100 A 
ATOM      2  C   UNL     1      -1.212   3.368   0.022  0.00  0.00    +0.103 A 
ATOM      3  N   UNL     1      -0.038   4.003   0.173  0.00  0.00    -0.347 N 
ATOM      4  C   UNL     1       1.149   3.373   0.163  0.00  0.00    +0.103 A 
ATOM      5  C   UNL     1       1.236   2.009  -0.006  0.00  0.00    +0.100 A 
ATOM      6  C   UNL     1      -0.011   1.245  -0.178  0.00  0.00    +0.206 A 
ATOM      7  O   UNL     1       0.002   0.035  -0.333  0.00  0.00    -0.286 OA
ENDROOT
BRANCH   5   8
ATOM      8  C   UNL     1       2.544   1.332  -0.015  0.00  0.00    +0.252 C 
ATOM      9  O   UNL     1       2.800   0.515  -0.878  0.00  0.00    -0.270 OA
ATOM     10  N   UNL     1       3.457   1.618   0.935  0.00  0.00    -0.301 N 
ATOM     11  C   UNL     1       3.128   2.514   2.053  0.00  0.00    +0.089 C 
ATOM     12  C   UNL     1       3.508   1.809   3.365  0.00  0.00    -0.059 C 
ATOM     13  C   UNL     1       5.127   0.403   2.231  0.00  0.00    -0.059 C 
ATOM     14  C   UNL     1       4.811   1.046   0.876  0.00  0.00    +0.089 C 
ATOM     15  N   UNL     1       4.931   1.413   3.293  0.00  0.00    +0.384 N 
ATOM     16  H   UNL     1       5.496   2.242   3.073  0.00  0.00    -0.081 HD
BRANCH  15  17
ATOM     17  C   UNL     1       5.369   0.868   4.595  0.00  0.00    -0.051 C 
BRANCH  17  18
ATOM     18  C   UNL     1       4.916   1.793   5.695  0.00  0.00    -0.045 C 
ATOM     19  C   UNL     1       4.205   1.320   6.709  0.00  0.00    +0.002 C 
BRANCH  19  20
ATOM     20  C   UNL     1       3.761   2.227   7.788  0.00  0.00    -0.025 A 
ATOM     21  C   UNL     1       4.095   3.581   7.746  0.00  0.00    +0.008 A 
ATOM     22  C   UNL     1       3.672   4.424   8.753  0.00  0.00    +0.001 A 
ATOM     23  C   UNL     1       2.930   3.927   9.810  0.00  0.00    +0.000 A 
ATOM     24  C   UNL     1       2.601   2.584   9.860  0.00  0.00    +0.001 A 
ATOM     25  C   UNL     1       3.012   1.732   8.856  0.00  0.00    +0.008 A 
ENDBRANCH  19  20
ENDBRANCH  17  18
ENDBRANCH  15  17
ENDBRANCH   5   8
BRANCH   1  27
ATOM     26  N   UNL     1      -3.711   2.033  -0.317  0.00  0.00    -0.309 N 
ATOM     27  C   UNL     1      -2.566   1.321  -0.334  0.00  0.00    +0.249 C 
ATOM     28  O   UNL     1      -2.602   0.116  -0.491  0.00  0.00    -0.270 OA
ATOM     29  H   UNL     1      -3.682   2.994  -0.192  0.00  0.00    +0.149 HD
BRANCH  26  31
ATOM     30  C   UNL     1      -5.479   0.825   0.865  0.00  0.00    +0.027 C 
ATOM     31  C   UNL     1      -4.998   1.354  -0.487  0.00  0.00    +0.067 C 
ATOM     32  C   UNL     1      -6.026   2.342  -1.043  0.00  0.00    +0.027 C 
ENDBRANCH  26  31
ENDBRANCH   1  27
BRANCH   3  33
ATOM     33  C   UNL     1      -0.052   5.456   0.358  0.00  0.00    +0.156 C 
BRANCH  33  34
ATOM     34  C   UNL     1       0.027   6.134  -0.986  0.00  0.00    -0.028 A 
ATOM     35  C   UNL     1       1.258   6.453  -1.528  0.00  0.00    +0.005 A 
ATOM     36  C   UNL     1       1.331   7.071  -2.762  0.00  0.00    +0.000 A 
ATOM     37  C   UNL     1       0.172   7.379  -3.450  0.00  0.00    +0.000 A 
ATOM     38  C   UNL     1      -1.060   7.065  -2.906  0.00  0.00    +0.000 A 
ATOM     39  C   UNL     1      -1.132   6.443  -1.674  0.00  0.00    +0.005 A 
ENDBRANCH  33  34
ENDBRANCH   3  33
TORSDOF 8
