REMARK  Name = ZINC44549900
REMARK  9 active torsions:
REMARK  status: ('A' for Active; 'I' for Inactive)
REMARK    1  A    between atoms: C_4  and  C_7
REMARK    2  A    between atoms: C_7  and  C_8
REMARK    3  A    between atoms: C_11  and  S_14
REMARK    4  A    between atoms: S_14  and  C_15
REMARK    5  A    between atoms: C_15  and  C_16
REMARK    6  A    between atoms: C_16  and  C_18
REMARK    7  A    between atoms: C_16  and  O_26
REMARK    8  A    between atoms: C_18  and  N_19
REMARK    9  A    between atoms: N_19  and  C_20
REMARK                            x       y       z     vdW  Elec       q    Type
REMARK                         _______ _______ _______ _____ _____    ______ ____
ROOT
ATOM      1  S   UNL     1       4.306  -3.120   4.595  0.00  0.00    -0.084 S 
ENDROOT
BRANCH   1   5
ATOM      2  C   UNL     1       4.164  -0.959   1.377  0.00  0.00    +0.156 A 
ATOM      3  N   UNL     1       3.866  -2.037   2.104  0.00  0.00    -0.205 NA
ATOM      4  H   UNL     1       5.605  -0.419   4.086  0.00  0.00    +0.191 HD
ATOM      5  C   UNL     1       4.422  -1.938   3.293  0.00  0.00    +0.184 A 
ATOM      6  N   UNL     1       5.096  -0.768   3.338  0.00  0.00    -0.254 N 
ATOM      7  N   UNL     1       4.916  -0.160   2.085  0.00  0.00    -0.156 NA
BRANCH   2   8
ATOM      8  C   UNL     1       3.711  -0.707  -0.038  0.00  0.00    +0.113 C 
BRANCH   8  12
ATOM      9  C   UNL     1      -0.017   1.378   0.010  0.00  0.00    +0.000 A 
ATOM     10  C   UNL     1       1.171   2.086   0.002  0.00  0.00    +0.000 A 
ATOM     11  C   UNL     1       2.377   1.411  -0.013  0.00  0.00    +0.004 A 
ATOM     12  C   UNL     1       2.396   0.029  -0.020  0.00  0.00    -0.040 A 
ATOM     13  C   UNL     1       1.208  -0.679  -0.012  0.00  0.00    +0.004 A 
ATOM     14  C   UNL     1       0.002  -0.004   0.002  0.00  0.00    +0.000 A 
ENDBRANCH   8  12
ENDBRANCH   2   8
ENDBRANCH   1   5
BRANCH   1  15
ATOM     15  C   UNL     1       3.274  -4.439   3.899  0.00  0.00    +0.106 C 
BRANCH  15  16
ATOM     16  C   UNL     1       3.091  -5.546   4.940  0.00  0.00    +0.108 C 
BRANCH  16  17
ATOM     17  O   UNL     1       4.368  -6.078   5.298  0.00  0.00    -0.393 OA
ATOM     18  H   UNL     1       4.856  -6.462   4.557  0.00  0.00    +0.210 HD
ENDBRANCH  16  17
BRANCH  16  19
ATOM     19  C   UNL     1       2.220  -6.659   4.353  0.00  0.00    -0.050 C 
BRANCH  19  20
ATOM     20  N   UNL     1       1.945  -7.663   5.389  0.00  0.00    +0.383 N 
ATOM     21  H   UNL     1       2.815  -8.054   5.717  0.00  0.00    -0.085 HD
ATOM     22  H   UNL     1       1.460  -7.228   6.159  0.00  0.00    -0.085 HD
BRANCH  20  23
ATOM     23  C   UNL     1       1.110  -8.732   4.825  0.00  0.00    -0.072 C 
ATOM     24  C   UNL     1      -0.257  -8.161   4.441  0.00  0.00    -0.016 C 
ATOM     25  C   UNL     1      -1.128  -9.274   3.854  0.00  0.00    -0.002 C 
ATOM     26  C   UNL     1      -1.311 -10.381   4.895  0.00  0.00    -0.000 C 
ATOM     27  C   UNL     1       0.056 -10.951   5.279  0.00  0.00    -0.002 C 
ATOM     28  C   UNL     1       0.926  -9.838   5.866  0.00  0.00    -0.016 C 
ENDBRANCH  20  23
ENDBRANCH  19  20
ENDBRANCH  16  19
ENDBRANCH  15  16
ENDBRANCH   1  15
TORSDOF 9
