REMARK  Name = ZINC44942855
REMARK  6 active torsions:
REMARK  status: ('A' for Active; 'I' for Inactive)
REMARK    1  A    between atoms: C_4  and  C_7
REMARK    2  A    between atoms: C_7  and  O_8
REMARK    3  A    between atoms: O_8  and  C_9
REMARK    4  A    between atoms: C_15  and  N_17
REMARK    5  A    between atoms: C_18  and  C_20
REMARK    6  A    between atoms: C_26  and  C_28
REMARK                            x       y       z     vdW  Elec       q    Type
REMARK                         _______ _______ _______ _____ _____    ______ ____
ROOT
ATOM      1  C   UNL     1       6.676   2.718   3.732  0.00  0.00    +0.087 C 
ATOM      2  C   UNL     1       7.986   3.004   2.994  0.00  0.00    +0.013 C 
ATOM      3  C   UNL     1       9.071   2.046   3.491  0.00  0.00    +0.001 C 
ATOM      4  C   UNL     1       9.278   2.246   4.993  0.00  0.00    +0.001 C 
ATOM      5  C   UNL     1       7.968   1.960   5.731  0.00  0.00    +0.013 C 
ATOM      6  C   UNL     1       6.883   2.917   5.234  0.00  0.00    +0.087 C 
ENDROOT
BRANCH   6   7
ATOM      7  C   UNL     1       5.594   2.636   5.961  0.00  0.00    +0.219 C 
ATOM      8  O   UNL     1       5.413   1.554   6.478  0.00  0.00    -0.275 OA
ATOM      9  N   UNL     1       4.641   3.586   6.036  0.00  0.00    -0.298 N 
ATOM     10  C   UNL     1       4.797   4.860   5.320  0.00  0.00    +0.126 C 
ATOM     11  C   UNL     1       3.573   5.069   4.420  0.00  0.00    +0.125 C 
ATOM     12  N   UNL     1       2.359   4.850   5.219  0.00  0.00    -0.314 N 
ATOM     13  C   UNL     1       2.203   3.576   5.935  0.00  0.00    +0.125 C 
ATOM     14  C   UNL     1       3.425   3.365   6.831  0.00  0.00    +0.126 C 
ATOM     15  C   UNL     1       1.377   5.830   5.296  0.00  0.00    +0.099 A 
ATOM     16  C   UNL     1       1.476   6.970   4.505  0.00  0.00    +0.042 A 
ATOM     17  C   UNL     1       0.492   7.937   4.592  0.00  0.00    +0.005 A 
ATOM     18  C   UNL     1      -0.563   7.732   5.471  0.00  0.00    +0.018 A 
ATOM     19  C   UNL     1      -0.598   6.578   6.227  0.00  0.00    +0.084 A 
ATOM     20  N   UNL     1       0.352   5.669   6.119  0.00  0.00    -0.350 N 
ATOM     21  H   UNL     1       0.302   4.865   6.659  0.00  0.00    +0.166 HD
ENDBRANCH   6   7
BRANCH   1  23
ATOM     22  N   UNL     1       6.010   0.889   2.205  0.00  0.00    -0.310 N 
ATOM     23  C   UNL     1       6.251   1.297   3.467  0.00  0.00    +0.217 C 
ATOM     24  O   UNL     1       6.126   0.520   4.390  0.00  0.00    -0.275 OA
ATOM     25  H   UNL     1       6.110   1.511   1.467  0.00  0.00    +0.149 HD
BRANCH  22  31
ATOM     26  C   UNL     1       4.811  -0.554   0.637  0.00  0.00    +0.139 C 
ATOM     27  C   UNL     1       4.379  -1.997   0.368  0.00  0.00    +0.033 C 
ATOM     28  C   UNL     1       5.618  -2.889   0.264  0.00  0.00    +0.003 C 
ATOM     29  C   UNL     1       6.403  -2.828   1.575  0.00  0.00    +0.002 C 
ATOM     30  C   UNL     1       6.835  -1.385   1.844  0.00  0.00    +0.025 C 
ATOM     31  C   UNL     1       5.596  -0.493   1.948  0.00  0.00    +0.102 C 
BRANCH  26  32
ATOM     32  O   UNL     1       3.654   0.279   0.735  0.00  0.00    -0.370 OA
BRANCH  32  33
ATOM     33  C   UNL     1       3.235   0.841  -0.510  0.00  0.00    +0.195 C 
BRANCH  33  37
ATOM     34  C   UNL     1      -0.226   3.266   0.111  0.00  0.00    +0.000 A 
ATOM     35  C   UNL     1       1.035   3.824   0.205  0.00  0.00    +0.000 A 
ATOM     36  C   UNL     1       2.155   3.039   0.004  0.00  0.00    +0.006 A 
ATOM     37  C   UNL     1       2.014   1.696  -0.290  0.00  0.00    -0.022 A 
ATOM     38  C   UNL     1       0.753   1.138  -0.384  0.00  0.00    +0.006 A 
ATOM     39  C   UNL     1      -0.367   1.923  -0.184  0.00  0.00    +0.000 A 
ENDBRANCH  33  37
ENDBRANCH  32  33
ENDBRANCH  26  32
ENDBRANCH  22  31
ENDBRANCH   1  23
TORSDOF 6
