REMARK  Name = ZINC35266497
REMARK  8 active torsions:
REMARK  status: ('A' for Active; 'I' for Inactive)
REMARK    1  A    between atoms: C_1  and  C_2
REMARK    2  A    between atoms: C_2  and  C_3
REMARK    3  A    between atoms: C_3  and  C_5
REMARK    4  A    between atoms: C_3  and  C_6
REMARK    5  A    between atoms: C_6  and  C_8
REMARK    6  A    between atoms: C_6  and  N_23
REMARK    7  A    between atoms: C_14  and  C_16
REMARK    8  A    between atoms: C_19  and  C_22
REMARK                            x       y       z     vdW  Elec       q    Type
REMARK                         _______ _______ _______ _____ _____    ______ ____
ROOT
ATOM      1  C   UNL     1      -2.829  -2.579  -0.111  0.00  0.00    +0.204 C 
ATOM      2  O   UNL     1      -3.377  -2.869  -1.153  0.00  0.00    -0.277 OA
ATOM      3  N   UNL     1      -3.486  -2.723   1.058  0.00  0.00    -0.265 N 
ATOM      4  C   UNL     1      -4.789  -3.204   1.068  0.00  0.00    +0.188 A 
ATOM      5  N   UNL     1      -5.546  -3.576   0.052  0.00  0.00    -0.125 NA
ATOM      6  N   UNL     1      -6.726  -3.998   0.216  0.00  0.00    -0.140 NA
ATOM      7  C   UNL     1      -7.215  -4.068   1.448  0.00  0.00    +0.134 A 
ATOM      8  S   UNL     1      -5.812  -3.472   2.381  0.00  0.00    -0.030 S 
ATOM      9  H   UNL     1      -3.048  -2.491   1.892  0.00  0.00    +0.157 HD
ENDROOT
BRANCH   7  10
ATOM     10  C   UNL     1      -8.543  -4.518   1.916  0.00  0.00    +0.009 A 
ATOM     11  C   UNL     1      -8.849  -4.501   3.277  0.00  0.00    +0.011 A 
ATOM     12  C   UNL     1     -10.090  -4.922   3.708  0.00  0.00    +0.004 A 
ATOM     13  C   UNL     1     -11.031  -5.360   2.792  0.00  0.00    -0.050 A 
ATOM     14  C   UNL     1     -10.735  -5.379   1.441  0.00  0.00    +0.004 A 
ATOM     15  C   UNL     1      -9.499  -4.955   0.997  0.00  0.00    +0.011 A 
ATOM     16  C   UNL     1     -12.385  -5.818   3.270  0.00  0.00    +0.044 C 
ENDBRANCH   7  10
BRANCH   1  17
ATOM     17  C   UNL     1      -1.416  -2.058  -0.121  0.00  0.00    +0.016 C 
BRANCH  17  18
ATOM     18  N   UNL     1      -0.766  -2.431  -1.385  0.00  0.00    +0.386 N 
ATOM     19  H   UNL     1       0.181  -2.081  -1.392  0.00  0.00    -0.089 HD
ATOM     20  H   UNL     1      -0.754  -3.436  -1.473  0.00  0.00    -0.089 HD
ATOM     21  H   UNL     1      -1.278  -2.031  -2.157  0.00  0.00    -0.089 HD
ENDBRANCH  17  18
BRANCH  17  22
ATOM     22  C   UNL     1      -1.433  -0.534   0.013  0.00  0.00    -0.020 C 
ATOM     23  C   UNL     1      -2.110  -0.145   1.329  0.00  0.00    +0.006 C 
BRANCH  22  25
ATOM     24  C   UNL     1      -0.019   1.526   0.010  0.00  0.00    +0.004 C 
ATOM     25  C   UNL     1       0.002  -0.004   0.002  0.00  0.00    -0.001 C 
ENDBRANCH  22  25
ENDBRANCH  17  22
ENDBRANCH   1  17
TORSDOF 5
