REMARK  Name = ZINC12150848
REMARK  9 active torsions:
REMARK  status: ('A' for Active; 'I' for Inactive)
REMARK    1  A    between atoms: C_1  and  C_2
REMARK    2  A    between atoms: C_2  and  C_3
REMARK    3  A    between atoms: C_2  and  C_4
REMARK    4  A    between atoms: C_4  and  C_5
REMARK    5  A    between atoms: C_5  and  N_6
REMARK    6  A    between atoms: C_17  and  N_59
REMARK    7  A    between atoms: C_21  and  C_22
REMARK    8  A    between atoms: C_21  and  N_59
REMARK    9  A    between atoms: C_22  and  C_23
REMARK                            x       y       z     vdW  Elec       q    Type
REMARK                         _______ _______ _______ _____ _____    ______ ____
ROOT
ATOM      1  N   UNL     1      -4.108   5.769  -5.333  0.00  0.00    -0.299 N 
ATOM      2  C   UNL     1      -5.397   5.454  -5.058  0.00  0.00    +0.203 A 
ATOM      3  N   UNL     1      -5.743   4.629  -4.094  0.00  0.00    -0.230 NA
ATOM      4  C   UNL     1      -4.767   4.090  -3.370  0.00  0.00    +0.116 A 
ATOM      5  C   UNL     1      -3.395   4.355  -3.579  0.00  0.00    +0.076 A 
ATOM      6  C   UNL     1      -3.060   5.261  -4.641  0.00  0.00    +0.262 A 
ATOM      7  O   UNL     1      -1.907   5.556  -4.903  0.00  0.00    -0.267 OA
ATOM      8  C   UNL     1      -2.469   3.676  -2.691  0.00  0.00    -0.023 A 
ATOM      9  C   UNL     1      -3.012   2.861  -1.756  0.00  0.00    -0.006 A 
ATOM     10  S   UNL     1      -4.765   2.961  -2.015  0.00  0.00    -0.073 S 
ATOM     11  C   UNL     1      -2.285   2.051  -0.727  0.00  0.00    +0.027 C 
ATOM     12  C   UNL     1      -0.802   1.987  -1.117  0.00  0.00    -0.067 C 
ATOM     13  C   UNL     1      -0.325   3.400  -1.464  0.00  0.00    -0.011 C 
ATOM     14  C   UNL     1      -0.956   3.852  -2.781  0.00  0.00    +0.035 C 
ENDROOT
BRANCH  12  15
ATOM     15  N   UNL     1      -0.013   1.471   0.017  0.00  0.00    +0.381 N 
ATOM     16  H   UNL     1      -0.432   1.796   0.897  0.00  0.00    -0.086 HD
ATOM     17  H   UNL     1       0.950   1.820  -0.053  0.00  0.00    -0.086 HD
BRANCH  15  18
ATOM     18  C   UNL     1       0.002  -0.004   0.002  0.00  0.00    -0.075 C 
BRANCH  18  19
ATOM     19  C   UNL     1       0.826  -0.509   1.188  0.00  0.00    +0.055 C 
BRANCH  19  20
ATOM     20  C   UNL     1       0.846  -2.016   1.180  0.00  0.00    +0.106 A 
ATOM     21  N   UNL     1       1.972  -2.780   1.180  0.00  0.00    -0.342 N 
ATOM     22  H   UNL     1       2.915  -2.447   1.183  0.00  0.00    +0.167 HD
ATOM     23  C   UNL     1       1.571  -4.101   1.175  0.00  0.00    +0.066 A 
ATOM     24  C   UNL     1       2.244  -5.316   1.174  0.00  0.00    +0.028 A 
ATOM     25  C   UNL     1       1.528  -6.494   1.161  0.00  0.00    +0.002 A 
ATOM     26  C   UNL     1       0.140  -6.472   1.148  0.00  0.00    +0.002 A 
ATOM     27  C   UNL     1      -0.539  -5.287   1.148  0.00  0.00    +0.030 A 
ATOM     28  C   UNL     1       0.166  -4.081   1.162  0.00  0.00    +0.089 A 
ATOM     29  N   UNL     1      -0.210  -2.776   1.166  0.00  0.00    -0.233 NA
ENDBRANCH  19  20
ENDBRANCH  18  19
ENDBRANCH  15  18
ENDBRANCH  12  15
BRANCH   1  30
ATOM     30  C   UNL     1      -3.836   6.701  -6.429  0.00  0.00    +0.126 C 
BRANCH  30  31
ATOM     31  C   UNL     1      -3.814   8.132  -5.889  0.00  0.00    +0.024 C 
BRANCH  31  33
ATOM     32  C   UNL     1      -4.686   9.068  -8.034  0.00  0.00    +0.007 C 
ATOM     33  C   UNL     1      -3.530   9.106  -7.034  0.00  0.00    -0.016 C 
ATOM     34  C   UNL     1      -3.384  10.522  -6.475  0.00  0.00    +0.007 C 
ENDBRANCH  31  33
ENDBRANCH  30  31
ENDBRANCH   1  30
TORSDOF 7
