REMARK  Name = ZINC53778492
REMARK  4 active torsions:
REMARK  status: ('A' for Active; 'I' for Inactive)
REMARK    1  A    between atoms: C_1  and  C_2
REMARK    2  A    between atoms: C_2  and  C_4
REMARK    3  A    between atoms: C_2  and  N_18
REMARK    4  A    between atoms: N_10  and  C_11
REMARK                            x       y       z     vdW  Elec       q    Type
REMARK                         _______ _______ _______ _____ _____    ______ ____
ROOT
ATOM      1  C   UNL     1       0.660  -0.861  -0.854  0.00  0.00    +0.153 A 
ATOM      2  N   UNL     1       1.906  -0.601  -1.208  0.00  0.00    -0.198 NA
ATOM      3  C   UNL     1       2.353  -0.979  -2.403  0.00  0.00    +0.217 A 
ATOM      4  N   UNL     1       1.545  -1.619  -3.241  0.00  0.00    -0.181 NA
ATOM      5  C   UNL     1       0.293  -1.879  -2.881  0.00  0.00    +0.224 A 
ATOM      6  N   UNL     1      -0.146  -1.502  -1.682  0.00  0.00    -0.198 NA
ATOM      7  N   UNL     1      -0.552  -2.544  -3.749  0.00  0.00    -0.284 N 
ATOM      8  N   UNL     1       3.655  -0.706  -2.772  0.00  0.00    -0.327 N 
ATOM      9  H   UNL     1      -1.488  -2.660  -3.521  0.00  0.00    +0.155 HD
ATOM     10  H   UNL     1       4.244  -0.238  -2.160  0.00  0.00    +0.145 HD
ATOM     11  H   UNL     1       3.980  -0.982  -3.643  0.00  0.00    +0.145 HD
ENDROOT
BRANCH   7  12
ATOM     12  C   UNL     1      -0.058  -3.049  -4.956  0.00  0.00    +0.034 A 
ATOM     13  C   UNL     1       1.228  -3.571  -5.018  0.00  0.00    +0.023 A 
ATOM     14  C   UNL     1       1.712  -4.069  -6.211  0.00  0.00    +0.002 A 
ATOM     15  C   UNL     1       0.919  -4.049  -7.344  0.00  0.00    +0.000 A 
ATOM     16  C   UNL     1      -0.361  -3.530  -7.286  0.00  0.00    +0.002 A 
ATOM     17  C   UNL     1      -0.854  -3.035  -6.094  0.00  0.00    +0.023 A 
ENDBRANCH   7  12
BRANCH   1  19
ATOM     18  C   UNL     1      -0.092   1.078   0.497  0.00  0.00    +0.032 C 
ATOM     19  C   UNL     1       0.158  -0.431   0.500  0.00  0.00    +0.122 C 
BRANCH  19  20
ATOM     20  N   UNL     1       1.161  -0.759   1.521  0.00  0.00    -0.290 NA
ATOM     21  C   UNL     1       1.502  -2.188   1.485  0.00  0.00    +0.104 C 
ATOM     22  C   UNL     1       2.675  -2.454   2.434  0.00  0.00    +0.122 C 
ATOM     23  N   UNL     1       2.328  -1.931   3.764  0.00  0.00    -0.314 N 
ATOM     24  C   UNL     1       1.846  -0.545   3.863  0.00  0.00    +0.122 C 
ATOM     25  C   UNL     1       0.705  -0.354   2.858  0.00  0.00    +0.104 C 
ATOM     26  C   UNL     1       2.453  -2.725   4.898  0.00  0.00    +0.099 A 
ATOM     27  C   UNL     1       3.044  -3.981   4.799  0.00  0.00    +0.042 A 
ATOM     28  C   UNL     1       3.162  -4.761   5.935  0.00  0.00    +0.005 A 
ATOM     29  C   UNL     1       2.683  -4.257   7.137  0.00  0.00    +0.018 A 
ATOM     30  C   UNL     1       2.107  -3.003   7.163  0.00  0.00    +0.084 A 
ATOM     31  N   UNL     1       2.013  -2.279   6.064  0.00  0.00    -0.350 N 
ATOM     32  H   UNL     1       1.608  -1.399   6.111  0.00  0.00    +0.166 HD
ENDBRANCH  19  20
ENDBRANCH   1  19
TORSDOF 3
