REMARK  Name = ZINC62069940
REMARK  8 active torsions:
REMARK  status: ('A' for Active; 'I' for Inactive)
REMARK    1  A    between atoms: C_1  and  C_2
REMARK    2  A    between atoms: C_6  and  N_12
REMARK    3  A    between atoms: C_7  and  N_11
REMARK    4  A    between atoms: N_12  and  C_13
REMARK    5  A    between atoms: C_13  and  C_14
REMARK    6  A    between atoms: C_14  and  C_16
REMARK    7  A    between atoms: C_14  and  C_17
REMARK    8  A    between atoms: C_17  and  N_18
REMARK                            x       y       z     vdW  Elec       q    Type
REMARK                         _______ _______ _______ _____ _____    ______ ____
ROOT
ATOM      1  C   UNL     1       0.529   0.966  -0.956  0.00  0.00    +0.073 C 
ATOM      2  C   UNL     1       0.435  -0.533  -0.831  0.00  0.00    +0.076 A 
ATOM      3  N   UNL     1      -0.639  -1.258  -0.709  0.00  0.00    -0.244 NA
ATOM      4  C   UNL     1      -0.591  -2.603  -0.605  0.00  0.00    +0.080 A 
ATOM      5  C   UNL     1      -1.642  -3.535  -0.468  0.00  0.00    +0.053 A 
ATOM      6  C   UNL     1      -1.374  -4.881  -0.376  0.00  0.00    +0.050 A 
ATOM      7  C   UNL     1      -0.060  -5.363  -0.416  0.00  0.00    +0.047 A 
ATOM      8  C   UNL     1       0.989  -4.467  -0.551  0.00  0.00    +0.041 A 
ATOM      9  C   UNL     1       0.723  -3.122  -0.642  0.00  0.00    +0.041 A 
ATOM     10  S   UNL     1       1.695  -1.649  -0.825  0.00  0.00    -0.072 S 
ENDROOT
BRANCH   7  11
ATOM     11  N   UNL     1       0.192  -6.738  -0.321  0.00  0.00    -0.357 N 
ATOM     12  H   UNL     1      -0.546  -7.361  -0.226  0.00  0.00    +0.142 HD
ATOM     13  H   UNL     1       1.103  -7.067  -0.349  0.00  0.00    +0.142 HD
ENDBRANCH   7  11
BRANCH   6  14
ATOM     14  N   UNL     1      -2.435  -5.786  -0.240  0.00  0.00    -0.342 N 
ATOM     15  H   UNL     1      -2.256  -6.737  -0.174  0.00  0.00    +0.146 HD
BRANCH  14  16
ATOM     16  C   UNL     1      -3.815  -5.296  -0.196  0.00  0.00    +0.103 C 
BRANCH  16  17
ATOM     17  C   UNL     1      -4.772  -6.479  -0.043  0.00  0.00    -0.014 C 
ATOM     18  C   UNL     1      -4.539  -7.153   1.311  0.00  0.00    +0.007 C 
BRANCH  17  19
ATOM     19  C   UNL     1      -6.217  -5.981  -0.123  0.00  0.00    -0.074 C 
BRANCH  19  20
ATOM     20  N   UNL     1      -6.480  -5.455  -1.469  0.00  0.00    +0.380 N 
ATOM     21  C   UNL     1      -6.490  -6.563  -2.458  0.00  0.00    -0.079 C 
ATOM     22  C   UNL     1      -7.305  -5.977  -3.639  0.00  0.00    -0.020 C 
ATOM     23  C   UNL     1      -8.398  -5.147  -2.926  0.00  0.00    -0.020 C 
ATOM     24  C   UNL     1      -7.829  -4.852  -1.526  0.00  0.00    -0.079 C 
ATOM     25  H   UNL     1      -5.782  -4.771  -1.719  0.00  0.00    -0.082 HD
ENDBRANCH  19  20
ENDBRANCH  17  19
ENDBRANCH  16  17
ENDBRANCH  14  16
ENDBRANCH   6  14
TORSDOF 6
