REMARK  Name = ZINC36531021
REMARK  12 active torsions:
REMARK  status: ('A' for Active; 'I' for Inactive)
REMARK    1  A    between atoms: C_1  and  C_2
REMARK    2  A    between atoms: C_2  and  C_3
REMARK    3  A    between atoms: C_2  and  C_4
REMARK    4  A    between atoms: C_2  and  N_5
REMARK    5  A    between atoms: C_6  and  C_8
REMARK    6  A    between atoms: C_8  and  C_10
REMARK    7  A    between atoms: C_8  and  N_17
REMARK    8  A    between atoms: C_15  and  O_16
REMARK    9  A    between atoms: N_17  and  C_18
REMARK   10  A    between atoms: C_19  and  C_21
REMARK   11  A    between atoms: C_22  and  O_28
REMARK   12  A    between atoms: C_26  and  O_27
REMARK                            x       y       z     vdW  Elec       q    Type
REMARK                         _______ _______ _______ _____ _____    ______ ____
ROOT
ATOM      1  C   UNL     1       2.599  -0.610  -2.697  0.00  0.00    +0.196 C 
ENDROOT
BRANCH   1   2
ATOM      2  C   UNL     1       2.408  -2.103  -2.776  0.00  0.00    +0.023 A 
ATOM      3  C   UNL     1       2.103  -2.821  -1.636  0.00  0.00    +0.009 A 
ATOM      4  C   UNL     1       1.928  -4.191  -1.707  0.00  0.00    +0.001 A 
ATOM      5  C   UNL     1       2.057  -4.845  -2.919  0.00  0.00    +0.004 A 
ATOM      6  C   UNL     1       2.361  -4.130  -4.061  0.00  0.00    +0.046 A 
ATOM      7  C   UNL     1       2.532  -2.755  -3.993  0.00  0.00    +0.122 A 
BRANCH   7   8
ATOM      8  O   UNL     1       2.825  -2.049  -5.117  0.00  0.00    -0.506 OA
ATOM      9  H   UNL     1       3.772  -1.963  -5.291  0.00  0.00    +0.292 HD
ENDBRANCH   7   8
ENDBRANCH   1   2
BRANCH   1  11
ATOM     10  N   UNL     1       0.699  -0.269  -1.151  0.00  0.00    -0.309 N 
ATOM     11  C   UNL     1       2.010  -0.095  -1.409  0.00  0.00    +0.239 C 
ATOM     12  O   UNL     1       2.716   0.476  -0.605  0.00  0.00    -0.273 OA
ATOM     13  H   UNL     1       0.134  -0.726  -1.794  0.00  0.00    +0.149 HD
BRANCH  10  15
ATOM     14  C   UNL     1       0.320   1.747   0.180  0.00  0.00    +0.031 C 
ATOM     15  C   UNL     1       0.126   0.232   0.101  0.00  0.00    +0.026 C 
ATOM     16  C   UNL     1       0.827  -0.435   1.286  0.00  0.00    +0.031 C 
ATOM     17  C   UNL     1      -1.369  -0.094   0.144  0.00  0.00    +0.031 C 
ENDBRANCH  10  15
ENDBRANCH   1  11
BRANCH   1  18
ATOM     18  N   UNL     1       4.030  -0.298  -2.738  0.00  0.00    -0.285 N 
ATOM     19  C   UNL     1       4.944  -0.923  -1.779  0.00  0.00    +0.133 C 
ATOM     20  C   UNL     1       4.506   0.564  -3.659  0.00  0.00    +0.254 C 
ATOM     21  O   UNL     1       3.747   1.083  -4.455  0.00  0.00    -0.270 OA
BRANCH  20  22
ATOM     22  C   UNL     1       5.944   0.877  -3.700  0.00  0.00    +0.119 A 
ATOM     23  C   UNL     1       6.811   0.112  -4.494  0.00  0.00    +0.133 A 
ATOM     24  C   UNL     1       8.162   0.415  -4.526  0.00  0.00    +0.046 A 
ATOM     25  C   UNL     1       8.657   1.469  -3.779  0.00  0.00    +0.007 A 
ATOM     26  C   UNL     1       7.811   2.229  -2.994  0.00  0.00    +0.046 A 
ATOM     27  C   UNL     1       6.455   1.947  -2.951  0.00  0.00    +0.133 A 
BRANCH  27  28
ATOM     28  O   UNL     1       5.627   2.699  -2.184  0.00  0.00    -0.506 OA
ATOM     29  H   UNL     1       5.525   2.373  -1.279  0.00  0.00    +0.292 HD
ENDBRANCH  27  28
BRANCH  23  30
ATOM     30  O   UNL     1       6.328  -0.923  -5.227  0.00  0.00    -0.506 OA
ATOM     31  H   UNL     1       6.049  -0.676  -6.119  0.00  0.00    +0.292 HD
ENDBRANCH  23  30
ENDBRANCH  20  22
ENDBRANCH   1  18
TORSDOF 8
