REMARK  Name = ZINC06388025
REMARK  10 active torsions:
REMARK  status: ('A' for Active; 'I' for Inactive)
REMARK    1  A    between atoms: C_1  and  C_2
REMARK    2  A    between atoms: C_2  and  C_3
REMARK    3  A    between atoms: C_6  and  O_29
REMARK    4  A    between atoms: C_17  and  C_23
REMARK    5  A    between atoms: C_18  and  C_21
REMARK    6  A    between atoms: C_21  and  O_22
REMARK    7  A    between atoms: C_23  and  C_24
REMARK    8  A    between atoms: C_23  and  C_26
REMARK    9  A    between atoms: C_23  and  O_28
REMARK   10  A    between atoms: C_24  and  C_25
REMARK                            x       y       z     vdW  Elec       q    Type
REMARK                         _______ _______ _______ _____ _____    ______ ____
ROOT
ATOM      1  C   UNL     1       5.573   8.553   2.000  0.00  0.00    -0.031 A 
ATOM      2  C   UNL     1       4.806   7.950   0.982  0.00  0.00    +0.007 A 
ATOM      3  C   UNL     1       4.632   8.572  -0.263  0.00  0.00    +0.055 A 
ATOM      4  C   UNL     1       3.886   7.956  -1.228  0.00  0.00    +0.118 A 
ATOM      5  C   UNL     1       3.297   6.709  -0.989  0.00  0.00    +0.047 A 
ATOM      6  C   UNL     1       3.451   6.079   0.206  0.00  0.00    +0.032 A 
ATOM      7  C   UNL     1       4.213   6.684   1.224  0.00  0.00    +0.072 A 
ATOM      8  N   UNL     1       4.377   6.084   2.404  0.00  0.00    -0.245 NA
ATOM      9  C   UNL     1       5.091   6.641   3.369  0.00  0.00    +0.093 A 
ATOM     10  C   UNL     1       5.704   7.892   3.180  0.00  0.00    +0.003 A 
ATOM     11  C   UNL     1       6.425   8.223   4.462  0.00  0.00    +0.163 C 
ATOM     12  N   UNL     1       6.187   7.098   5.376  0.00  0.00    -0.302 N 
ATOM     13  C   UNL     1       5.408   6.174   4.739  0.00  0.00    +0.071 A 
ATOM     14  C   UNL     1       5.042   5.014   5.392  0.00  0.00    +0.035 A 
ATOM     15  C   UNL     1       5.468   4.786   6.703  0.00  0.00    +0.007 A 
ATOM     16  C   UNL     1       6.246   5.718   7.327  0.00  0.00    +0.049 A 
ATOM     17  C   UNL     1       6.605   6.891   6.641  0.00  0.00    +0.258 A 
ATOM     18  O   UNL     1       7.300   7.728   7.195  0.00  0.00    -0.267 OA
ENDROOT
BRANCH   1  20
ATOM     19  C   UNL     1       7.631   9.694   1.218  0.00  0.00    +0.009 C 
ATOM     20  C   UNL     1       6.225   9.895   1.787  0.00  0.00    +0.033 C 
ENDBRANCH   1  20
BRANCH   4  21
ATOM     21  O   UNL     1       3.713   8.560  -2.432  0.00  0.00    -0.507 OA
ATOM     22  H   UNL     1       2.937   9.136  -2.475  0.00  0.00    +0.292 HD
ENDBRANCH   4  21
BRANCH  16  23
ATOM     23  C   UNL     1       6.715   5.492   8.741  0.00  0.00    +0.196 C 
BRANCH  23  24
ATOM     24  O   UNL     1       6.586   4.107   9.069  0.00  0.00    -0.390 OA
ATOM     25  H   UNL     1       6.963   3.870   9.928  0.00  0.00    +0.210 HD
ENDBRANCH  23  24
ENDBRANCH  16  23
BRANCH  15  26
ATOM     26  C   UNL     1       5.072   3.522   7.422  0.00  0.00    +0.192 C 
BRANCH  26  27
ATOM     27  C   UNL     1       6.297   2.679   7.668  0.00  0.00    +0.391 C 
ATOM     28  O   UNL     1       6.188   1.591   8.181  0.00  0.00    -0.243 OA
ATOM     29  O   UNL     1       7.509   3.138   7.317  0.00  0.00    -0.243 OA
ENDBRANCH  26  27
BRANCH  26  30
ATOM     30  C   UNL     1       4.422   3.880   8.761  0.00  0.00    +0.048 C 
ATOM     31  C   UNL     1       4.644   2.739   9.756  0.00  0.00    +0.007 C 
ENDBRANCH  26  30
BRANCH  26  32
ATOM     32  O   UNL     1       4.143   2.790   6.622  0.00  0.00    -0.373 OA
ATOM     33  H   UNL     1       3.335   3.278   6.411  0.00  0.00    +0.211 HD
ENDBRANCH  26  32
ENDBRANCH  15  26
TORSDOF 8
