REMARK  Name = ZINC61594245
REMARK  9 active torsions:
REMARK  status: ('A' for Active; 'I' for Inactive)
REMARK    1  A    between atoms: C_1  and  C_2
REMARK    2  A    between atoms: C_2  and  C_3
REMARK    3  A    between atoms: C_3  and  C_5
REMARK    4  A    between atoms: C_3  and  N_23
REMARK    5  A    between atoms: C_5  and  C_7
REMARK    6  A    between atoms: C_5  and  S_13
REMARK    7  A    between atoms: S_13  and  C_14
REMARK    8  A    between atoms: N_20  and  C_21
REMARK    9  A    between atoms: C_21  and  C_22
REMARK                            x       y       z     vdW  Elec       q    Type
REMARK                         _______ _______ _______ _____ _____    ______ ____
ROOT
ATOM      1  C   UNL     1       0.783  -2.043   1.253  0.00  0.00    +0.076 C 
ENDROOT
BRANCH   1   2
ATOM      2  C   UNL     1       1.383  -2.585   2.525  0.00  0.00    +0.003 A 
ATOM      3  C   UNL     1       0.818  -3.384   3.462  0.00  0.00    +0.014 A 
ATOM      4  C   UNL     1       1.566  -3.760   4.562  0.00  0.00    +0.028 A 
ATOM      5  C   UNL     1       2.844  -3.318   4.670  0.00  0.00    +0.078 A 
ATOM      6  S   UNL     1       3.025  -2.345   3.184  0.00  0.00    -0.081 S 
ATOM      7 CL   UNL     1       4.005  -3.625   5.924  0.00  0.00    -0.076 Cl
ENDBRANCH   1   2
BRANCH   1   8
ATOM      8  C   UNL     1       0.805  -0.514   1.289  0.00  0.00    -0.057 C 
BRANCH   8   9
ATOM      9  N   UNL     1       0.050  -0.040   2.456  0.00  0.00    +0.381 N 
ATOM     10  H   UNL     1      -0.905  -0.361   2.392  0.00  0.00    -0.090 HD
ATOM     11  H   UNL     1       0.470  -0.403   3.299  0.00  0.00    -0.090 HD
ATOM     12  H   UNL     1       0.065   0.968   2.480  0.00  0.00    -0.090 HD
ENDBRANCH   8   9
BRANCH   8  14
ATOM     13  C   UNL     1       0.310   1.559  -0.015  0.00  0.00    +0.002 C 
ATOM     14  C   UNL     1       0.168   0.036   0.011  0.00  0.00    -0.018 C 
ENDBRANCH   8  14
ENDBRANCH   1   8
BRANCH   1  15
ATOM     15  S   UNL     1       1.747  -2.629  -0.167  0.00  0.00    -0.079 S 
BRANCH  15  16
ATOM     16  C   UNL     1       1.442  -4.364  -0.203  0.00  0.00    +0.193 A 
ATOM     17  N   UNL     1       0.747  -5.031   0.673  0.00  0.00    -0.145 NA
ATOM     18  N   UNL     1       0.743  -6.379   0.288  0.00  0.00    -0.226 N 
ATOM     19  H   UNL     1       0.302  -7.108   0.753  0.00  0.00    +0.194 HD
ATOM     20  C   UNL     1       1.463  -6.476  -0.849  0.00  0.00    +0.345 A 
ATOM     21  O   UNL     1       1.679  -7.497  -1.479  0.00  0.00    -0.245 OA
ATOM     22  N   UNL     1       1.895  -5.239  -1.165  0.00  0.00    -0.271 N 
BRANCH  22  23
ATOM     23  C   UNL     1       2.709  -4.887  -2.330  0.00  0.00    +0.125 C 
ATOM     24  C   UNL     1       4.192  -4.990  -1.966  0.00  0.00    +0.027 C 
ENDBRANCH  22  23
ENDBRANCH  15  16
ENDBRANCH   1  15
TORSDOF 7
