REMARK  Name = ZINC15657718
REMARK  10 active torsions:
REMARK  status: ('A' for Active; 'I' for Inactive)
REMARK    1  A    between atoms: C_3  and  O_35
REMARK    2  A    between atoms: C_4  and  O_34
REMARK    3  A    between atoms: C_6  and  C_7
REMARK    4  A    between atoms: C_8  and  O_20
REMARK    5  A    between atoms: C_12  and  O_19
REMARK    6  A    between atoms: C_14  and  O_18
REMARK    7  A    between atoms: O_20  and  C_21
REMARK    8  A    between atoms: C_23  and  O_33
REMARK    9  A    between atoms: C_25  and  O_32
REMARK   10  A    between atoms: C_27  and  O_31
REMARK                            x       y       z     vdW  Elec       q    Type
REMARK                         _______ _______ _______ _____ _____    ______ ____
ROOT
ATOM      1  C   UNL     1      -2.563   0.609  -1.835  0.00  0.00    +0.181 A 
ATOM      2  C   UNL     1      -2.054   1.597  -1.048  0.00  0.00    +0.214 A 
ATOM      3  C   UNL     1      -2.936   2.518  -0.425  0.00  0.00    +0.238 A 
ATOM      4  O   UNL     1      -2.515   3.419   0.283  0.00  0.00    -0.283 OA
ATOM      5  C   UNL     1      -4.377   2.344  -0.666  0.00  0.00    +0.109 A 
ATOM      6  C   UNL     1      -5.319   3.207  -0.092  0.00  0.00    +0.135 A 
ATOM      7  C   UNL     1      -6.664   3.011  -0.343  0.00  0.00    +0.091 A 
ATOM      8  C   UNL     1      -7.077   1.963  -1.160  0.00  0.00    +0.124 A 
ATOM      9  C   UNL     1      -6.151   1.105  -1.731  0.00  0.00    +0.092 A 
ATOM     10  C   UNL     1      -4.797   1.286  -1.491  0.00  0.00    +0.147 A 
ATOM     11  O   UNL     1      -3.883   0.460  -2.041  0.00  0.00    -0.451 OA
ENDROOT
BRANCH   1  17
ATOM     12  C   UNL     1      -0.518   0.142  -3.174  0.00  0.00    +0.015 A 
ATOM     13  C   UNL     1       0.353  -0.743  -3.773  0.00  0.00    +0.050 A 
ATOM     14  C   UNL     1       0.121  -2.109  -3.697  0.00  0.00    +0.158 A 
ATOM     15  C   UNL     1      -0.992  -2.593  -3.011  0.00  0.00    +0.159 A 
ATOM     16  C   UNL     1      -1.867  -1.712  -2.404  0.00  0.00    +0.060 A 
ATOM     17  C   UNL     1      -1.633  -0.336  -2.480  0.00  0.00    +0.025 A 
BRANCH  15  18
ATOM     18  O   UNL     1      -1.217  -3.932  -2.939  0.00  0.00    -0.503 OA
ATOM     19  H   UNL     1      -1.757  -4.280  -3.661  0.00  0.00    +0.292 HD
ENDBRANCH  15  18
BRANCH  14  20
ATOM     20  O   UNL     1       0.980  -2.976  -4.293  0.00  0.00    -0.503 OA
ATOM     21  H   UNL     1       0.753  -3.188  -5.209  0.00  0.00    +0.292 HD
ENDBRANCH  14  20
ENDBRANCH   1  17
BRANCH   8  22
ATOM     22  O   UNL     1      -8.401   1.779  -1.399  0.00  0.00    -0.507 OA
ATOM     23  H   UNL     1      -8.730   2.255  -2.174  0.00  0.00    +0.292 HD
ENDBRANCH   8  22
BRANCH   6  24
ATOM     24  O   UNL     1      -4.915   4.228   0.705  0.00  0.00    -0.506 OA
ATOM     25  H   UNL     1      -4.743   5.053   0.231  0.00  0.00    +0.292 HD
ENDBRANCH   6  24
BRANCH   2  26
ATOM     26  O   UNL     1      -0.709   1.704  -0.865  0.00  0.00    -0.453 OA
BRANCH  26  27
ATOM     27  C   UNL     1      -0.165   1.101   0.311  0.00  0.00    +0.339 C 
ATOM     28  C   UNL     1       1.296   1.530   0.475  0.00  0.00    +0.214 C 
ATOM     29  C   UNL     1       1.889   0.833   1.703  0.00  0.00    +0.180 C 
ATOM     30  C   UNL     1       1.743  -0.683   1.536  0.00  0.00    +0.171 C 
ATOM     31  C   UNL     1       0.265  -1.026   1.332  0.00  0.00    +0.198 C 
ATOM     32  O   UNL     1      -0.233  -0.321   0.193  0.00  0.00    -0.337 OA
BRANCH  30  33
ATOM     33  O   UNL     1       2.229  -1.342   2.708  0.00  0.00    -0.387 OA
ATOM     34  H   UNL     1       2.162  -2.306   2.673  0.00  0.00    +0.210 HD
ENDBRANCH  30  33
BRANCH  29  35
ATOM     35  O   UNL     1       1.193   1.254   2.877  0.00  0.00    -0.386 OA
ATOM     36  H   UNL     1       1.514   0.846   3.693  0.00  0.00    +0.210 HD
ENDBRANCH  29  35
BRANCH  28  37
ATOM     37  O   UNL     1       2.036   1.157  -0.690  0.00  0.00    -0.383 OA
ATOM     38  H   UNL     1       1.711   1.559  -1.507  0.00  0.00    +0.210 HD
ENDBRANCH  28  37
ENDBRANCH  26  27
ENDBRANCH   2  26
TORSDOF 10
