REMARK  Name = ZINC11730929
REMARK  5 active torsions:
REMARK  status: ('A' for Active; 'I' for Inactive)
REMARK    1  A    between atoms: C_1  and  C_2
REMARK    2  A    between atoms: C_2  and  C_4
REMARK    3  A    between atoms: C_2  and  O_14
REMARK    4  A    between atoms: C_4  and  N_30
REMARK    5  A    between atoms: C_10  and  N_13
REMARK                            x       y       z     vdW  Elec       q    Type
REMARK                         _______ _______ _______ _____ _____    ______ ____
ROOT
ATOM      1  C   UNL     1      -1.459   1.833   0.032  0.00  0.00    -0.042 C 
ATOM      2  C   UNL     1      -0.017   1.379   0.010  0.00  0.00    -0.061 A 
ATOM      3  C   UNL     1       1.171   2.087   0.002  0.00  0.00    +0.002 A 
ATOM      4  C   UNL     1       2.380   1.416  -0.013  0.00  0.00    +0.002 A 
ATOM      5  C   UNL     1       2.405   0.035  -0.021  0.00  0.00    +0.023 A 
ATOM      6  C   UNL     1       1.215  -0.680  -0.013  0.00  0.00    +0.026 A 
ATOM      7  C   UNL     1       0.002  -0.004   0.002  0.00  0.00    -0.042 A 
ATOM      8  C   UNL     1      -1.427  -0.498   0.013  0.00  0.00    -0.040 C 
ATOM      9  N   UNL     1      -2.217   0.657  -0.390  0.00  0.00    +0.387 N 
ATOM     10  H   UNL     1      -2.338   0.662  -1.409  0.00  0.00    -0.081 HD
ENDROOT
BRANCH   6  11
ATOM     11  N   UNL     1       1.237  -2.077  -0.021  0.00  0.00    -0.358 N 
ATOM     12  H   UNL     1       0.405  -2.575  -0.017  0.00  0.00    +0.142 HD
ATOM     13  H   UNL     1       2.085  -2.548  -0.032  0.00  0.00    +0.142 HD
ENDBRANCH   6  11
BRANCH   9  14
ATOM     14  C   UNL     1      -3.561   0.637   0.265  0.00  0.00    -0.047 C 
BRANCH  14  16
ATOM     15  C   UNL     1      -5.836   1.669   0.329  0.00  0.00    +0.035 C 
ATOM     16  C   UNL     1      -4.473   1.691  -0.366  0.00  0.00    +0.095 C 
BRANCH  16  17
ATOM     17  O   UNL     1      -3.882   2.984  -0.214  0.00  0.00    -0.394 OA
ATOM     18  H   UNL     1      -3.738   3.245   0.706  0.00  0.00    +0.210 HD
ENDBRANCH  16  17
ENDBRANCH  14  16
ENDBRANCH   9  14
TORSDOF 4
