REMARK  Name = ZINC12498345
REMARK  8 active torsions:
REMARK  status: ('A' for Active; 'I' for Inactive)
REMARK    1  A    between atoms: C_1  and  C_2
REMARK    2  A    between atoms: C_7  and  C_8
REMARK    3  A    between atoms: N_16  and  C_19
REMARK    4  A    between atoms: C_28  and  C_29
REMARK    5  A    between atoms: C_28  and  C_36
REMARK    6  A    between atoms: C_29  and  C_30
REMARK    7  A    between atoms: C_36  and  O_38
REMARK    8  A    between atoms: O_38  and  C_39
REMARK                            x       y       z     vdW  Elec       q    Type
REMARK                         _______ _______ _______ _____ _____    ______ ____
ROOT
ATOM      1  C   UNL     1       5.954   0.571  -0.401  0.00  0.00    -0.026 C 
ATOM      2  C   UNL     1       4.629   0.676   0.333  0.00  0.00    +0.077 C 
ATOM      3  C   UNL     1       3.887  -0.542  -0.330  0.00  0.00    +0.086 C 
ATOM      4  C   UNL     1       2.509  -0.270  -0.017  0.00  0.00    +0.229 C 
ATOM      5  O   UNL     1       1.628  -1.075   0.196  0.00  0.00    -0.275 OA
ATOM      6  N   UNL     1       2.405   1.099  -0.015  0.00  0.00    -0.210 N 
ATOM      7  C   UNL     1       3.621   1.722  -0.022  0.00  0.00    +0.229 C 
ATOM      8  O   UNL     1       3.839   2.889  -0.268  0.00  0.00    -0.275 OA
ATOM      9  C   UNL     1       4.899  -1.606  -0.273  0.00  0.00    +0.048 C 
ATOM     10  N   UNL     1       6.146  -0.880  -0.666  0.00  0.00    +0.396 N 
ATOM     11  H   UNL     1       6.939  -1.230  -0.115  0.00  0.00    -0.083 HD
ATOM     12  H   UNL     1       6.332  -1.027  -1.665  0.00  0.00    -0.083 HD
ENDROOT
BRANCH   6  13
ATOM     13  C   UNL     1       1.180   1.785   0.000  0.00  0.00    +0.048 A 
ATOM     14  C   UNL     1      -0.013   1.076   0.008  0.00  0.00    +0.028 A 
ATOM     15  C   UNL     1      -1.219   1.750   0.017  0.00  0.00    +0.051 A 
ATOM     16  C   UNL     1      -1.241   3.135   0.030  0.00  0.00    +0.166 A 
ATOM     17  C   UNL     1      -0.046   3.849   0.023  0.00  0.00    +0.168 A 
ATOM     18  C   UNL     1       1.163   3.173   0.008  0.00  0.00    +0.073 A 
ATOM     19  O   UNL     1      -0.335   5.184   0.032  0.00  0.00    -0.453 OA
ATOM     20  C   UNL     1      -1.707   5.277   0.458  0.00  0.00    +0.466 C 
ATOM     21  O   UNL     1      -2.279   4.022   0.044  0.00  0.00    -0.453 OA
ENDBRANCH   6  13
BRANCH   1  28
ATOM     22  C   UNL     1       6.489   3.410  -0.426  0.00  0.00    +0.044 C 
ATOM     23  C   UNL     1       6.149   2.696  -1.709  0.00  0.00    -0.049 A 
ATOM     24  C   UNL     1       6.097   3.398  -2.899  0.00  0.00    +0.003 A 
ATOM     25  C   UNL     1       5.780   2.744  -4.074  0.00  0.00    +0.000 A 
ATOM     26  C   UNL     1       5.519   1.387  -4.061  0.00  0.00    +0.000 A 
ATOM     27  C   UNL     1       5.575   0.683  -2.873  0.00  0.00    +0.002 A 
ATOM     28  C   UNL     1       5.893   1.337  -1.697  0.00  0.00    -0.058 A 
ENDBRANCH   1  28
BRANCH   9  29
ATOM     29  C   UNL     1       5.018  -2.156   1.125  0.00  0.00    +0.297 C 
ATOM     30  O   UNL     1       4.055  -2.163   1.856  0.00  0.00    -0.252 OA
BRANCH  29  31
ATOM     31  O   UNL     1       6.192  -2.640   1.558  0.00  0.00    -0.469 OA
ATOM     32  C   UNL     1       6.234  -3.154   2.916  0.00  0.00    +0.280 C 
ENDBRANCH  29  31
ENDBRANCH   9  29
BRANCH   9  33
ATOM     33  C   UNL     1       4.575  -2.722  -1.268  0.00  0.00    +0.034 C 
BRANCH  33  34
ATOM     34  C   UNL     1       5.697  -3.729  -1.275  0.00  0.00    -0.048 A 
ATOM     35  C   UNL     1       6.755  -3.578  -2.151  0.00  0.00    +0.003 A 
ATOM     36  C   UNL     1       7.786  -4.500  -2.155  0.00  0.00    +0.000 A 
ATOM     37  C   UNL     1       7.753  -5.576  -1.289  0.00  0.00    +0.000 A 
ATOM     38  C   UNL     1       6.692  -5.730  -0.417  0.00  0.00    +0.000 A 
ATOM     39  C   UNL     1       5.663  -4.807  -0.410  0.00  0.00    +0.003 A 
ENDBRANCH  33  34
ENDBRANCH   9  33
TORSDOF 6
