REMARK  Name = ZINC59460847
REMARK  4 active torsions:
REMARK  status: ('A' for Active; 'I' for Inactive)
REMARK    1  A    between atoms: C_6  and  C_7
REMARK    2  A    between atoms: N_8  and  C_9
REMARK    3  A    between atoms: C_12  and  S_15
REMARK    4  A    between atoms: S_15  and  N_18
REMARK                            x       y       z     vdW  Elec       q    Type
REMARK                         _______ _______ _______ _____ _____    ______ ____
ROOT
ATOM      1  C   UNL     1      -2.413  -2.767   0.011  0.00  0.00    +0.064 A 
ATOM      2  C   UNL     1      -3.448  -2.396   0.873  0.00  0.00    +0.029 A 
ATOM      3  C   UNL     1      -4.628  -3.110   0.876  0.00  0.00    +0.031 A 
ATOM      4  C   UNL     1      -4.789  -4.190   0.026  0.00  0.00    +0.113 A 
ATOM      5  C   UNL     1      -3.768  -4.564  -0.830  0.00  0.00    +0.031 A 
ATOM      6  C   UNL     1      -2.585  -3.856  -0.847  0.00  0.00    +0.029 A 
ENDROOT
BRANCH   4   7
ATOM      7  S   UNL     1      -6.301  -5.096   0.036  0.00  0.00    +0.102 S 
ATOM      8  O   UNL     1      -6.000  -6.393  -0.459  0.00  0.00    -0.146 OA
ATOM      9  O   UNL     1      -6.892  -4.885   1.311  0.00  0.00    -0.146 OA
BRANCH   7  10
ATOM     10  N   UNL     1      -7.304  -4.386  -1.074  0.00  0.00    -0.093 NA
ATOM     11  C   UNL     1      -8.501  -4.864  -1.270  0.00  0.00    +0.212 C 
ATOM     12  N   UNL     1      -8.930  -5.957  -0.555  0.00  0.00    -0.369 N 
ATOM     13  N   UNL     1      -9.333  -4.274  -2.192  0.00  0.00    -0.369 N 
ATOM     14  H   UNL     1      -8.343  -6.372   0.095  0.00  0.00    +0.159 HD
ATOM     15  H   UNL     1      -9.030  -3.503  -2.696  0.00  0.00    +0.159 HD
ATOM     16  H   UNL     1     -10.224  -4.630  -2.338  0.00  0.00    +0.159 HD
ATOM     17  H   UNL     1      -9.821  -6.312  -0.701  0.00  0.00    +0.159 HD
ENDBRANCH   7  10
ENDBRANCH   4   7
BRANCH   1  19
ATOM     18  C   UNL     1      -1.261  -0.761   0.011  0.00  0.00    +0.119 C 
ATOM     19  N   UNL     1      -1.240  -2.064   0.003  0.00  0.00    -0.255 NA
BRANCH  18  25
ATOM     20  C   UNL     1      -0.017   1.394   0.010  0.00  0.00    +0.010 A 
ATOM     21  C   UNL     1       1.169   2.096   0.002  0.00  0.00    +0.016 A 
ATOM     22  C   UNL     1       2.378   1.420  -0.013  0.00  0.00    +0.018 A 
ATOM     23  C   UNL     1       2.405   0.035  -0.021  0.00  0.00    +0.016 A 
ATOM     24  C   UNL     1       1.226  -0.680  -0.013  0.00  0.00    +0.010 A 
ATOM     25  C   UNL     1       0.002  -0.004   0.002  0.00  0.00    -0.007 A 
ATOM     26 BR   UNL     1       4.000   2.392  -0.025  0.00  0.00    -0.050 Br
ENDBRANCH  18  25
ENDBRANCH   1  19
TORSDOF 4
