REMARK  Name = ZINC08764570
REMARK  2 active torsions:
REMARK  status: ('A' for Active; 'I' for Inactive)
REMARK    1  A    between atoms: C_12  and  C_16
REMARK    2  A    between atoms: C_17  and  O_26
REMARK                            x       y       z     vdW  Elec       q    Type
REMARK                         _______ _______ _______ _____ _____    ______ ____
ROOT
ATOM      1  C   UNL     1       0.002  -0.004   0.002  0.00  0.00    +0.022 A 
ATOM      2  C   UNL     1      -0.017   1.373   0.010  0.00  0.00    +0.027 A 
ATOM      3  C   UNL     1       1.178   2.085   0.002  0.00  0.00    +0.047 A 
ATOM      4  C   UNL     1       2.401   1.386  -0.013  0.00  0.00    +0.004 A 
ATOM      5  C   UNL     1       2.402  -0.011  -0.021  0.00  0.00    +0.030 A 
ATOM      6  C   UNL     1       1.207  -0.695  -0.014  0.00  0.00    +0.042 A 
ATOM      7 CL   UNL     1       1.207  -2.431  -0.024  0.00  0.00    -0.084 Cl
ATOM      8  C   UNL     1       3.441   2.407  -0.015  0.00  0.00    -0.022 A 
ATOM      9  C   UNL     1       2.828   3.609  -0.002  0.00  0.00    +0.011 A 
ATOM     10  N   UNL     1       1.475   3.432   0.008  0.00  0.00    -0.359 N 
ATOM     11  H   UNL     1       0.820   4.147   0.016  0.00  0.00    +0.166 HD
ATOM     12  C   UNL     1       3.584   4.917   0.003  0.00  0.00    +0.018 C 
ATOM     13  C   UNL     1       5.567   3.576  -0.421  0.00  0.00    -0.076 C 
ATOM     14  C   UNL     1       4.937   2.231  -0.032  0.00  0.00    +0.018 C 
ATOM     15  N   UNL     1       4.984   4.654   0.404  0.00  0.00    +0.388 N 
ATOM     16  H   UNL     1       5.004   4.372   1.391  0.00  0.00    -0.084 HD
ATOM     17  H   UNL     1       5.537   5.510   0.281  0.00  0.00    -0.084 HD
ENDROOT
BRANCH  12  18
ATOM     18  C   UNL     1       2.953   5.865   0.990  0.00  0.00    +0.068 A 
ATOM     19  C   UNL     1       2.362   7.017   0.563  0.00  0.00    +0.199 A 
ATOM     20  N   UNL     1       1.794   7.864   1.479  0.00  0.00    -0.306 N 
ATOM     21  H   UNL     1       1.372   8.685   1.180  0.00  0.00    +0.171 HD
ATOM     22  C   UNL     1       1.817   7.565   2.791  0.00  0.00    +0.161 A 
ATOM     23  S   UNL     1       1.100   8.640   3.914  0.00  0.00    -0.013 S 
ATOM     24  N   UNL     1       2.394   6.433   3.233  0.00  0.00    -0.302 N 
ATOM     25  H   UNL     1       2.401   6.235   4.183  0.00  0.00    +0.171 HD
ATOM     26  C   UNL     1       2.960   5.570   2.366  0.00  0.00    +0.258 A 
ATOM     27  O   UNL     1       3.479   4.544   2.771  0.00  0.00    -0.267 OA
BRANCH  19  28
ATOM     28  O   UNL     1       2.337   7.321  -0.752  0.00  0.00    -0.493 OA
ATOM     29  H   UNL     1       1.896   8.158  -0.954  0.00  0.00    +0.294 HD
ENDBRANCH  19  28
ENDBRANCH  12  18
TORSDOF 2
