REMARK  Name = ZINC39978057
REMARK  10 active torsions:
REMARK  status: ('A' for Active; 'I' for Inactive)
REMARK    1  A    between atoms: C_1  and  C_2
REMARK    2  A    between atoms: C_2  and  O_3
REMARK    3  A    between atoms: O_3  and  C_4
REMARK    4  A    between atoms: C_6  and  C_20
REMARK    5  A    between atoms: C_9  and  O_10
REMARK    6  A    between atoms: O_10  and  C_11
REMARK    7  A    between atoms: C_11  and  C_13
REMARK    8  A    between atoms: N_21  and  N_22
REMARK    9  A    between atoms: C_23  and  C_25
REMARK   10  A    between atoms: C_28  and  C_31
REMARK                            x       y       z     vdW  Elec       q    Type
REMARK                         _______ _______ _______ _____ _____    ______ ____
ROOT
ATOM      1  C   UNL     1      -1.497  -1.835   0.038  0.00  0.00    +0.163 A 
ATOM      2  C   UNL     1      -0.384  -2.655   0.031  0.00  0.00    +0.059 A 
ATOM      3  C   UNL     1      -0.543  -4.042  -0.004  0.00  0.00    -0.002 A 
ATOM      4  C   UNL     1      -1.827  -4.594  -0.031  0.00  0.00    +0.013 A 
ATOM      5  C   UNL     1      -2.932  -3.770  -0.023  0.00  0.00    +0.051 A 
ATOM      6  C   UNL     1      -2.773  -2.392   0.017  0.00  0.00    +0.173 A 
ENDROOT
BRANCH   3   7
ATOM      7  C   UNL     1       0.640  -4.922  -0.013  0.00  0.00    +0.138 C 
ATOM      8  N   UNL     1       0.490  -6.211  -0.045  0.00  0.00    -0.188 NA
BRANCH   8   9
ATOM      9  N   UNL     1       1.614  -7.047  -0.054  0.00  0.00    -0.205 N 
ATOM     10  C   UNL     1       1.459  -8.385  -0.087  0.00  0.00    +0.262 C 
ATOM     11  O   UNL     1       0.345  -8.866  -0.110  0.00  0.00    -0.271 OA
ATOM     12  H   UNL     1       2.505  -6.662  -0.035  0.00  0.00    +0.177 HD
BRANCH  10  13
ATOM     13  C   UNL     1       2.668  -9.284  -0.096  0.00  0.00    +0.240 C 
ATOM     14  C   UNL     1       3.225  -9.421  -1.502  0.00  0.00    +0.035 C 
ATOM     15  C   UNL     1       3.113 -10.724  -1.767  0.00  0.00    +0.059 C 
ATOM     16  N   UNL     1       2.569 -11.382  -0.719  0.00  0.00    -0.159 NA
ATOM     17  N   UNL     1       2.293 -10.665   0.251  0.00  0.00    -0.170 NA
ATOM     18  C   UNL     1       3.536 -11.374  -3.059  0.00  0.00    +0.067 C 
ENDBRANCH  10  13
ENDBRANCH   8   9
ENDBRANCH   3   7
BRANCH   1  19
ATOM     19  O   UNL     1      -1.345  -0.484   0.072  0.00  0.00    -0.489 OA
BRANCH  19  21
ATOM     20  C   UNL     1      -0.038   1.548   0.130  0.00  0.00    +0.048 C 
ATOM     21  C   UNL     1      -0.008   0.019   0.092  0.00  0.00    +0.226 C 
ENDBRANCH  19  21
ENDBRANCH   1  19
BRANCH   6  22
ATOM     22  O   UNL     1      -3.866  -1.584   0.030  0.00  0.00    -0.419 OA
BRANCH  22  23
ATOM     23  C   UNL     1      -4.257  -1.029  -1.133  0.00  0.00    +0.346 C 
ATOM     24  O   UNL     1      -3.698  -1.333  -2.169  0.00  0.00    -0.244 OA
BRANCH  23  25
ATOM     25  C   UNL     1      -5.363  -0.051  -1.151  0.00  0.00    +0.072 A 
ATOM     26  C   UNL     1      -6.004   0.304   0.039  0.00  0.00    +0.016 A 
ATOM     27  C   UNL     1      -7.036   1.218   0.015  0.00  0.00    +0.001 A 
ATOM     28  C   UNL     1      -7.439   1.782  -1.183  0.00  0.00    +0.001 A 
ATOM     29  C   UNL     1      -6.810   1.435  -2.365  0.00  0.00    +0.015 A 
ATOM     30  C   UNL     1      -5.770   0.526  -2.355  0.00  0.00    +0.027 A 
ATOM     31  I   UNL     1      -4.813   0.008  -4.145  0.00  0.00    -0.043 I 
ENDBRANCH  23  25
ENDBRANCH  22  23
ENDBRANCH   6  22
TORSDOF 8
