REMARK  Name = ZINC63571381
REMARK  7 active torsions:
REMARK  status: ('A' for Active; 'I' for Inactive)
REMARK    1  A    between atoms: C_1  and  C_2
REMARK    2  A    between atoms: C_2  and  O_3
REMARK    3  A    between atoms: O_3  and  C_4
REMARK    4  A    between atoms: C_4  and  C_6
REMARK    5  A    between atoms: C_6  and  C_7
REMARK    6  A    between atoms: C_7  and  N_13
REMARK    7  A    between atoms: C_29  and  C_31
REMARK                            x       y       z     vdW  Elec       q    Type
REMARK                         _______ _______ _______ _____ _____    ______ ____
ROOT
ATOM      1  N   UNL     1      -2.137  -4.584  -1.546  0.00  0.00    -0.293 N 
ATOM      2  C   UNL     1      -0.831  -4.337  -1.323  0.00  0.00    +0.303 C 
ATOM      3  O   UNL     1      -0.492  -3.672  -0.363  0.00  0.00    -0.253 OA
ATOM      4  N   UNL     1       0.101  -4.828  -2.164  0.00  0.00    -0.276 N 
ATOM      5  C   UNL     1      -0.319  -5.523  -3.385  0.00  0.00    +0.114 C 
ATOM      6  C   UNL     1       0.289  -4.818  -4.611  0.00  0.00    +0.052 C 
ATOM      7  C   UNL     1       1.739  -4.556  -4.285  0.00  0.00    -0.035 C 
ATOM      8  C   UNL     1       2.853  -4.838  -4.949  0.00  0.00    -0.001 A 
ATOM      9  C   UNL     1       3.078  -5.407  -6.288  0.00  0.00    +0.010 A 
ATOM     10  C   UNL     1       4.375  -5.584  -6.654  0.00  0.00    +0.001 A 
ATOM     11  C   UNL     1       5.458  -5.257  -5.831  0.00  0.00    +0.002 A 
ATOM     12  C   UNL     1       5.344  -4.723  -4.589  0.00  0.00    +0.026 A 
ATOM     13  C   UNL     1       4.028  -4.482  -4.097  0.00  0.00    +0.043 A 
ATOM     14  N   UNL     1       3.633  -3.965  -2.971  0.00  0.00    -0.375 N 
ATOM     15  C   UNL     1       2.172  -3.873  -2.993  0.00  0.00    +0.131 C 
ATOM     16  C   UNL     1       1.528  -4.656  -1.850  0.00  0.00    +0.137 C 
ATOM     17  H   UNL     1      -2.412  -5.050  -2.350  0.00  0.00    +0.151 HD
ATOM     18  H   UNL     1       4.208  -3.688  -2.241  0.00  0.00    +0.160 HD
ENDROOT
BRANCH  16  19
ATOM     19  C   UNL     1       2.189  -6.004  -1.723  0.00  0.00    +0.010 A 
ATOM     20  C   UNL     1       2.109  -6.914  -2.760  0.00  0.00    +0.008 A 
ATOM     21  C   UNL     1       2.715  -8.151  -2.644  0.00  0.00    +0.000 A 
ATOM     22  C   UNL     1       3.403  -8.479  -1.491  0.00  0.00    +0.003 A 
ATOM     23  C   UNL     1       3.485  -7.571  -0.453  0.00  0.00    +0.039 A 
ATOM     24  C   UNL     1       2.883  -6.329  -0.570  0.00  0.00    +0.128 A 
ATOM     25  F   UNL     1       2.967  -5.439   0.442  0.00  0.00    -0.205 F 
ENDBRANCH  16  19
BRANCH   1  26
ATOM     26  C   UNL     1      -3.141  -4.148  -0.572  0.00  0.00    +0.046 C 
ATOM     27  C   UNL     1      -2.815  -4.745   0.798  0.00  0.00    +0.026 C 
ATOM     28  C   UNL     1      -2.825  -6.272   0.705  0.00  0.00    +0.002 C 
ATOM     29  C   UNL     1      -4.209  -6.747   0.257  0.00  0.00    +0.000 C 
ATOM     30  C   UNL     1      -4.535  -6.149  -1.113  0.00  0.00    +0.002 C 
ATOM     31  C   UNL     1      -4.525  -4.622  -1.020  0.00  0.00    +0.026 C 
BRANCH  26  32
ATOM     32  C   UNL     1      -3.131  -2.621  -0.478  0.00  0.00    +0.146 C 
BRANCH  32  33
ATOM     33  C   UNL     1      -3.308  -2.032  -1.854  0.00  0.00    +0.309 C 
ATOM     34  O   UNL     1      -3.307  -2.752  -2.824  0.00  0.00    -0.251 OA
BRANCH  33  35
ATOM     35  O   UNL     1      -3.467  -0.707  -2.001  0.00  0.00    -0.465 OA
BRANCH  35  37
ATOM     36  C   UNL     1      -3.795   1.303  -3.302  0.00  0.00    +0.048 C 
ATOM     37  C   UNL     1      -3.629  -0.217  -3.334  0.00  0.00    +0.229 C 
ENDBRANCH  35  37
ENDBRANCH  33  35
ENDBRANCH  32  33
ENDBRANCH  26  32
ENDBRANCH   1  26
TORSDOF 6
