REMARK  Name = ZINC48785973
REMARK  7 active torsions:
REMARK  status: ('A' for Active; 'I' for Inactive)
REMARK    1  A    between atoms: C_1  and  C_2
REMARK    2  A    between atoms: C_2  and  O_3
REMARK    3  A    between atoms: O_3  and  C_4
REMARK    4  A    between atoms: C_6  and  C_19
REMARK    5  A    between atoms: C_9  and  O_10
REMARK    6  A    between atoms: O_10  and  C_11
REMARK    7  A    between atoms: C_11  and  C_12
REMARK                            x       y       z     vdW  Elec       q    Type
REMARK                         _______ _______ _______ _____ _____    ______ ____
ROOT
ATOM      1  C   UNL     1      -1.498  -1.849   0.006  0.00  0.00    +0.163 A 
ATOM      2  C   UNL     1      -0.392  -2.676  -0.003  0.00  0.00    +0.060 A 
ATOM      3  C   UNL     1      -0.559  -4.062  -0.009  0.00  0.00    +0.016 A 
ATOM      4  C   UNL     1      -1.845  -4.607  -0.005  0.00  0.00    +0.015 A 
ATOM      5  C   UNL     1      -2.945  -3.778   0.004  0.00  0.00    +0.050 A 
ATOM      6  C   UNL     1      -2.779  -2.400   0.016  0.00  0.00    +0.162 A 
ENDROOT
BRANCH   3   7
ATOM      7  C   UNL     1       0.621  -4.951  -0.019  0.00  0.00    +0.094 C 
ATOM      8  N   UNL     1       0.460  -6.274  -0.025  0.00  0.00    -0.387 N 
ATOM      9  N   UNL     1       1.847  -4.430  -0.023  0.00  0.00    -0.345 N 
ATOM     10  H   UNL     1      -0.433  -6.653  -0.022  0.00  0.00    +0.157 HD
ATOM     11  H   UNL     1       1.965  -3.467  -0.019  0.00  0.00    +0.144 HD
ATOM     12  H   UNL     1       2.623  -5.013  -0.030  0.00  0.00    +0.144 HD
ATOM     13  H   UNL     1       1.235  -6.857  -0.032  0.00  0.00    +0.157 HD
ENDBRANCH   3   7
BRANCH   1  14
ATOM     14  O   UNL     1      -1.339  -0.499   0.012  0.00  0.00    -0.489 OA
BRANCH  14  16
ATOM     15  C   UNL     1      -0.019   1.526   0.010  0.00  0.00    +0.048 C 
ATOM     16  C   UNL     1       0.002  -0.004   0.002  0.00  0.00    +0.226 C 
ENDBRANCH  14  16
ENDBRANCH   1  14
BRANCH   6  17
ATOM     17  O   UNL     1      -3.866  -1.586   0.031  0.00  0.00    -0.484 OA
BRANCH  17  18
ATOM     18  C   UNL     1      -5.149  -2.216   0.040  0.00  0.00    +0.264 C 
BRANCH  18  19
ATOM     19  C   UNL     1      -6.226  -1.163   0.056  0.00  0.00    -0.009 A 
ATOM     20  C   UNL     1      -6.705  -0.683   1.261  0.00  0.00    +0.007 A 
ATOM     21  C   UNL     1      -7.693   0.283   1.277  0.00  0.00    +0.001 A 
ATOM     22  C   UNL     1      -8.204   0.769   0.088  0.00  0.00    +0.015 A 
ATOM     23  C   UNL     1      -7.725   0.289  -1.118  0.00  0.00    +0.018 A 
ATOM     24  C   UNL     1      -6.732  -0.674  -1.133  0.00  0.00    +0.022 A 
ATOM     25 BR   UNL     1      -8.424   0.954  -2.744  0.00  0.00    -0.050 Br
ENDBRANCH  18  19
ENDBRANCH  17  18
ENDBRANCH   6  17
TORSDOF 6
