REMARK  Name = ZINC67401493
REMARK  6 active torsions:
REMARK  status: ('A' for Active; 'I' for Inactive)
REMARK    1  A    between atoms: C_1  and  C_2
REMARK    2  A    between atoms: C_4  and  C_7
REMARK    3  A    between atoms: C_7  and  C_9
REMARK    4  A    between atoms: C_7  and  N_10
REMARK    5  A    between atoms: C_18  and  N_19
REMARK    6  A    between atoms: N_22  and  C_23
REMARK                            x       y       z     vdW  Elec       q    Type
REMARK                         _______ _______ _______ _____ _____    ______ ____
ROOT
ATOM      1  N   UNL     1      -0.105  -4.480  -0.930  0.00  0.00    +0.390 N 
ATOM      2  C   UNL     1       0.587  -5.550  -1.664  0.00  0.00    -0.073 C 
ATOM      3  C   UNL     1       0.493  -6.840  -0.849  0.00  0.00    +0.019 C 
ATOM      4  C   UNL     1      -0.940  -7.094  -0.459  0.00  0.00    -0.027 A 
ATOM      5  C   UNL     1      -1.891  -6.098  -0.526  0.00  0.00    -0.059 A 
ATOM      6  C   UNL     1      -3.199  -6.370  -0.154  0.00  0.00    +0.002 A 
ATOM      7  C   UNL     1      -3.558  -7.631   0.279  0.00  0.00    +0.002 A 
ATOM      8  C   UNL     1      -2.610  -8.633   0.346  0.00  0.00    +0.023 A 
ATOM      9  C   UNL     1      -1.299  -8.366  -0.023  0.00  0.00    +0.038 A 
ATOM     10  C   UNL     1      -1.551  -4.710  -1.001  0.00  0.00    -0.042 C 
ATOM     11  H   UNL     1       0.191  -4.485   0.035  0.00  0.00    -0.080 HD
ENDROOT
BRANCH   9  12
ATOM     12  N   UNL     1      -0.335  -9.379   0.044  0.00  0.00    -0.269 N 
ATOM     13  C   UNL     1      -0.687 -10.660  -0.183  0.00  0.00    +0.308 C 
ATOM     14  O   UNL     1      -1.855 -10.947  -0.362  0.00  0.00    -0.252 OA
ATOM     15  N   UNL     1       0.256 -11.623  -0.211  0.00  0.00    -0.269 N 
ATOM     16  H   UNL     1       0.586  -9.159   0.254  0.00  0.00    +0.156 HD
ATOM     17  H   UNL     1       1.177 -11.406   0.002  0.00  0.00    +0.156 HD
BRANCH  15  18
ATOM     18  C   UNL     1      -0.094 -12.936  -0.549  0.00  0.00    +0.035 A 
ATOM     19  C   UNL     1      -1.120 -13.171  -1.454  0.00  0.00    +0.026 A 
ATOM     20  C   UNL     1      -1.464 -14.467  -1.786  0.00  0.00    +0.040 A 
ATOM     21  C   UNL     1      -0.786 -15.531  -1.216  0.00  0.00    +0.124 A 
ATOM     22  C   UNL     1       0.237 -15.299  -0.313  0.00  0.00    +0.040 A 
ATOM     23  C   UNL     1       0.588 -14.005   0.017  0.00  0.00    +0.026 A 
ATOM     24  F   UNL     1      -1.124 -16.798  -1.542  0.00  0.00    -0.205 F 
ENDBRANCH  15  18
ENDBRANCH   9  12
BRANCH   1  25
ATOM     25  C   UNL     1       0.216  -3.181  -1.536  0.00  0.00    +0.019 C 
ATOM     26  C   UNL     1       1.703  -2.880  -1.337  0.00  0.00    -0.003 C 
BRANCH  25  30
ATOM     27  C   UNL     1      -2.712   0.839  -0.937  0.00  0.00    +0.091 C 
ATOM     28  C   UNL     1      -1.872  -0.367  -0.605  0.00  0.00    +0.169 A 
ATOM     29  N   UNL     1      -1.246  -1.147  -1.493  0.00  0.00    -0.198 NA
ATOM     30  C   UNL     1      -0.606  -2.103  -0.878  0.00  0.00    +0.214 A 
ATOM     31  O   UNL     1      -0.807  -1.962   0.438  0.00  0.00    -0.340 OA
ATOM     32  N   UNL     1      -1.633  -0.817   0.593  0.00  0.00    -0.062 NA
ENDBRANCH  25  30
ENDBRANCH   1  25
TORSDOF 4
