REMARK  Name = ZINC36028081
REMARK  8 active torsions:
REMARK  status: ('A' for Active; 'I' for Inactive)
REMARK    1  A    between atoms: C_1  and  C_2
REMARK    2  A    between atoms: C_2  and  C_3
REMARK    3  A    between atoms: C_3  and  C_5
REMARK    4  A    between atoms: C_3  and  C_6
REMARK    5  A    between atoms: N_10  and  C_29
REMARK    6  A    between atoms: N_15  and  S_18
REMARK    7  A    between atoms: S_18  and  C_21
REMARK    8  A    between atoms: C_29  and  C_30
REMARK                            x       y       z     vdW  Elec       q    Type
REMARK                         _______ _______ _______ _____ _____    ______ ____
ROOT
ATOM      1  C   UNL     1       0.762  -1.970  -1.153  0.00  0.00    +0.022 C 
ATOM      2  C   UNL     1      -0.585  -2.639  -1.320  0.00  0.00    +0.201 C 
ATOM      3  O   UNL     1      -1.618  -2.296  -0.785  0.00  0.00    -0.277 OA
ATOM      4  N   UNL     1      -0.444  -3.683  -2.164  0.00  0.00    -0.306 N 
ATOM      5  C   UNL     1       0.954  -3.777  -2.594  0.00  0.00    +0.006 C 
ATOM      6  N   UNL     1       1.578  -2.472  -2.285  0.00  0.00    +0.401 N 
ATOM      7  C   UNL     1       1.028  -4.043  -4.096  0.00  0.00    +0.023 C 
ATOM      8  C   UNL     1       0.347  -5.380  -4.410  0.00  0.00    +0.109 C 
ATOM      9  N   UNL     1       0.950  -6.426  -3.572  0.00  0.00    -0.177 NA
ATOM     10  C   UNL     1       0.994  -6.228  -2.117  0.00  0.00    +0.109 C 
ATOM     11  C   UNL     1       1.670  -4.885  -1.823  0.00  0.00    +0.023 C 
ATOM     12  H   UNL     1       1.511  -1.849  -3.076  0.00  0.00    -0.082 HD
ATOM     13  H   UNL     1       2.540  -2.592  -2.005  0.00  0.00    -0.082 HD
ENDROOT
BRANCH   9  14
ATOM     14  S   UNL     1       1.567  -7.802  -4.256  0.00  0.00    +0.061 S 
ATOM     15  O   UNL     1       1.546  -8.801  -3.246  0.00  0.00    -0.153 OA
ATOM     16  O   UNL     1       0.909  -7.966  -5.504  0.00  0.00    -0.153 OA
BRANCH  14  17
ATOM     17  C   UNL     1       3.263  -7.487  -4.619  0.00  0.00    +0.107 A 
ATOM     18  C   UNL     1       3.620  -6.957  -5.845  0.00  0.00    +0.030 A 
ATOM     19  C   UNL     1       4.950  -6.711  -6.130  0.00  0.00    +0.023 A 
ATOM     20  C   UNL     1       5.924  -6.994  -5.190  0.00  0.00    +0.059 A 
ATOM     21  C   UNL     1       5.566  -7.524  -3.962  0.00  0.00    +0.061 A 
ATOM     22  C   UNL     1       4.234  -7.766  -3.675  0.00  0.00    +0.050 A 
ATOM     23 CL   UNL     1       6.787  -7.881  -2.780  0.00  0.00    -0.082 Cl
ATOM     24 CL   UNL     1       7.594  -6.685  -5.548  0.00  0.00    -0.082 Cl
ENDBRANCH  14  17
ENDBRANCH   9  14
BRANCH   1  25
ATOM     25  C   UNL     1       0.615  -0.450  -1.235  0.00  0.00    -0.020 C 
ATOM     26  C   UNL     1      -0.147  -0.079  -2.509  0.00  0.00    +0.006 C 
BRANCH  25  28
ATOM     27  C   UNL     1      -0.196   1.584  -0.031  0.00  0.00    +0.004 C 
ATOM     28  C   UNL     1      -0.157   0.055  -0.014  0.00  0.00    -0.001 C 
ENDBRANCH  25  28
ENDBRANCH   1  25
BRANCH   4  29
ATOM     29  C   UNL     1      -1.521  -4.581  -2.586  0.00  0.00    +0.180 C 
BRANCH  29  30
ATOM     30  C   UNL     1      -2.289  -3.949  -3.718  0.00  0.00    +0.122 A 
ATOM     31  C   UNL     1      -2.103  -4.192  -5.027  0.00  0.00    +0.046 A 
ATOM     32  C   UNL     1      -3.031  -3.389  -5.729  0.00  0.00    +0.041 A 
ATOM     33  C   UNL     1      -3.729  -2.703  -4.806  0.00  0.00    +0.195 A 
ATOM     34  O   UNL     1      -3.279  -3.050  -3.589  0.00  0.00    -0.466 OA
ENDBRANCH  29  30
ENDBRANCH   4  29
TORSDOF 6
