REMARK  Name = ZINC42085557
REMARK  11 active torsions:
REMARK  status: ('A' for Active; 'I' for Inactive)
REMARK    1  A    between atoms: C_1  and  C_2
REMARK    2  A    between atoms: C_2  and  C_3
REMARK    3  A    between atoms: C_3  and  C_5
REMARK    4  A    between atoms: C_3  and  C_6
REMARK    5  A    between atoms: C_6  and  C_8
REMARK    6  A    between atoms: C_6  and  N_24
REMARK    7  A    between atoms: N_10  and  N_11
REMARK    8  A    between atoms: N_11  and  C_12
REMARK    9  A    between atoms: C_12  and  N_14
REMARK   10  A    between atoms: N_14  and  C_15
REMARK   11  A    between atoms: C_21  and  C_23
REMARK                            x       y       z     vdW  Elec       q    Type
REMARK                         _______ _______ _______ _____ _____    ______ ____
ROOT
ATOM      1  C   UNL     1      -0.248   1.259  -2.864  0.00  0.00    +0.250 C 
ATOM      2  O   UNL     1       0.239   1.717  -3.876  0.00  0.00    -0.272 OA
ATOM      3  N   UNL     1      -0.809   2.080  -1.954  0.00  0.00    -0.234 N 
ATOM      4  H   UNL     1      -1.133   1.723  -1.113  0.00  0.00    +0.173 HD
ENDROOT
BRANCH   3   5
ATOM      5  N   UNL     1      -0.926   3.450  -2.225  0.00  0.00    -0.246 N 
ATOM      6  H   UNL     1      -0.666   3.796  -3.094  0.00  0.00    +0.172 HD
BRANCH   5   7
ATOM      7  C   UNL     1      -1.399   4.286  -1.280  0.00  0.00    +0.147 C 
ATOM      8  S   UNL     1      -1.669   5.935  -1.653  0.00  0.00    -0.017 S 
BRANCH   7   9
ATOM      9  N   UNL     1      -1.659   3.824  -0.041  0.00  0.00    -0.322 N 
ATOM     10  H   UNL     1      -1.431   2.911   0.194  0.00  0.00    +0.148 HD
BRANCH   9  11
ATOM     11  C   UNL     1      -2.285   4.702   0.952  0.00  0.00    +0.075 C 
ATOM     12  C   UNL     1      -1.207   5.535   1.647  0.00  0.00    +0.022 C 
ATOM     13  C   UNL     1      -0.213   4.605   2.344  0.00  0.00    +0.002 C 
ATOM     14  C   UNL     1      -0.950   3.756   3.382  0.00  0.00    +0.000 C 
ATOM     15  C   UNL     1      -2.028   2.922   2.687  0.00  0.00    +0.005 C 
ATOM     16  C   UNL     1      -3.022   3.853   1.989  0.00  0.00    +0.006 C 
ATOM     17  C   UNL     1      -4.100   3.019   1.294  0.00  0.00    +0.009 C 
ENDBRANCH   9  11
ENDBRANCH   7   9
ENDBRANCH   5   7
ENDBRANCH   3   5
BRANCH   1  18
ATOM     18  C   UNL     1      -0.226  -0.229  -2.623  0.00  0.00    +0.165 C 
BRANCH  18  19
ATOM     19  N   UNL     1       0.033  -0.924  -3.886  0.00  0.00    -0.288 N 
ATOM     20  C   UNL     1      -0.383  -2.195  -4.053  0.00  0.00    +0.298 C 
ATOM     21  O   UNL     1      -0.973  -2.765  -3.155  0.00  0.00    -0.253 OA
ATOM     22  N   UNL     1      -0.145  -2.834  -5.216  0.00  0.00    -0.313 N 
ATOM     23  H   UNL     1       0.503  -0.469  -4.603  0.00  0.00    +0.151 HD
ATOM     24  H   UNL     1       0.325  -2.380  -5.932  0.00  0.00    +0.146 HD
ATOM     25  H   UNL     1      -0.444  -3.749  -5.336  0.00  0.00    +0.146 HD
ENDBRANCH  18  19
BRANCH  18  26
ATOM     26  C   UNL     1       0.878  -0.567  -1.620  0.00  0.00    +0.015 C 
ATOM     27  C   UNL     1       2.243  -0.271  -2.245  0.00  0.00    +0.010 C 
BRANCH  26  29
ATOM     28  C   UNL     1      -0.509  -2.317  -0.499  0.00  0.00    +0.004 C 
ATOM     29  C   UNL     1       0.796  -2.049  -1.251  0.00  0.00    +0.002 C 
ENDBRANCH  26  29
ENDBRANCH  18  26
ENDBRANCH   1  18
TORSDOF 8
