REMARK  Name = ZINC43516186
REMARK  8 active torsions:
REMARK  status: ('A' for Active; 'I' for Inactive)
REMARK    1  A    between atoms: C_1  and  C_2
REMARK    2  A    between atoms: C_2  and  C_4
REMARK    3  A    between atoms: C_2  and  N_8
REMARK    4  A    between atoms: N_5  and  O_6
REMARK    5  A    between atoms: N_11  and  C_14
REMARK    6  A    between atoms: C_14  and  C_15
REMARK    7  A    between atoms: C_14  and  C_16
REMARK    8  A    between atoms: C_14  and  C_17
REMARK                            x       y       z     vdW  Elec       q    Type
REMARK                         _______ _______ _______ _____ _____    ______ ____
ROOT
ATOM      1  N   UNL     1       0.782  -0.583   0.836  0.00  0.00    -0.297 NA
ATOM      2  C   UNL     1       0.049  -0.551   2.109  0.00  0.00    +0.066 C 
ATOM      3  C   UNL     1       0.916  -1.164   3.210  0.00  0.00    -0.062 C 
ATOM      4  N   UNL     1       1.253  -2.549   2.854  0.00  0.00    +0.385 N 
ATOM      5  C   UNL     1       2.006  -2.563   1.594  0.00  0.00    -0.062 C 
ATOM      6  C   UNL     1       1.148  -1.962   0.479  0.00  0.00    +0.066 C 
ATOM      7  H   UNL     1       0.404  -3.083   2.745  0.00  0.00    -0.081 HD
ENDROOT
BRANCH   4   8
ATOM      8  C   UNL     1       2.071  -3.143   3.920  0.00  0.00    -0.074 C 
ATOM      9  C   UNL     1       1.285  -3.129   5.233  0.00  0.00    -0.010 C 
ATOM     10  C   UNL     1       2.421  -4.585   3.550  0.00  0.00    -0.010 C 
ATOM     11  C   UNL     1       3.357  -2.332   4.088  0.00  0.00    -0.010 C 
ENDBRANCH   4   8
BRANCH   1  13
ATOM     12  C   UNL     1       0.854   0.128  -1.507  0.00  0.00    +0.032 C 
ATOM     13  C   UNL     1       0.004   0.049  -0.237  0.00  0.00    +0.120 C 
BRANCH  13  14
ATOM     14  C   UNL     1      -0.398   1.439   0.185  0.00  0.00    +0.149 C 
ATOM     15  N   UNL     1      -1.646   1.728   0.351  0.00  0.00    -0.075 NA
ATOM     16  N   UNL     1       0.565   2.400   0.396  0.00  0.00    -0.343 N 
ATOM     17  H   UNL     1       1.505   2.162   0.354  0.00  0.00    +0.144 HD
ATOM     18  H   UNL     1       0.304   3.315   0.586  0.00  0.00    +0.144 HD
BRANCH  15  19
ATOM     19  O   UNL     1      -2.024   3.034   0.748  0.00  0.00    -0.408 OA
ATOM     20  H   UNL     1      -2.978   3.155   0.846  0.00  0.00    +0.328 HD
ENDBRANCH  15  19
ENDBRANCH  13  14
ENDBRANCH   1  13
TORSDOF 4
