REMARK  Name = ZINC06808782
REMARK  7 active torsions:
REMARK  status: ('A' for Active; 'I' for Inactive)
REMARK    1  A    between atoms: C_1  and  C_2
REMARK    2  A    between atoms: C_6  and  C_7
REMARK    3  A    between atoms: C_9  and  C_22
REMARK    4  A    between atoms: C_12  and  C_14
REMARK    5  A    between atoms: C_17  and  O_20
REMARK    6  A    between atoms: O_20  and  C_21
REMARK    7  A    between atoms: C_27  and  O_28
REMARK                            x       y       z     vdW  Elec       q    Type
REMARK                         _______ _______ _______ _____ _____    ______ ____
ROOT
ATOM      1  C   UNL     1      -1.025  -6.736   0.024  0.00  0.00    +0.088 C 
ATOM      2  C   UNL     1       1.325  -7.196  -0.263  0.00  0.00    -0.028 C 
ATOM      3  C   UNL     1       1.724  -5.753   0.054  0.00  0.00    +0.044 C 
ATOM      4  C   UNL     1       0.512  -4.867  -0.025  0.00  0.00    +0.040 C 
ATOM      5  N   UNL     1      -0.686  -5.320  -0.035  0.00  0.00    -0.298 NA
ATOM      6  N   UNL     1       0.114  -7.526   0.514  0.00  0.00    +0.402 N 
ATOM      7  H   UNL     1      -0.095  -8.526   0.411  0.00  0.00    -0.081 HD
ATOM      8  H   UNL     1       0.276  -7.311   1.505  0.00  0.00    -0.081 HD
ENDROOT
BRANCH   1  14
ATOM      9  C   UNL     1      -3.845  -7.683  -0.745  0.00  0.00    +0.044 C 
ATOM     10  C   UNL     1      -3.454  -7.342   0.670  0.00  0.00    -0.040 A 
ATOM     11  C   UNL     1      -4.374  -7.447   1.696  0.00  0.00    +0.011 A 
ATOM     12  C   UNL     1      -3.990  -7.133   2.957  0.00  0.00    +0.046 A 
ATOM     13  S   UNL     1      -2.279  -6.678   2.720  0.00  0.00    -0.101 S 
ATOM     14  C   UNL     1      -2.195  -6.928   0.955  0.00  0.00    -0.000 A 
ENDBRANCH   1  14
BRANCH   4  15
ATOM     15  C   UNL     1       0.712  -3.408  -0.100  0.00  0.00    -0.004 A 
ATOM     16  C   UNL     1      -0.390  -2.553  -0.179  0.00  0.00    +0.013 A 
ATOM     17  C   UNL     1      -0.199  -1.191  -0.249  0.00  0.00    +0.046 A 
ATOM     18  C   UNL     1       1.088  -0.667  -0.240  0.00  0.00    +0.120 A 
ATOM     19  C   UNL     1       2.187  -1.514  -0.166  0.00  0.00    +0.046 A 
ATOM     20  C   UNL     1       2.005  -2.877  -0.091  0.00  0.00    +0.013 A 
BRANCH  18  21
ATOM     21  O   UNL     1       1.273   0.677  -0.309  0.00  0.00    -0.495 OA
ATOM     22  C   UNL     1       2.622   1.148  -0.295  0.00  0.00    +0.277 C 
ENDBRANCH  18  21
ENDBRANCH   4  15
BRANCH   2  23
ATOM     23  C   UNL     1       2.442  -8.131   0.123  0.00  0.00    -0.019 A 
ATOM     24  C   UNL     1       2.392  -8.809   1.326  0.00  0.00    +0.005 A 
ATOM     25  C   UNL     1       3.414  -9.671   1.679  0.00  0.00    +0.000 A 
ATOM     26  C   UNL     1       4.495  -9.847   0.834  0.00  0.00    +0.004 A 
ATOM     27  C   UNL     1       4.552  -9.168  -0.367  0.00  0.00    +0.045 A 
ATOM     28  C   UNL     1       3.525  -8.307  -0.726  0.00  0.00    +0.118 A 
BRANCH  28  29
ATOM     29  O   UNL     1       3.580  -7.636  -1.907  0.00  0.00    -0.507 OA
ATOM     30  H   UNL     1       4.016  -6.775  -1.850  0.00  0.00    +0.292 HD
ENDBRANCH  28  29
ENDBRANCH   2  23
TORSDOF 5
