REMARK  Name = ZINC04192200
REMARK  12 active torsions:
REMARK  status: ('A' for Active; 'I' for Inactive)
REMARK    1  A    between atoms: C_1  and  C_2
REMARK    2  A    between atoms: C_2  and  C_4
REMARK    3  A    between atoms: C_2  and  N_11
REMARK    4  A    between atoms: N_6  and  C_7
REMARK    5  A    between atoms: C_7  and  C_8
REMARK    6  A    between atoms: C_7  and  C_9
REMARK    7  A    between atoms: C_7  and  C_10
REMARK    8  A    between atoms: N_11  and  C_12
REMARK    9  A    between atoms: C_12  and  C_13
REMARK   10  A    between atoms: C_19  and  C_21
REMARK   11  A    between atoms: C_22  and  N_29
REMARK   12  A    between atoms: C_23  and  C_26
REMARK                            x       y       z     vdW  Elec       q    Type
REMARK                         _______ _______ _______ _____ _____    ______ ____
ROOT
ATOM      1  N   UNL     1       3.157   3.571  -0.584  0.00  0.00    -0.283 N 
ATOM      2  C   UNL     1       3.931   3.166  -1.610  0.00  0.00    +0.257 C 
ATOM      3  O   UNL     1       5.134   3.347  -1.573  0.00  0.00    -0.269 OA
ENDROOT
BRANCH   2   4
ATOM      4  C   UNL     1       3.325   2.510  -2.770  0.00  0.00    +0.115 A 
ATOM      5  C   UNL     1       3.941   1.929  -3.880  0.00  0.00    +0.076 A 
ATOM      6  C   UNL     1       3.021   1.397  -4.784  0.00  0.00    +0.155 A 
ATOM      7  N   UNL     1       1.735   1.495  -4.526  0.00  0.00    -0.203 NA
ATOM      8  S   UNL     1       1.604   2.246  -3.147  0.00  0.00    +0.019 S 
BRANCH   6   9
ATOM      9  C   UNL     1       3.485   0.736  -6.018  0.00  0.00    +0.262 C 
ATOM     10  O   UNL     1       4.675   0.649  -6.249  0.00  0.00    -0.269 OA
ATOM     11  N   UNL     1       2.589   0.229  -6.888  0.00  0.00    -0.324 N 
ATOM     12  H   UNL     1       1.640   0.299  -6.703  0.00  0.00    +0.145 HD
ATOM     13  H   UNL     1       2.895  -0.205  -7.700  0.00  0.00    +0.145 HD
ENDBRANCH   6   9
BRANCH   5  14
ATOM     14  N   UNL     1       5.316   1.883  -4.063  0.00  0.00    -0.355 N 
ATOM     15  H   UNL     1       5.907   2.269  -3.398  0.00  0.00    +0.142 HD
ATOM     16  H   UNL     1       5.686   1.465  -4.856  0.00  0.00    +0.142 HD
ENDBRANCH   5  14
ENDBRANCH   2   4
BRANCH   1  18
ATOM     17  C   UNL     1       3.545   3.558   1.831  0.00  0.00    +0.038 C 
ATOM     18  C   UNL     1       3.745   4.327   0.524  0.00  0.00    +0.159 C 
BRANCH  18  19
ATOM     19  C   UNL     1       3.075   5.673   0.625  0.00  0.00    +0.234 C 
ATOM     20  O   UNL     1       2.192   5.971  -0.151  0.00  0.00    -0.274 OA
ATOM     21  N   UNL     1       3.456   6.546   1.579  0.00  0.00    -0.309 N 
ATOM     22  H   UNL     1       4.162   6.308   2.200  0.00  0.00    +0.149 HD
BRANCH  21  23
ATOM     23  C   UNL     1       2.804   7.854   1.678  0.00  0.00    +0.026 C 
ATOM     24  C   UNL     1       1.308   7.660   1.931  0.00  0.00    +0.031 C 
ATOM     25  C   UNL     1       3.419   8.644   2.835  0.00  0.00    +0.031 C 
ATOM     26  C   UNL     1       3.005   8.624   0.371  0.00  0.00    +0.031 C 
ENDBRANCH  21  23
ENDBRANCH  18  19
ENDBRANCH   1  18
BRANCH   1  27
ATOM     27  C   UNL     1       1.726   3.254  -0.576  0.00  0.00    +0.140 C 
BRANCH  27  28
ATOM     28  C   UNL     1       1.521   1.836  -0.038  0.00  0.00    +0.136 C 
ATOM     29  C   UNL     1       0.015   1.473  -0.019  0.00  0.00    +0.035 C 
ATOM     30  C   UNL     1       0.053  -0.073  -0.086  0.00  0.00    +0.031 C 
ATOM     31  C   UNL     1       1.445  -0.392  -0.666  0.00  0.00    +0.160 C 
ATOM     32  O   UNL     1       2.091   0.863  -0.940  0.00  0.00    -0.375 OA
ENDBRANCH  27  28
ENDBRANCH   1  27
TORSDOF 8
