REMARK  Name = ZINC35863200
REMARK  7 active torsions:
REMARK  status: ('A' for Active; 'I' for Inactive)
REMARK    1  A    between atoms: C_1  and  N_2
REMARK    2  A    between atoms: C_8  and  C_10
REMARK    3  A    between atoms: C_13  and  C_15
REMARK    4  A    between atoms: C_15  and  O_16
REMARK    5  A    between atoms: O_16  and  C_17
REMARK    6  A    between atoms: C_23  and  C_33
REMARK    7  A    between atoms: C_28  and  C_30
REMARK                            x       y       z     vdW  Elec       q    Type
REMARK                         _______ _______ _______ _____ _____    ______ ____
ROOT
ATOM      1  C   UNL     1       3.917  -2.703   6.595  0.00  0.00    +0.121 A 
ATOM      2  C   UNL     1       3.149  -3.433   7.491  0.00  0.00    +0.046 A 
ATOM      3  C   UNL     1       3.194  -3.130   8.835  0.00  0.00    +0.007 A 
ATOM      4  C   UNL     1       4.004  -2.102   9.303  0.00  0.00    -0.040 A 
ATOM      5  C   UNL     1       4.773  -1.384   8.415  0.00  0.00    -0.016 A 
ATOM      6  C   UNL     1       4.729  -1.684   7.061  0.00  0.00    +0.051 A 
ATOM      7  C   UNL     1       5.695  -0.276   8.859  0.00  0.00    +0.137 C 
ATOM      8  N   UNL     1       5.417   0.067  10.258  0.00  0.00    -0.290 N 
ATOM      9  C   UNL     1       5.235  -1.046  11.204  0.00  0.00    +0.113 C 
ATOM     10  C   UNL     1       3.987  -1.821  10.783  0.00  0.00    +0.054 C 
ATOM     11  C   UNL     1       5.332   1.351  10.662  0.00  0.00    +0.219 C 
ATOM     12  O   UNL     1       5.485   2.249   9.862  0.00  0.00    -0.275 OA
ENDROOT
BRANCH   7  13
ATOM     13  C   UNL     1       7.125  -0.731   8.730  0.00  0.00    -0.023 A 
ATOM     14  C   UNL     1       8.026   0.018   7.996  0.00  0.00    +0.006 A 
ATOM     15  C   UNL     1       9.338  -0.400   7.878  0.00  0.00    +0.000 A 
ATOM     16  C   UNL     1       9.750  -1.567   8.494  0.00  0.00    +0.000 A 
ATOM     17  C   UNL     1       8.850  -2.316   9.229  0.00  0.00    +0.000 A 
ATOM     18  C   UNL     1       7.539  -1.896   9.351  0.00  0.00    +0.006 A 
ENDBRANCH   7  13
BRANCH  11  19
ATOM     19  C   UNL     1       5.045   1.669  12.106  0.00  0.00    +0.075 C 
ATOM     20  C   UNL     1       3.689   2.295  12.436  0.00  0.00    +0.013 C 
ATOM     21  C   UNL     1       4.960   3.144  12.502  0.00  0.00    +0.013 C 
ENDBRANCH  11  19
BRANCH   1  22
ATOM     22  O   UNL     1       3.875  -2.991   5.267  0.00  0.00    -0.484 OA
BRANCH  22  23
ATOM     23  C   UNL     1       3.013  -4.056   4.860  0.00  0.00    +0.303 C 
BRANCH  23  27
ATOM     24  C   UNL     1       2.682  -4.002   1.224  0.00  0.00    +0.190 A 
ATOM     25  C   UNL     1       3.707  -4.896   1.342  0.00  0.00    +0.055 A 
ATOM     26  C   UNL     1       3.966  -5.034   2.715  0.00  0.00    +0.049 A 
ATOM     27  C   UNL     1       3.099  -4.228   3.366  0.00  0.00    +0.143 A 
ATOM     28  O   UNL     1       2.330  -3.604   2.463  0.00  0.00    -0.452 OA
BRANCH  24  36
ATOM     29  C   UNL     1       0.089   1.485  -0.075  0.00  0.00    -0.096 C 
ATOM     30  N   UNL     1       0.076   0.016  -0.039  0.00  0.00    +0.380 N 
ATOM     31  C   UNL     1       0.710  -0.507  -1.255  0.00  0.00    -0.060 C 
ATOM     32  C   UNL     1       0.595  -2.035  -1.273  0.00  0.00    +0.089 C 
ATOM     33  N   UNL     1       1.159  -2.560  -0.019  0.00  0.00    -0.299 N 
ATOM     34  C   UNL     1       0.697  -1.973   1.248  0.00  0.00    +0.089 C 
ATOM     35  C   UNL     1       0.807  -0.449   1.147  0.00  0.00    -0.060 C 
ATOM     36  C   UNL     1       2.074  -3.550  -0.032  0.00  0.00    +0.282 C 
ATOM     37  O   UNL     1       2.395  -4.068  -1.085  0.00  0.00    -0.267 OA
ATOM     38  H   UNL     1      -0.878  -0.309   0.007  0.00  0.00    -0.082 HD
ENDBRANCH  24  36
ENDBRANCH  23  27
ENDBRANCH  22  23
ENDBRANCH   1  22
TORSDOF 6
