REMARK  Name = ZINC56710726
REMARK  11 active torsions:
REMARK  status: ('A' for Active; 'I' for Inactive)
REMARK    1  A    between atoms: C_1  and  C_2
REMARK    2  A    between atoms: C_4  and  O_23
REMARK    3  A    between atoms: C_7  and  N_8
REMARK    4  A    between atoms: N_11  and  C_12
REMARK    5  A    between atoms: C_12  and  C_13
REMARK    6  A    between atoms: C_13  and  C_15
REMARK    7  A    between atoms: C_13  and  N_20
REMARK    8  A    between atoms: N_20  and  C_21
REMARK    9  A    between atoms: N_20  and  C_22
REMARK   10  A    between atoms: O_23  and  C_24
REMARK   11  A    between atoms: C_24  and  C_25
REMARK                            x       y       z     vdW  Elec       q    Type
REMARK                         _______ _______ _______ _____ _____    ______ ____
ROOT
ATOM      1  N   UNL     1       0.182   0.046   2.440  0.00  0.00    -0.269 N 
ATOM      2  C   UNL     1       0.044  -0.645   3.589  0.00  0.00    +0.304 C 
ATOM      3  O   UNL     1       0.029  -1.860   3.570  0.00  0.00    -0.253 OA
ATOM      4  N   UNL     1      -0.077   0.012   4.760  0.00  0.00    -0.300 N 
ATOM      5  H   UNL     1       0.250   1.013   2.461  0.00  0.00    +0.156 HD
ATOM      6  H   UNL     1      -0.065   0.982   4.775  0.00  0.00    +0.150 HD
ENDROOT
BRANCH   1  13
ATOM      7  C   UNL     1      -0.990   1.294   0.169  0.00  0.00    +0.046 C 
ATOM      8  C   UNL     1      -0.334  -0.060   0.082  0.00  0.00    -0.026 A 
ATOM      9  C   UNL     1      -0.285  -0.728  -1.126  0.00  0.00    +0.050 A 
ATOM     10  C   UNL     1       0.318  -1.974  -1.206  0.00  0.00    +0.122 A 
ATOM     11  C   UNL     1       0.872  -2.551  -0.072  0.00  0.00    +0.047 A 
ATOM     12  C   UNL     1       0.824  -1.884   1.136  0.00  0.00    +0.027 A 
ATOM     13  C   UNL     1       0.226  -0.634   1.215  0.00  0.00    +0.038 A 
BRANCH  10  14
ATOM     14  O   UNL     1       0.366  -2.631  -2.396  0.00  0.00    -0.483 OA
BRANCH  14  15
ATOM     15  C   UNL     1       1.002  -3.910  -2.405  0.00  0.00    +0.324 C 
BRANCH  15  16
ATOM     16  C   UNL     1       0.960  -4.482  -3.799  0.00  0.00    +0.248 C 
ATOM     17  O   UNL     1       0.436  -3.856  -4.695  0.00  0.00    -0.272 OA
ATOM     18  N   UNL     1       1.504  -5.690  -4.048  0.00  0.00    -0.327 N 
ATOM     19  H   UNL     1       1.923  -6.191  -3.331  0.00  0.00    +0.145 HD
ATOM     20  H   UNL     1       1.476  -6.058  -4.945  0.00  0.00    +0.145 HD
ENDBRANCH  15  16
ENDBRANCH  14  15
ENDBRANCH  10  14
ENDBRANCH   1  13
BRANCH   4  21
ATOM     21  C   UNL     1      -0.227  -0.738   6.009  0.00  0.00    +0.095 C 
BRANCH  21  22
ATOM     22  C   UNL     1      -0.470   0.236   7.163  0.00  0.00    -0.014 C 
BRANCH  22  23
ATOM     23  C   UNL     1      -1.757   0.983   6.928  0.00  0.00    -0.022 A 
ATOM     24  C   UNL     1      -1.941   2.232   6.434  0.00  0.00    +0.009 A 
ATOM     25  C   UNL     1      -3.228   2.718   6.302  0.00  0.00    +0.008 A 
ATOM     26  C   UNL     1      -4.269   1.932   6.671  0.00  0.00    +0.045 A 
ATOM     27  S   UNL     1      -3.436   0.451   7.219  0.00  0.00    -0.103 S 
ENDBRANCH  22  23
BRANCH  22  28
ATOM     28  N   UNL     1      -0.562  -0.512   8.424  0.00  0.00    +0.382 N 
ATOM     29  C   UNL     1       0.730  -1.150   8.710  0.00  0.00    -0.096 C 
ATOM     30  C   UNL     1      -0.905   0.409   9.516  0.00  0.00    -0.096 C 
ATOM     31  H   UNL     1      -1.277  -1.220   8.344  0.00  0.00    -0.082 HD
ENDBRANCH  22  28
ENDBRANCH  21  22
ENDBRANCH   4  21
TORSDOF 8
