REMARK  Name = ZINC56902846
REMARK  9 active torsions:
REMARK  status: ('A' for Active; 'I' for Inactive)
REMARK    1  A    between atoms: C_1  and  N_2
REMARK    2  A    between atoms: N_2  and  C_3
REMARK    3  A    between atoms: N_2  and  C_4
REMARK    4  A    between atoms: C_4  and  C_5
REMARK    5  A    between atoms: C_5  and  N_6
REMARK    6  A    between atoms: C_12  and  O_16
REMARK    7  A    between atoms: O_16  and  C_17
REMARK    8  A    between atoms: N_23  and  C_24
REMARK    9  A    between atoms: C_27  and  C_30
REMARK                            x       y       z     vdW  Elec       q    Type
REMARK                         _______ _______ _______ _____ _____    ______ ____
ROOT
ATOM      1  N   UNL     1      -2.730  -2.550  -0.112  0.00  0.00    -0.236 N 
ATOM      2  C   UNL     1      -3.429  -2.683  -1.301  0.00  0.00    +0.169 A 
ATOM      3  N   UNL     1      -3.028  -2.424  -2.524  0.00  0.00    -0.224 NA
ATOM      4  C   UNL     1      -3.824  -2.604  -3.602  0.00  0.00    +0.081 A 
ATOM      5  C   UNL     1      -3.517  -2.365  -4.962  0.00  0.00    +0.032 A 
ATOM      6  C   UNL     1      -4.444  -2.600  -5.942  0.00  0.00    +0.048 A 
ATOM      7  C   UNL     1      -5.715  -3.079  -5.639  0.00  0.00    +0.131 A 
ATOM      8  C   UNL     1      -6.049  -3.325  -4.315  0.00  0.00    +0.063 A 
ATOM      9  C   UNL     1      -5.122  -3.090  -3.330  0.00  0.00    +0.044 A 
ATOM     10  S   UNL     1      -5.100  -3.259  -1.561  0.00  0.00    -0.052 S 
ATOM     11  C   UNL     1      -3.319  -2.877   1.056  0.00  0.00    +0.312 C 
ATOM     12  O   UNL     1      -4.463  -3.289   1.065  0.00  0.00    -0.252 OA
ATOM     13  N   UNL     1      -2.640  -2.747   2.212  0.00  0.00    -0.269 N 
ATOM     14  H   UNL     1      -1.707  -2.482   2.200  0.00  0.00    +0.156 HD
ENDROOT
BRANCH  13  15
ATOM     15  C   UNL     1      -3.281  -2.994   3.432  0.00  0.00    +0.035 A 
ATOM     16  C   UNL     1      -2.960  -2.240   4.552  0.00  0.00    +0.024 A 
ATOM     17  C   UNL     1      -3.594  -2.487   5.754  0.00  0.00    +0.014 A 
ATOM     18  C   UNL     1      -4.549  -3.484   5.842  0.00  0.00    +0.055 A 
ATOM     19  C   UNL     1      -4.871  -4.237   4.728  0.00  0.00    +0.014 A 
ATOM     20  C   UNL     1      -4.244  -3.991   3.522  0.00  0.00    +0.024 A 
BRANCH  18  21
ATOM     21  C   UNL     1      -5.239  -3.751   7.155  0.00  0.00    +0.417 C 
ATOM     22  F   UNL     1      -6.391  -2.963   7.245  0.00  0.00    -0.166 F 
ATOM     23  F   UNL     1      -5.591  -5.103   7.230  0.00  0.00    -0.166 F 
ATOM     24  F   UNL     1      -4.374  -3.435   8.209  0.00  0.00    -0.166 F 
ENDBRANCH  18  21
ENDBRANCH  13  15
BRANCH   1  25
ATOM     25  C   UNL     1      -1.352  -2.053  -0.123  0.00  0.00    +0.099 C 
BRANCH  25  26
ATOM     26  C   UNL     1      -1.359  -0.528   0.007  0.00  0.00    -0.060 C 
BRANCH  26  28
ATOM     27  C   UNL     1       0.014   1.439  -0.001  0.00  0.00    -0.097 C 
ATOM     28  N   UNL     1       0.023  -0.030  -0.005  0.00  0.00    +0.377 N 
ATOM     29  C   UNL     1       0.730  -0.519   1.187  0.00  0.00    -0.097 C 
ATOM     30  H   UNL     1       0.493  -0.361  -0.834  0.00  0.00    -0.083 HD
ENDBRANCH  26  28
ENDBRANCH  25  26
ENDBRANCH   1  25
BRANCH   7  31
ATOM     31  O   UNL     1      -6.620  -3.305  -6.629  0.00  0.00    -0.406 OA
BRANCH  31  32
ATOM     32  C   UNL     1      -6.200  -3.027  -7.967  0.00  0.00    +0.575 C 
ATOM     33  F   UNL     1      -5.092  -3.821  -8.282  0.00  0.00    -0.133 F 
ATOM     34  F   UNL     1      -7.245  -3.313  -8.852  0.00  0.00    -0.133 F 
ATOM     35  F   UNL     1      -5.852  -1.677  -8.076  0.00  0.00    -0.133 F 
ENDBRANCH  31  32
ENDBRANCH   7  31
TORSDOF 7
