REMARK  Name = ZINC33904199
REMARK  13 active torsions:
REMARK  status: ('A' for Active; 'I' for Inactive)
REMARK    1  A    between atoms: C_1  and  C_2
REMARK    2  A    between atoms: C_2  and  C_3
REMARK    3  A    between atoms: C_3  and  C_4
REMARK    4  A    between atoms: C_4  and  N_5
REMARK    5  A    between atoms: C_10  and  C_28
REMARK    6  A    between atoms: C_13  and  C_18
REMARK    7  A    between atoms: C_13  and  C_25
REMARK    8  A    between atoms: C_18  and  C_19
REMARK    9  A    between atoms: C_19  and  C_20
REMARK   10  A    between atoms: C_20  and  N_21
REMARK   11  A    between atoms: C_31  and  O_36
REMARK   12  A    between atoms: C_32  and  O_34
REMARK   13  A    between atoms: O_34  and  C_35
REMARK                            x       y       z     vdW  Elec       q    Type
REMARK                         _______ _______ _______ _____ _____    ______ ____
ROOT
ATOM      1  N   UNL     1       1.830  -2.312  -2.156  0.00  0.00    -0.242 N 
ATOM      2  C   UNL     1       1.030  -2.485  -3.259  0.00  0.00    +0.224 C 
ATOM      3  O   UNL     1      -0.092  -2.062  -3.434  0.00  0.00    -0.275 OA
ATOM      4  C   UNL     1       1.825  -3.282  -4.164  0.00  0.00    +0.077 C 
ATOM      5  C   UNL     1       1.892  -3.643  -5.587  0.00  0.00    -0.027 C 
ATOM      6  N   UNL     1       3.292  -4.147  -5.776  0.00  0.00    +0.395 N 
ATOM      7  C   UNL     1       4.024  -3.942  -4.484  0.00  0.00    +0.048 C 
ATOM      8  C   UNL     1       3.280  -2.731  -3.881  0.00  0.00    +0.086 C 
ATOM      9  C   UNL     1       3.130  -2.661  -2.386  0.00  0.00    +0.225 C 
ATOM     10  O   UNL     1       3.987  -2.874  -1.556  0.00  0.00    -0.275 OA
ATOM     11  H   UNL     1       3.275  -5.129  -6.008  0.00  0.00    -0.083 HD
ATOM     12  H   UNL     1       3.746  -3.627  -6.513  0.00  0.00    -0.083 HD
ENDROOT
BRANCH   5  13
ATOM     13  C   UNL     1       1.643  -2.433  -6.450  0.00  0.00    -0.057 A 
ATOM     14  C   UNL     1       2.664  -1.532  -6.685  0.00  0.00    +0.006 A 
ATOM     15  C   UNL     1       2.441  -0.420  -7.476  0.00  0.00    +0.049 A 
ATOM     16  C   UNL     1       1.191  -0.209  -8.037  0.00  0.00    +0.158 A 
ATOM     17  C   UNL     1       0.163  -1.117  -7.801  0.00  0.00    +0.161 A 
ATOM     18  C   UNL     1       0.395  -2.231  -7.011  0.00  0.00    +0.051 A 
BRANCH  17  19
ATOM     19  O   UNL     1      -1.065  -0.913  -8.349  0.00  0.00    -0.491 OA
ATOM     20  C   UNL     1      -2.071  -1.887  -8.064  0.00  0.00    +0.277 C 
ENDBRANCH  17  19
BRANCH  16  21
ATOM     21  O   UNL     1       0.970   0.884  -8.815  0.00  0.00    -0.503 OA
ATOM     22  H   UNL     1       1.148   0.741  -9.754  0.00  0.00    +0.292 HD
ENDBRANCH  16  21
ENDBRANCH   5  13
BRANCH   7  23
ATOM     23  C   UNL     1       5.469  -3.599  -4.737  0.00  0.00    +0.346 C 
ATOM     24  O   UNL     1       5.893  -3.549  -5.879  0.00  0.00    -0.248 OA
ATOM     25  O   UNL     1       6.215  -3.371  -3.799  0.00  0.00    -0.248 OA
ENDBRANCH   7  23
BRANCH   1  26
ATOM     26  C   UNL     1       1.341  -1.802  -0.873  0.00  0.00    +0.116 C 
BRANCH  26  27
ATOM     27  C   UNL     1       1.458  -0.276  -0.853  0.00  0.00    +0.019 C 
BRANCH  27  29
ATOM     28  C   UNL     1       1.065   1.782   0.508  0.00  0.00    +0.004 C 
ATOM     29  C   UNL     1       0.948   0.256   0.488  0.00  0.00    -0.002 C 
ENDBRANCH  27  29
ENDBRANCH  26  27
ENDBRANCH   1  26
BRANCH   7  30
ATOM     30  C   UNL     1       3.907  -5.180  -3.593  0.00  0.00    +0.001 C 
BRANCH  30  31
ATOM     31  C   UNL     1       4.592  -6.366  -4.275  0.00  0.00    +0.018 C 
BRANCH  31  32
ATOM     32  C   UNL     1       4.475  -7.604  -3.384  0.00  0.00    +0.105 C 
BRANCH  32  33
ATOM     33  N   UNL     1       5.131  -8.740  -4.038  0.00  0.00    -0.300 N 
ATOM     34  C   UNL     1       5.153  -9.944  -3.433  0.00  0.00    +0.297 C 
ATOM     35  O   UNL     1       4.629 -10.088  -2.345  0.00  0.00    -0.253 OA
ATOM     36  N   UNL     1       5.756 -10.989  -4.034  0.00  0.00    -0.313 N 
ATOM     37  H   UNL     1       5.549  -8.625  -4.905  0.00  0.00    +0.150 HD
ATOM     38  H   UNL     1       6.174 -10.874  -4.902  0.00  0.00    +0.146 HD
ATOM     39  H   UNL     1       5.772 -11.856  -3.599  0.00  0.00    +0.146 HD
ENDBRANCH  32  33
ENDBRANCH  31  32
ENDBRANCH  30  31
ENDBRANCH   7  30
TORSDOF 11
