REMARK  Name = ZINC05573004
REMARK  11 active torsions:
REMARK  status: ('A' for Active; 'I' for Inactive)
REMARK    1  A    between atoms: C_1  and  C_2
REMARK    2  A    between atoms: C_2  and  C_4
REMARK    3  A    between atoms: C_4  and  O_32
REMARK    4  A    between atoms: C_8  and  O_25
REMARK    5  A    between atoms: C_11  and  O_12
REMARK    6  A    between atoms: C_19  and  O_23
REMARK    7  A    between atoms: O_23  and  C_24
REMARK    8  A    between atoms: C_26  and  O_29
REMARK    9  A    between atoms: O_29  and  C_30
REMARK   10  A    between atoms: C_30  and  C_31
REMARK   11  A    between atoms: C_31  and  N_55
REMARK                            x       y       z     vdW  Elec       q    Type
REMARK                         _______ _______ _______ _____ _____    ______ ____
ROOT
ATOM      1  C   UNL     1       7.376   1.461  -0.472  0.00  0.00    +0.130 C 
ATOM      2  C   UNL     1       6.221   2.367  -0.052  0.00  0.00    +0.082 C 
ATOM      3  C   UNL     1       4.916   1.615  -0.086  0.00  0.00    +0.007 A 
ATOM      4  C   UNL     1       4.853   0.244  -0.093  0.00  0.00    +0.030 A 
ATOM      5  C   UNL     1       3.611  -0.402  -0.109  0.00  0.00    +0.134 A 
ATOM      6  C   UNL     1       2.429   0.336  -0.122  0.00  0.00    +0.078 A 
ATOM      7  C   UNL     1       2.492   1.744  -0.120  0.00  0.00    +0.078 A 
ATOM      8  C   UNL     1       3.736   2.372  -0.102  0.00  0.00    +0.132 A 
ATOM      9  C   UNL     1       1.252   2.538  -0.136  0.00  0.00    +0.198 C 
ATOM     10  O   UNL     1       1.306   3.752  -0.135  0.00  0.00    -0.286 OA
ATOM     11  C   UNL     1      -0.059   1.855  -0.153  0.00  0.00    +0.037 A 
ATOM     12  C   UNL     1      -1.236   2.596  -0.161  0.00  0.00    +0.012 A 
ATOM     13  C   UNL     1      -2.462   1.951  -0.183  0.00  0.00    +0.004 A 
ATOM     14  C   UNL     1      -2.529   0.573  -0.185  0.00  0.00    +0.046 A 
ATOM     15  C   UNL     1      -1.365  -0.189  -0.172  0.00  0.00    +0.132 A 
ATOM     16  C   UNL     1      -0.120   0.449  -0.155  0.00  0.00    +0.075 A 
ATOM     17  C   UNL     1       1.122  -0.345  -0.139  0.00  0.00    +0.202 C 
ATOM     18  O   UNL     1       1.068  -1.560  -0.141  0.00  0.00    -0.286 OA
ATOM     19  C   UNL     1       6.086  -0.624  -0.094  0.00  0.00    +0.155 C 
ATOM     20  C   UNL     1       7.306   0.174   0.359  0.00  0.00    +0.079 C 
ENDROOT
BRANCH   1  22
ATOM     21  C   UNL     1       8.476   0.734  -2.724  0.00  0.00    +0.089 C 
ATOM     22  C   UNL     1       7.254   1.128  -1.936  0.00  0.00    +0.162 C 
ATOM     23  O   UNL     1       6.176   1.177  -2.478  0.00  0.00    -0.295 OA
ENDBRANCH   1  22
BRANCH   8  24
ATOM     24  O   UNL     1       3.806   3.726  -0.100  0.00  0.00    -0.506 OA
ATOM     25  H   UNL     1       3.838   4.119  -0.983  0.00  0.00    +0.292 HD
ENDBRANCH   8  24
BRANCH  15  26
ATOM     26  O   UNL     1      -1.436  -1.543  -0.174  0.00  0.00    -0.494 OA
ATOM     27  C   UNL     1      -2.741  -2.123  -0.192  0.00  0.00    +0.277 C 
ENDBRANCH  15  26
BRANCH   5  28
ATOM     28  O   UNL     1       3.557  -1.757  -0.111  0.00  0.00    -0.506 OA
ATOM     29  H   UNL     1       3.481  -2.147  -0.992  0.00  0.00    +0.292 HD
ENDBRANCH   5  28
BRANCH   1  30
ATOM     30  O   UNL     1       8.620   2.123  -0.230  0.00  0.00    -0.381 OA
ATOM     31  H   UNL     1       8.722   2.955  -0.712  0.00  0.00    +0.211 HD
ENDBRANCH   1  30
BRANCH  19  32
ATOM     32  O   UNL     1       5.886  -1.725   0.794  0.00  0.00    -0.374 OA
BRANCH  32  33
ATOM     33  C   UNL     1       6.661  -2.881   0.470  0.00  0.00    +0.141 C 
BRANCH  33  34
ATOM     34  C   UNL     1       6.464  -3.946   1.550  0.00  0.00    -0.058 C 
BRANCH  34  37
ATOM     35  H   UNL     1       4.802  -4.737   0.629  0.00  0.00    -0.090 HD
ATOM     36  H   UNL     1       4.911  -5.104   2.247  0.00  0.00    -0.090 HD
ATOM     37  N   UNL     1       5.055  -4.378   1.548  0.00  0.00    +0.380 N 
ATOM     38  H   UNL     1       4.456  -3.575   1.770  0.00  0.00    -0.090 HD
ENDBRANCH  34  37
ENDBRANCH  33  34
ENDBRANCH  32  33
ENDBRANCH  19  32
TORSDOF 9
