REMARK  Name = ZINC03840077
REMARK  14 active torsions:
REMARK  status: ('A' for Active; 'I' for Inactive)
REMARK    1  A    between atoms: C_1  and  C_2
REMARK    2  A    between atoms: C_2  and  C_3
REMARK    3  A    between atoms: C_2  and  C_4
REMARK    4  A    between atoms: C_4  and  C_6
REMARK    5  A    between atoms: C_4  and  N_59
REMARK    6  A    between atoms: N_8  and  C_9
REMARK    7  A    between atoms: C_12  and  C_20
REMARK    8  A    between atoms: C_14  and  O_19
REMARK    9  A    between atoms: C_16  and  O_18
REMARK   10  A    between atoms: N_22  and  C_23
REMARK   11  A    between atoms: C_23  and  C_25
REMARK   12  A    between atoms: C_23  and  C_31
REMARK   13  A    between atoms: C_25  and  C_26
REMARK   14  A    between atoms: C_34  and  N_59
REMARK                            x       y       z     vdW  Elec       q    Type
REMARK                         _______ _______ _______ _____ _____    ______ ____
ROOT
ATOM      1  C   UNL     1      -5.545   2.611  -0.006  0.00  0.00    +0.127 C 
ATOM      2  C   UNL     1      -4.115   2.911  -0.349  0.00  0.00    +0.006 C 
ATOM      3  C   UNL     1      -3.607   4.124  -0.370  0.00  0.00    +0.015 C 
ATOM      4  C   UNL     1      -4.392   5.364  -0.058  0.00  0.00    +0.074 C 
ATOM      5  C   UNL     1      -5.687   5.000   0.669  0.00  0.00    +0.149 C 
ATOM      6  C   UNL     1      -6.390   3.882  -0.112  0.00  0.00    +0.167 C 
ENDROOT
BRANCH   1   9
ATOM      7  C   UNL     1      -5.420   0.779   1.596  0.00  0.00    +0.200 C 
ATOM      8  O   UNL     1      -5.272   0.013   0.667  0.00  0.00    -0.278 OA
ATOM      9  N   UNL     1      -5.618   2.092   1.362  0.00  0.00    -0.308 N 
ATOM     10  H   UNL     1      -5.808   2.692   2.099  0.00  0.00    +0.149 HD
BRANCH   7  11
ATOM     11  C   UNL     1      -5.384   0.263   3.011  0.00  0.00    +0.018 C 
BRANCH  11  13
ATOM     12  C   UNL     1      -6.560  -1.576   4.058  0.00  0.00    -0.099 C 
ATOM     13  N   UNL     1      -5.603  -1.196   3.002  0.00  0.00    +0.385 N 
ATOM     14  H   UNL     1      -4.710  -1.673   3.167  0.00  0.00    -0.085 HD
ATOM     15  H   UNL     1      -5.978  -1.476   2.088  0.00  0.00    -0.085 HD
ENDBRANCH  11  13
BRANCH  11  17
ATOM     16  C   UNL     1      -3.979   0.041   5.065  0.00  0.00    +0.006 C 
ATOM     17  C   UNL     1      -4.018   0.568   3.630  0.00  0.00    -0.023 C 
ATOM     18  C   UNL     1      -2.922  -0.113   2.807  0.00  0.00    +0.006 C 
ENDBRANCH  11  17
ENDBRANCH   7  11
ENDBRANCH   1   9
BRANCH   3  19
ATOM     19  C   UNL     1      -2.184   4.273  -0.714  0.00  0.00    +0.241 C 
ATOM     20  O   UNL     1      -1.514   3.291  -0.969  0.00  0.00    -0.271 OA
ATOM     21  N   UNL     1      -1.625   5.499  -0.753  0.00  0.00    -0.300 N 
ATOM     22  H   UNL     1      -2.160   6.282  -0.550  0.00  0.00    +0.150 HD
BRANCH  21  23
ATOM     23  C   UNL     1      -0.210   5.648  -1.101  0.00  0.00    +0.164 C 
BRANCH  23  24
ATOM     24  C   UNL     1       0.634   5.460   0.133  0.00  0.00    +0.231 C 
ATOM     25  O   UNL     1       0.105   5.224   1.199  0.00  0.00    -0.274 OA
ATOM     26  N   UNL     1       1.976   5.553   0.053  0.00  0.00    -0.328 N 
ATOM     27  H   UNL     1       2.399   5.741  -0.799  0.00  0.00    +0.145 HD
ATOM     28  H   UNL     1       2.519   5.432   0.848  0.00  0.00    +0.145 HD
ENDBRANCH  23  24
BRANCH  23  29
ATOM     29  C   UNL     1       0.029   7.046  -1.675  0.00  0.00    +0.074 C 
BRANCH  29  30
ATOM     30  C   UNL     1      -0.719   7.191  -2.975  0.00  0.00    -0.008 A 
ATOM     31  C   UNL     1      -1.984   7.626  -3.187  0.00  0.00    +0.011 A 
ATOM     32  C   UNL     1      -2.466   7.679  -4.482  0.00  0.00    +0.008 A 
ATOM     33  C   UNL     1      -1.663   7.285  -5.499  0.00  0.00    +0.045 A 
ATOM     34  S   UNL     1      -0.170   6.825  -4.634  0.00  0.00    -0.102 S 
ENDBRANCH  29  30
ENDBRANCH  23  29
ENDBRANCH  21  23
ENDBRANCH   3  19
BRANCH   6  35
ATOM     35  O   UNL     1      -7.685   3.646   0.443  0.00  0.00    -0.387 OA
ATOM     36  H   UNL     1      -8.274   4.412   0.409  0.00  0.00    +0.210 HD
ENDBRANCH   6  35
BRANCH   5  37
ATOM     37  O   UNL     1      -6.538   6.146   0.739  0.00  0.00    -0.389 OA
ATOM     38  H   UNL     1      -6.155   6.892   1.220  0.00  0.00    +0.210 HD
ENDBRANCH   5  37
TORSDOF 11
