REMARK  Name = ZINC39632006
REMARK  12 active torsions:
REMARK  status: ('A' for Active; 'I' for Inactive)
REMARK    1  A    between atoms: C_1  and  C_2
REMARK    2  A    between atoms: C_2  and  C_4
REMARK    3  A    between atoms: C_2  and  N_11
REMARK    4  A    between atoms: C_4  and  C_5
REMARK    5  A    between atoms: C_5  and  C_6
REMARK    6  A    between atoms: C_6  and  C_7
REMARK    7  A    between atoms: C_7  and  C_8
REMARK    8  A    between atoms: C_7  and  C_9
REMARK    9  A    between atoms: C_7  and  O_10
REMARK   10  A    between atoms: C_12  and  C_14
REMARK   11  A    between atoms: C_25  and  C_27
REMARK   12  A    between atoms: C_30  and  C_32
REMARK                            x       y       z     vdW  Elec       q    Type
REMARK                         _______ _______ _______ _____ _____    ______ ____
ROOT
ATOM      1  C   UNL     1       0.735  -0.723  -3.442  0.00  0.00    +0.100 C 
ATOM      2  C   UNL     1       0.711  -2.258  -3.265  0.00  0.00    +0.121 C 
ATOM      3  N   UNL     1      -0.345  -2.725  -4.193  0.00  0.00    -0.294 N 
ATOM      4  C   UNL     1      -0.179  -1.878  -5.398  0.00  0.00    +0.115 C 
ATOM      5  C   UNL     1       0.154  -0.478  -4.845  0.00  0.00    -0.004 C 
ATOM      6  C   UNL     1       1.187   0.209  -5.732  0.00  0.00    -0.010 C 
ATOM      7  C   UNL     1       0.567   0.494  -7.103  0.00  0.00    -0.082 C 
ATOM      8  N   UNL     1      -0.614   1.351  -6.939  0.00  0.00    +0.379 N 
ATOM      9  C   UNL     1      -1.640   0.645  -6.162  0.00  0.00    -0.082 C 
ATOM     10  C   UNL     1      -1.114   0.366  -4.752  0.00  0.00    -0.010 C 
ATOM     11  C   UNL     1      -1.252  -3.701  -3.988  0.00  0.00    +0.282 C 
ATOM     12  O   UNL     1      -2.006  -4.029  -4.885  0.00  0.00    -0.267 OA
ATOM     13  H   UNL     1      -0.350   2.196  -6.456  0.00  0.00    -0.086 HD
ATOM     14  H   UNL     1      -0.985   1.587  -7.847  0.00  0.00    -0.086 HD
ENDROOT
BRANCH  11  15
ATOM     15  C   UNL     1      -1.331  -4.366  -2.685  0.00  0.00    +0.190 A 
ATOM     16  C   UNL     1      -2.136  -5.440  -2.372  0.00  0.00    +0.055 A 
ATOM     17  C   UNL     1      -1.893  -5.748  -1.030  0.00  0.00    +0.050 A 
ATOM     18  C   UNL     1      -0.959  -4.861  -0.576  0.00  0.00    +0.136 A 
ATOM     19  O   UNL     1      -0.624  -4.037  -1.583  0.00  0.00    -0.450 OA
BRANCH  18  20
ATOM     20  C   UNL     1      -0.405  -4.818   0.792  0.00  0.00    +0.017 A 
ATOM     21  C   UNL     1      -0.907  -5.670   1.778  0.00  0.00    +0.014 A 
ATOM     22  C   UNL     1      -0.386  -5.626   3.054  0.00  0.00    +0.039 A 
ATOM     23  C   UNL     1       0.634  -4.738   3.358  0.00  0.00    +0.123 A 
ATOM     24  C   UNL     1       1.136  -3.890   2.384  0.00  0.00    +0.039 A 
ATOM     25  C   UNL     1       0.626  -3.929   1.103  0.00  0.00    +0.014 A 
ATOM     26  F   UNL     1       1.141  -4.699   4.610  0.00  0.00    -0.205 F 
ENDBRANCH  18  20
ENDBRANCH  11  15
BRANCH   1  28
ATOM     27  N   UNL     1       0.095   1.227  -2.061  0.00  0.00    -0.312 N 
ATOM     28  C   UNL     1      -0.124  -0.061  -2.396  0.00  0.00    +0.218 C 
ATOM     29  O   UNL     1      -1.011  -0.686  -1.854  0.00  0.00    -0.275 OA
ATOM     30  H   UNL     1       0.754   1.748  -2.544  0.00  0.00    +0.149 HD
BRANCH  27  32
ATOM     31  C   UNL     1      -2.026   2.303  -1.490  0.00  0.00    +0.028 C 
ATOM     32  C   UNL     1      -0.665   1.838  -0.968  0.00  0.00    +0.070 C 
BRANCH  32  33
ATOM     33  C   UNL     1       0.108   3.039  -0.419  0.00  0.00    +0.022 C 
BRANCH  33  34
ATOM     34  C   UNL     1       1.425   2.560   0.195  0.00  0.00    +0.005 C 
BRANCH  34  35
ATOM     35  C   UNL     1       2.140   3.742   0.854  0.00  0.00    +0.034 C 
BRANCH  35  36
ATOM     36  C   UNL     1       3.390   3.241   1.580  0.00  0.00    +0.061 C 
ATOM     37  C   UNL     1       4.322   2.557   0.578  0.00  0.00    +0.041 C 
ATOM     38  C   UNL     1       4.115   4.425   2.223  0.00  0.00    +0.041 C 
BRANCH  36  39
ATOM     39  O   UNL     1       3.011   2.307   2.593  0.00  0.00    -0.389 OA
ATOM     40  H   UNL     1       2.419   2.674   3.264  0.00  0.00    +0.210 HD
ENDBRANCH  36  39
ENDBRANCH  35  36
ENDBRANCH  34  35
ENDBRANCH  33  34
ENDBRANCH  32  33
ENDBRANCH  27  32
ENDBRANCH   1  28
TORSDOF 9
