REMARK  Name = ZINC28467035
REMARK  6 active torsions:
REMARK  status: ('A' for Active; 'I' for Inactive)
REMARK    1  A    between atoms: C_1  and  C_2
REMARK    2  A    between atoms: N_4  and  C_5
REMARK    3  A    between atoms: C_8  and  C_11
REMARK    4  A    between atoms: C_13  and  C_25
REMARK    5  A    between atoms: C_15  and  C_20
REMARK    6  A    between atoms: C_15  and  O_24
REMARK                            x       y       z     vdW  Elec       q    Type
REMARK                         _______ _______ _______ _____ _____    ______ ____
ROOT
ATOM      1  C   UNL     1       5.151   3.311   0.211  0.00  0.00    +0.117 C 
ATOM      2  C   UNL     1       5.601   3.682  -1.206  0.00  0.00    +0.110 C 
ATOM      3  C   UNL     1       6.943   4.416  -1.115  0.00  0.00    +0.241 C 
ATOM      4  N   UNL     1       6.801   5.567  -0.221  0.00  0.00    -0.264 N 
ATOM      5  C   UNL     1       5.916   5.562   0.787  0.00  0.00    +0.302 C 
ATOM      6  O   UNL     1       5.846   6.539   1.507  0.00  0.00    -0.253 OA
ATOM      7  N   UNL     1       5.106   4.521   1.033  0.00  0.00    -0.292 N 
ATOM      8  H   UNL     1       7.427   6.459  -0.369  0.00  0.00    +0.153 HD
ATOM      9  H   UNL     1       4.398   4.590   1.872  0.00  0.00    +0.151 HD
ENDROOT
BRANCH   1  13
ATOM     10  C   UNL     1       1.262   1.544   0.058  0.00  0.00    +0.033 A 
ATOM     11  C   UNL     1       1.402   2.924  -0.007  0.00  0.00    +0.023 A 
ATOM     12  C   UNL     1       2.660   3.492   0.049  0.00  0.00    +0.007 A 
ATOM     13  C   UNL     1       3.780   2.688   0.157  0.00  0.00    -0.026 A 
ATOM     14  C   UNL     1       3.643   1.313   0.216  0.00  0.00    +0.007 A 
ATOM     15  C   UNL     1       2.388   0.739   0.166  0.00  0.00    +0.023 A 
BRANCH  10  19
ATOM     16  C   UNL     1      -1.598  -0.853   0.547  0.00  0.00    +0.109 C 
ATOM     17  C   UNL     1      -0.264  -0.168   0.691  0.00  0.00    +0.214 C 
ATOM     18  O   UNL     1       0.583  -0.636   1.423  0.00  0.00    -0.276 OA
ATOM     19  N   UNL     1      -0.011   0.966   0.007  0.00  0.00    -0.286 N 
ATOM     20  H   UNL     1      -0.806   1.436  -0.590  0.00  0.00    +0.155 HD
ENDBRANCH  10  19
ENDBRANCH   1  13
BRANCH   2  21
ATOM     21  C   UNL     1       4.572   4.577  -1.846  0.00  0.00    -0.000 A 
ATOM     22  C   UNL     1       3.849   4.377  -2.974  0.00  0.00    +0.012 A 
ATOM     23  C   UNL     1       2.950   5.347  -3.377  0.00  0.00    +0.008 A 
ATOM     24  C   UNL     1       2.819   6.471  -2.631  0.00  0.00    +0.045 A 
ATOM     25  S   UNL     1       3.983   6.175  -1.309  0.00  0.00    -0.101 S 
ENDBRANCH   2  21
BRANCH   3  26
ATOM     26  C   UNL     1       7.358   4.897  -2.507  0.00  0.00    +0.436 C 
ATOM     27  F   UNL     1       6.384   5.766  -3.010  0.00  0.00    -0.166 F 
ATOM     28  F   UNL     1       8.583   5.567  -2.422  0.00  0.00    -0.166 F 
ATOM     29  F   UNL     1       7.487   3.796  -3.361  0.00  0.00    -0.166 F 
ENDBRANCH   3  26
BRANCH   3  30
ATOM     30  O   UNL     1       7.938   3.530  -0.599  0.00  0.00    -0.364 OA
ATOM     31  H   UNL     1       8.971   3.883  -0.462  0.00  0.00    +0.212 HD
ENDBRANCH   3  30
TORSDOF 5
