REMARK  Name = ZINC43403372
REMARK  5 active torsions:
REMARK  status: ('A' for Active; 'I' for Inactive)
REMARK    1  A    between atoms: C_1  and  C_2
REMARK    2  A    between atoms: C_2  and  C_4
REMARK    3  A    between atoms: C_2  and  S_12
REMARK    4  A    between atoms: S_12  and  C_13
REMARK    5  A    between atoms: C_18  and  N_19
REMARK                            x       y       z     vdW  Elec       q    Type
REMARK                         _______ _______ _______ _____ _____    ______ ____
ROOT
ATOM      1  C   UNL     1      -0.058   1.522   0.035  0.00  0.00    +0.029 C 
ATOM      2  C   UNL     1      -0.009  -0.006   0.009  0.00  0.00    +0.134 C 
ENDROOT
BRANCH   2   3
ATOM      3  C   UNL     1      -1.407  -0.556   0.138  0.00  0.00    +0.228 C 
ATOM      4  O   UNL     1      -1.834  -0.876   1.227  0.00  0.00    -0.274 OA
ATOM      5  N   UNL     1      -2.181  -0.690  -0.957  0.00  0.00    -0.304 N 
ATOM      6  C   UNL     1      -1.682  -0.314  -2.288  0.00  0.00    +0.089 C 
ATOM      7  C   UNL     1      -1.936  -1.479  -3.250  0.00  0.00    -0.063 C 
ATOM      8  N   UNL     1      -3.359  -1.839  -3.216  0.00  0.00    +0.381 N 
ATOM      9  C   UNL     1      -3.716  -2.342  -1.883  0.00  0.00    -0.063 C 
ATOM     10  C   UNL     1      -3.549  -1.224  -0.855  0.00  0.00    +0.089 C 
ATOM     11  H   UNL     1      -3.916  -1.025  -3.427  0.00  0.00    -0.086 HD
ATOM     12  H   UNL     1      -3.540  -2.555  -3.904  0.00  0.00    -0.086 HD
ENDBRANCH   2   3
BRANCH   2  13
ATOM     13  S   UNL     1       1.004  -0.603   1.390  0.00  0.00    -0.111 S 
BRANCH  13  14
ATOM     14  C   UNL     1       1.177  -2.329   1.079  0.00  0.00    +0.029 A 
ATOM     15  C   UNL     1       0.685  -2.875  -0.098  0.00  0.00    +0.017 A 
ATOM     16  C   UNL     1       0.822  -4.229  -0.341  0.00  0.00    +0.016 A 
ATOM     17  C   UNL     1       1.448  -5.043   0.587  0.00  0.00    +0.020 A 
ATOM     18  C   UNL     1       1.941  -4.506   1.762  0.00  0.00    +0.039 A 
ATOM     19  C   UNL     1       1.813  -3.148   2.011  0.00  0.00    +0.039 A 
ATOM     20 BR   UNL     1       1.629  -6.894   0.247  0.00  0.00    -0.050 Br
BRANCH  19  21
ATOM     21  N   UNL     1       2.316  -2.601   3.198  0.00  0.00    -0.357 N 
ATOM     22  H   UNL     1       2.223  -1.651   3.373  0.00  0.00    +0.142 HD
ATOM     23  H   UNL     1       2.758  -3.172   3.846  0.00  0.00    +0.142 HD
ENDBRANCH  19  21
ENDBRANCH  13  14
ENDBRANCH   2  13
TORSDOF 4
