REMARK  Name = ZINC40988880
REMARK  10 active torsions:
REMARK  status: ('A' for Active; 'I' for Inactive)
REMARK    1  A    between atoms: C_1  and  O_2
REMARK    2  A    between atoms: O_2  and  C_3
REMARK    3  A    between atoms: C_6  and  O_38
REMARK    4  A    between atoms: C_7  and  C_9
REMARK    5  A    between atoms: C_9  and  C_11
REMARK    6  A    between atoms: C_9  and  N_32
REMARK    7  A    between atoms: C_11  and  N_12
REMARK    8  A    between atoms: C_13  and  C_15
REMARK    9  A    between atoms: N_18  and  C_20
REMARK   10  A    between atoms: O_38  and  C_39
REMARK                            x       y       z     vdW  Elec       q    Type
REMARK                         _______ _______ _______ _____ _____    ______ ____
ROOT
ATOM      1  N   UNL     1       2.592  -6.065  -1.495  0.00  0.00    -0.311 N 
ATOM      2  C   UNL     1       3.604  -6.708  -0.880  0.00  0.00    +0.264 C 
ATOM      3  O   UNL     1       4.564  -6.083  -0.473  0.00  0.00    -0.268 OA
ATOM      4  H   UNL     1       1.826  -6.564  -1.819  0.00  0.00    +0.149 HD
ENDROOT
BRANCH   2   5
ATOM      5  C   UNL     1       3.547  -8.173  -0.700  0.00  0.00    +0.150 A 
ATOM      6  C   UNL     1       4.514  -8.981  -0.079  0.00  0.00    +0.006 A 
ATOM      7  C   UNL     1       4.040 -10.249  -0.148  0.00  0.00    +0.044 A 
ATOM      8  N   UNL     1       2.853 -10.197  -0.774  0.00  0.00    -0.263 N 
ATOM      9  N   UNL     1       2.573  -8.979  -1.088  0.00  0.00    -0.166 NA
ATOM     10  C   UNL     1       4.770 -11.450   0.399  0.00  0.00    +0.055 C 
ATOM     11  C   UNL     1       6.234 -11.059   0.634  0.00  0.00    +0.006 C 
ATOM     12  C   UNL     1       6.297  -9.754   1.433  0.00  0.00    +0.005 C 
ATOM     13  C   UNL     1       5.822  -8.591   0.553  0.00  0.00    +0.039 C 
BRANCH   8  14
ATOM     14  C   UNL     1       2.000 -11.354  -1.055  0.00  0.00    +0.130 C 
ATOM     15  C   UNL     1       1.760 -11.467  -2.570  0.00  0.00    +0.051 C 
ATOM     16  C   UNL     1       0.618 -12.474  -2.849  0.00  0.00    +0.168 C 
ATOM     17  S   UNL     1      -0.405 -12.358  -1.324  0.00  0.00    -0.029 S 
ATOM     18  O   UNL     1      -1.645 -11.743  -1.645  0.00  0.00    -0.174 OA
ATOM     19  O   UNL     1      -0.398 -13.618  -0.667  0.00  0.00    -0.174 OA
ATOM     20  C   UNL     1       0.621 -11.171  -0.358  0.00  0.00    +0.192 C 
ENDBRANCH   8  14
ENDBRANCH   2   5
BRANCH   1  21
ATOM     21  C   UNL     1       2.649  -4.612  -1.673  0.00  0.00    +0.094 C 
BRANCH  21  22
ATOM     22  C   UNL     1       1.335  -4.121  -2.284  0.00  0.00    -0.017 C 
BRANCH  22  23
ATOM     23  N   UNL     1       1.064  -4.864  -3.522  0.00  0.00    +0.385 N 
ATOM     24  C   UNL     1       2.206  -4.728  -4.433  0.00  0.00    -0.078 C 
ATOM     25  C   UNL     1       1.964  -5.566  -5.691  0.00  0.00    -0.019 C 
ATOM     26  C   UNL     1       0.692  -5.074  -6.388  0.00  0.00    -0.004 C 
ATOM     27  C   UNL     1      -0.479  -5.151  -5.404  0.00  0.00    -0.019 C 
ATOM     28  C   UNL     1      -0.146  -4.329  -4.157  0.00  0.00    -0.078 C 
ATOM     29  H   UNL     1       0.924  -5.840  -3.304  0.00  0.00    -0.081 HD
ENDBRANCH  22  23
BRANCH  22  34
ATOM     30  C   UNL     1      -1.595  -5.698  -0.492  0.00  0.00    +0.121 A 
ATOM     31  C   UNL     1      -1.856  -4.757   0.494  0.00  0.00    +0.049 A 
ATOM     32  C   UNL     1      -1.086  -3.613   0.578  0.00  0.00    +0.049 A 
ATOM     33  C   UNL     1      -0.051  -3.406  -0.322  0.00  0.00    +0.122 A 
ATOM     34  C   UNL     1       0.211  -4.347  -1.307  0.00  0.00    -0.014 A 
ATOM     35  C   UNL     1      -0.556  -5.493  -1.388  0.00  0.00    +0.051 A 
BRANCH  30  37
ATOM     36  C   UNL     1      -3.405  -6.969   0.380  0.00  0.00    +0.277 C 
ATOM     37  O   UNL     1      -2.353  -6.823  -0.575  0.00  0.00    -0.495 OA
ENDBRANCH  30  37
BRANCH  33  38
ATOM     38  O   UNL     1       0.707  -2.280  -0.239  0.00  0.00    -0.495 OA
ATOM     39  C   UNL     1       0.381  -1.354   0.800  0.00  0.00    +0.277 C 
ENDBRANCH  33  38
ENDBRANCH  22  34
ENDBRANCH  21  22
ENDBRANCH   1  21
TORSDOF 8
