REMARK  Name = ZINC36598222
REMARK  20 active torsions:
REMARK  status: ('A' for Active; 'I' for Inactive)
REMARK    1  A    between atoms: C_1  and  C_2
REMARK    2  A    between atoms: C_5  and  C_7
REMARK    3  A    between atoms: C_7  and  N_8
REMARK    4  A    between atoms: N_8  and  C_9
REMARK    5  A    between atoms: C_9  and  C_11
REMARK    6  A    between atoms: C_9  and  C_20
REMARK    7  A    between atoms: C_12  and  O_19
REMARK    8  A    between atoms: C_14  and  O_18
REMARK    9  A    between atoms: C_16  and  O_17
REMARK   10  A    between atoms: N_22  and  C_23
REMARK   11  A    between atoms: C_23  and  C_24
REMARK   12  A    between atoms: C_23  and  C_25
REMARK   13  A    between atoms: C_23  and  C_26
REMARK   14  A    between atoms: C_26  and  C_27
REMARK   15  A    between atoms: C_27  and  C_28
REMARK   16  A    between atoms: C_27  and  C_29
REMARK   17  A    between atoms: C_27  and  C_30
REMARK   18  A    between atoms: C_31  and  C_33
REMARK   19  A    between atoms: C_33  and  C_34
REMARK   20  A    between atoms: C_34  and  S_35
REMARK                            x       y       z     vdW  Elec       q    Type
REMARK                         _______ _______ _______ _____ _____    ______ ____
ROOT
ATOM      1  C   UNL     1       4.976  -4.708  -3.201  0.00  0.00    +0.200 C 
ENDROOT
BRANCH   1   2
ATOM      2  C   UNL     1       5.569  -5.617  -4.247  0.00  0.00    +0.065 A 
ATOM      3  C   UNL     1       6.425  -5.102  -5.209  0.00  0.00    +0.129 A 
ATOM      4  C   UNL     1       6.971  -5.939  -6.171  0.00  0.00    +0.091 A 
ATOM      5  C   UNL     1       6.660  -7.290  -6.171  0.00  0.00    +0.124 A 
ATOM      6  C   UNL     1       5.805  -7.806  -5.209  0.00  0.00    +0.091 A 
ATOM      7  C   UNL     1       5.263  -6.970  -4.244  0.00  0.00    +0.129 A 
BRANCH   7   8
ATOM      8  O   UNL     1       4.428  -7.476  -3.299  0.00  0.00    -0.506 OA
ATOM      9  H   UNL     1       3.518  -7.600  -3.603  0.00  0.00    +0.292 HD
ENDBRANCH   7   8
BRANCH   5  10
ATOM     10  O   UNL     1       7.194  -8.110  -7.115  0.00  0.00    -0.507 OA
ATOM     11  H   UNL     1       8.039  -8.505  -6.859  0.00  0.00    +0.292 HD
ENDBRANCH   5  10
BRANCH   3  12
ATOM     12  O   UNL     1       6.729  -3.778  -5.208  0.00  0.00    -0.506 OA
ATOM     13  H   UNL     1       7.549  -3.563  -4.743  0.00  0.00    +0.292 HD
ENDBRANCH   3  12
ENDBRANCH   1   2
BRANCH   1  14
ATOM     14  C   UNL     1       4.104  -3.676  -3.869  0.00  0.00    +0.239 C 
ATOM     15  O   UNL     1       2.897  -3.796  -3.847  0.00  0.00    -0.273 OA
ATOM     16  N   UNL     1       4.665  -2.620  -4.491  0.00  0.00    -0.308 N 
ATOM     17  H   UNL     1       5.631  -2.555  -4.560  0.00  0.00    +0.149 HD
BRANCH  16  18
ATOM     18  C   UNL     1       3.818  -1.571  -5.062  0.00  0.00    +0.030 C 
ATOM     19  C   UNL     1       3.044  -2.134  -6.256  0.00  0.00    +0.031 C 
ATOM     20  C   UNL     1       2.831  -1.079  -4.001  0.00  0.00    +0.031 C 
BRANCH  18  21
ATOM     21  C   UNL     1       4.693  -0.405  -5.525  0.00  0.00    +0.031 C 
BRANCH  21  22
ATOM     22  C   UNL     1       5.295   0.297  -4.306  0.00  0.00    -0.036 C 
ATOM     23  C   UNL     1       5.652  -0.745  -3.243  0.00  0.00    +0.010 C 
ATOM     24  C   UNL     1       6.558   1.052  -4.724  0.00  0.00    +0.010 C 
ATOM     25  C   UNL     1       4.277   1.284  -3.731  0.00  0.00    +0.010 C 
ENDBRANCH  21  22
ENDBRANCH  18  21
ENDBRANCH  16  18
ENDBRANCH   1  14
BRANCH   1  26
ATOM     26  N   UNL     1       4.169  -5.499  -2.268  0.00  0.00    -0.278 N 
ATOM     27  C   UNL     1       2.961  -5.962  -2.646  0.00  0.00    +0.218 C 
ATOM     28  O   UNL     1       2.613  -5.872  -3.804  0.00  0.00    -0.276 OA
BRANCH  26  29
ATOM     29  C   UNL     1       4.676  -5.786  -0.924  0.00  0.00    +0.183 C 
BRANCH  29  34
ATOM     30  C   UNL     1       4.673  -1.496   1.729  0.00  0.00    +0.086 C 
ATOM     31  C   UNL     1       4.242  -2.829   1.174  0.00  0.00    +0.102 A 
ATOM     32  C   UNL     1       3.104  -3.478   1.482  0.00  0.00    +0.045 A 
ATOM     33  C   UNL     1       3.105  -4.680   0.738  0.00  0.00    +0.046 A 
ATOM     34  C   UNL     1       4.243  -4.694   0.020  0.00  0.00    +0.122 A 
ATOM     35  O   UNL     1       4.924  -3.567   0.284  0.00  0.00    -0.463 OA
ENDBRANCH  29  34
ENDBRANCH  26  29
BRANCH  27  36
ATOM     36  C   UNL     1       2.044  -6.591  -1.629  0.00  0.00    +0.106 C 
BRANCH  36  37
ATOM     37  C   UNL     1       0.747  -7.028  -2.314  0.00  0.00    +0.075 C 
BRANCH  37  38
ATOM     38  S   UNL     1      -0.357  -7.785  -1.091  0.00  0.00    -0.178 S 
ATOM     39  H   UNL     1      -1.447  -8.124  -1.802  0.00  0.00    +0.102 HD
ENDBRANCH  37  38
ENDBRANCH  36  37
ENDBRANCH  27  36
ENDBRANCH   1  26
TORSDOF 14
