REMARK  Name = ZINC20837743
REMARK  9 active torsions:
REMARK  status: ('A' for Active; 'I' for Inactive)
REMARK    1  A    between atoms: C_1  and  C_2
REMARK    2  A    between atoms: C_2  and  C_29
REMARK    3  A    between atoms: C_4  and  N_10
REMARK    4  A    between atoms: C_6  and  C_8
REMARK    5  A    between atoms: C_6  and  C_9
REMARK    6  A    between atoms: C_11  and  C_13
REMARK    7  A    between atoms: C_13  and  S_14
REMARK    8  A    between atoms: S_14  and  C_15
REMARK    9  A    between atoms: N_20  and  N_21
REMARK                            x       y       z     vdW  Elec       q    Type
REMARK                         _______ _______ _______ _____ _____    ______ ____
ROOT
ATOM      1  C   UNL     1      -0.785   7.243  -2.247  0.00  0.00    +0.173 C 
ENDROOT
BRANCH   1   3
ATOM      2  N   UNL     1      -0.872   5.097  -1.020  0.00  0.00    -0.312 N 
ATOM      3  C   UNL     1      -0.894   5.740  -2.204  0.00  0.00    +0.224 C 
ATOM      4  O   UNL     1      -1.003   5.111  -3.235  0.00  0.00    -0.275 OA
ATOM      5  H   UNL     1      -0.773   5.668  -0.085  0.00  0.00    +0.149 HD
BRANCH   2   9
ATOM      6  C   UNL     1      -2.300   1.104  -2.255  0.00  0.00    -0.010 C 
ATOM      7  C   UNL     1      -2.600   1.719  -0.883  0.00  0.00    -0.072 C 
ATOM      8  C   UNL     1      -2.454   3.236  -0.961  0.00  0.00    +0.009 C 
ATOM      9  C   UNL     1      -0.978   3.633  -0.978  0.00  0.00    +0.070 C 
ATOM     10  C   UNL     1      -0.327   3.119   0.307  0.00  0.00    +0.009 C 
ATOM     11  C   UNL     1      -0.426   1.595   0.367  0.00  0.00    -0.072 C 
ATOM     12  N   UNL     1      -1.778   1.120   0.149  0.00  0.00    +0.386 N 
ATOM     13  C   UNL     1       0.018   1.155   1.780  0.00  0.00    -0.010 C 
ATOM     14  C   UNL     1       0.553   0.973  -0.633  0.00  0.00    -0.010 C 
ATOM     15  C   UNL     1      -4.079   1.410  -0.558  0.00  0.00    -0.010 C 
ATOM     16  H   UNL     1      -2.265   1.250   1.127  0.00  0.00    -0.084 HD
ATOM     17  H   UNL     1      -1.653   0.047  -0.058  0.00  0.00    -0.084 HD
ENDBRANCH   2   9
ENDBRANCH   1   3
BRANCH   1  18
ATOM     18  S   UNL     1      -0.846   7.804  -3.971  0.00  0.00    -0.075 S 
BRANCH  18  19
ATOM     19  C   UNL     1      -0.708   9.557  -3.854  0.00  0.00    +0.211 A 
ATOM     20  N   UNL     1      -0.705  10.434  -4.901  0.00  0.00    -0.186 NA
ATOM     21  C   UNL     1      -0.581  11.697  -4.394  0.00  0.00    +0.232 A 
ATOM     22  N   UNL     1      -0.510  11.605  -3.088  0.00  0.00    -0.245 N 
ATOM     23  N   UNL     1      -0.596  10.249  -2.745  0.00  0.00    -0.144 NA
ATOM     24  N   UNL     1      -0.538  12.873  -5.132  0.00  0.00    -0.205 N 
ATOM     25  H   UNL     1      -0.606  12.836  -6.229  0.00  0.00    +0.177 HD
ATOM     26  H   UNL     1      -0.402  12.513  -2.477  0.00  0.00    +0.192 HD
BRANCH  24  27
ATOM     27  N   UNL     1      -0.407  14.105  -4.479  0.00  0.00    -0.189 NA
ATOM     28  C   UNL     1      -0.470  15.194  -5.149  0.00  0.00    +0.037 C 
ATOM     29  C   UNL     1      -0.819  15.166  -6.634  0.00  0.00    +0.052 C 
ATOM     30  C   UNL     1      -1.725  16.317  -6.996  0.00  0.00    +0.006 C 
ATOM     31  C   UNL     1      -0.881  17.535  -7.397  0.00  0.00    +0.000 C 
ATOM     32  C   UNL     1      -0.374  18.277  -6.239  0.00  0.00    +0.000 C 
ATOM     33  C   UNL     1       0.589  17.446  -5.379  0.00  0.00    +0.006 C 
ATOM     34  C   UNL     1      -0.191  16.533  -4.472  0.00  0.00    +0.052 C 
ENDBRANCH  24  27
ENDBRANCH  18  19
ENDBRANCH   1  18
TORSDOF 5
