REMARK  Name = ZINC43286922
REMARK  11 active torsions:
REMARK  status: ('A' for Active; 'I' for Inactive)
REMARK    1  A    between atoms: C_1  and  C_2
REMARK    2  A    between atoms: C_2  and  C_3
REMARK    3  A    between atoms: C_3  and  N_4
REMARK    4  A    between atoms: C_5  and  C_7
REMARK    5  A    between atoms: C_7  and  N_8
REMARK    6  A    between atoms: N_8  and  C_9
REMARK    7  A    between atoms: N_8  and  C_10
REMARK    8  A    between atoms: C_10  and  C_12
REMARK    9  A    between atoms: C_10  and  C_18
REMARK   10  A    between atoms: C_18  and  C_20
REMARK   11  A    between atoms: C_18  and  N_21
REMARK                            x       y       z     vdW  Elec       q    Type
REMARK                         _______ _______ _______ _____ _____    ______ ____
ROOT
ATOM      1  C   UNL     1       1.938  -6.013  -3.692  0.00  0.00    +0.079 C 
ENDROOT
BRANCH   1   2
ATOM      2  C   UNL     1       2.142  -6.433  -2.259  0.00  0.00    +0.006 A 
ATOM      3  C   UNL     1       2.666  -7.585  -1.773  0.00  0.00    +0.028 A 
ATOM      4  C   UNL     1       2.756  -7.755  -0.404  0.00  0.00    +0.025 A 
ATOM      5  C   UNL     1       2.318  -6.765   0.412  0.00  0.00    +0.060 A 
ATOM      6  S   UNL     1       1.762  -5.539  -0.761  0.00  0.00    -0.099 S 
ATOM      7 BR   UNL     1       3.479  -9.346   0.320  0.00  0.00    -0.050 Br
ENDBRANCH   1   2
BRANCH   1   8
ATOM      8  N   UNL     1       2.464  -4.655  -3.883  0.00  0.00    -0.291 NA
ATOM      9  C   UNL     1       3.928  -4.635  -3.765  0.00  0.00    +0.106 C 
BRANCH   8  10
ATOM     10  C   UNL     1       1.846  -3.714  -2.939  0.00  0.00    +0.180 C 
BRANCH  10  12
ATOM     11  N   UNL     1       1.521  -1.269  -2.745  0.00  0.00    -0.314 N 
ATOM     12  C   UNL     1       2.012  -2.306  -3.452  0.00  0.00    +0.227 C 
ATOM     13  O   UNL     1       2.588  -2.107  -4.501  0.00  0.00    -0.274 OA
ATOM     14  H   UNL     1       1.060  -1.429  -1.907  0.00  0.00    +0.149 HD
BRANCH  11  15
ATOM     15  C   UNL     1       1.682   0.099  -3.244  0.00  0.00    +0.104 C 
BRANCH  15  17
ATOM     16  C   UNL     1       1.208   2.508  -2.781  0.00  0.00    +0.005 C 
ATOM     17  C   UNL     1       1.039   1.079  -2.261  0.00  0.00    +0.015 C 
ENDBRANCH  15  17
ENDBRANCH  11  15
ENDBRANCH  10  12
ENDBRANCH   8  10
ENDBRANCH   1   8
BRANCH   1  18
ATOM     18  C   UNL     1       0.444  -6.034  -4.022  0.00  0.00    -0.056 C 
ATOM     19  C   UNL     1       0.226  -5.473  -5.429  0.00  0.00    -0.012 C 
BRANCH  18  20
ATOM     20  N   UNL     1      -0.051  -7.415  -3.962  0.00  0.00    +0.381 N 
ATOM     21  H   UNL     1       0.093  -7.784  -3.034  0.00  0.00    -0.090 HD
ATOM     22  H   UNL     1      -1.037  -7.428  -4.180  0.00  0.00    -0.090 HD
ATOM     23  H   UNL     1       0.449  -7.981  -4.631  0.00  0.00    -0.090 HD
ENDBRANCH  18  20
ENDBRANCH   1  18
TORSDOF 8
