REMARK  Name = ZINC09938473
REMARK  7 active torsions:
REMARK  status: ('A' for Active; 'I' for Inactive)
REMARK    1  A    between atoms: C_1  and  O_2
REMARK    2  A    between atoms: O_2  and  C_3
REMARK    3  A    between atoms: C_8  and  N_9
REMARK    4  A    between atoms: C_18  and  C_20
REMARK    5  A    between atoms: C_20  and  S_21
REMARK    6  A    between atoms: S_21  and  C_22
REMARK    7  A    between atoms: N_26  and  C_27
REMARK                            x       y       z     vdW  Elec       q    Type
REMARK                         _______ _______ _______ _____ _____    ______ ____
ROOT
ATOM      1  N   UNL     1       0.565  -2.325  -0.125  0.00  0.00    -0.325 N 
ATOM      2  C   UNL     1      -0.772  -2.057   0.056  0.00  0.00    +0.180 C 
ATOM      3  N   UNL     1      -1.674  -3.094   0.174  0.00  0.00    -0.298 N 
ATOM      4  C   UNL     1      -1.225  -4.390   0.251  0.00  0.00    +0.211 A 
ATOM      5  N   UNL     1      -2.123  -5.411   0.239  0.00  0.00    -0.293 N 
ATOM      6  H   UNL     1      -3.073  -5.222   0.177  0.00  0.00    +0.172 HD
ATOM      7  C   UNL     1      -1.689  -6.687   0.309  0.00  0.00    +0.253 A 
ATOM      8  O   UNL     1      -2.481  -7.615   0.295  0.00  0.00    -0.268 OA
ATOM      9  C   UNL     1      -0.306  -6.926   0.404  0.00  0.00    +0.094 A 
ATOM     10  C   UNL     1       0.547  -5.862   0.417  0.00  0.00    +0.060 A 
ATOM     11  N   UNL     1       0.069  -4.622   0.340  0.00  0.00    -0.218 NA
ATOM     12  H   UNL     1       0.861  -3.237  -0.272  0.00  0.00    +0.169 HD
ATOM     13  H   UNL     1      -2.115  -0.531   0.173  0.00  0.00    +0.159 HD
ATOM     14  H   UNL     1      -2.626  -2.908   0.203  0.00  0.00    +0.172 HD
ATOM     15  N   UNL     1      -1.128  -0.782   0.115  0.00  0.00    -0.371 N 
ATOM     16  H   UNL     1      -0.411  -0.048   0.101  0.00  0.00    +0.159 HD
ENDROOT
BRANCH   1  22
ATOM     17  C   UNL     1       2.714  -1.413  -0.767  0.00  0.00    +0.143 A 
ATOM     18  C   UNL     1       3.634  -0.378  -0.738  0.00  0.00    +0.048 A 
ATOM     19  C   UNL     1       3.345   0.783  -0.045  0.00  0.00    +0.004 A 
ATOM     20  C   UNL     1       2.140   0.916   0.619  0.00  0.00    +0.002 A 
ATOM     21  C   UNL     1       1.217  -0.113   0.594  0.00  0.00    +0.029 A 
ATOM     22  C   UNL     1       1.500  -1.281  -0.098  0.00  0.00    +0.084 A 
BRANCH  17  24
ATOM     23  C   UNL     1       4.263  -2.624  -2.106  0.00  0.00    +0.277 C 
ATOM     24  O   UNL     1       2.999  -2.559  -1.443  0.00  0.00    -0.493 OA
ENDBRANCH  17  24
ENDBRANCH   1  22
BRANCH  10  25
ATOM     25  C   UNL     1       2.033  -6.090   0.517  0.00  0.00    +0.133 C 
BRANCH  25  26
ATOM     26  S   UNL     1       2.798  -5.808  -1.099  0.00  0.00    -0.078 S 
BRANCH  26  27
ATOM     27  C   UNL     1       4.483  -6.135  -0.701  0.00  0.00    +0.214 A 
ATOM     28  N   UNL     1       4.956  -6.483   0.476  0.00  0.00    -0.101 NA
ATOM     29  N   UNL     1       6.228  -6.645   0.421  0.00  0.00    -0.022 NA
ATOM     30  N   UNL     1       6.659  -6.418  -0.773  0.00  0.00    -0.038 NA
ATOM     31  N   UNL     1       5.538  -6.082  -1.553  0.00  0.00    -0.187 N 
BRANCH  31  32
ATOM     32  C   UNL     1       5.516  -5.758  -2.917  0.00  0.00    +0.070 A 
ATOM     33  C   UNL     1       4.440  -6.144  -3.706  0.00  0.00    +0.028 A 
ATOM     34  C   UNL     1       4.418  -5.819  -5.048  0.00  0.00    +0.002 A 
ATOM     35  C   UNL     1       5.472  -5.121  -5.609  0.00  0.00    +0.000 A 
ATOM     36  C   UNL     1       6.547  -4.741  -4.828  0.00  0.00    +0.002 A 
ATOM     37  C   UNL     1       6.572  -5.058  -3.483  0.00  0.00    +0.028 A 
ENDBRANCH  31  32
ENDBRANCH  26  27
ENDBRANCH  25  26
ENDBRANCH  10  25
TORSDOF 6
