REMARK  Name = ZINC03977735
REMARK  15 active torsions:
REMARK  status: ('A' for Active; 'I' for Inactive)
REMARK    1  A    between atoms: C_1  and  C_2
REMARK    2  A    between atoms: C_2  and  C_3
REMARK    3  A    between atoms: C_3  and  O_46
REMARK    4  A    between atoms: C_5  and  O_31
REMARK    5  A    between atoms: C_12  and  O_13
REMARK    6  A    between atoms: C_21  and  O_22
REMARK    7  A    between atoms: C_25  and  C_27
REMARK    8  A    between atoms: C_27  and  O_29
REMARK    9  A    between atoms: O_29  and  C_30
REMARK   10  A    between atoms: O_31  and  C_32
REMARK   11  A    between atoms: C_35  and  N_76
REMARK   12  A    between atoms: C_37  and  O_43
REMARK   13  A    between atoms: C_39  and  C_42
REMARK   14  A    between atoms: C_44  and  N_76
REMARK   15  A    between atoms: C_45  and  N_76
REMARK                            x       y       z     vdW  Elec       q    Type
REMARK                         _______ _______ _______ _____ _____    ______ ____
ROOT
ATOM      1  C   UNL     1       4.310   3.025   0.947  0.00  0.00    +0.085 C 
ATOM      2  C   UNL     1       4.075   4.465   0.479  0.00  0.00    +0.072 C 
ATOM      3  C   UNL     1       2.783   4.973   1.114  0.00  0.00    +0.158 C 
ATOM      4  C   UNL     1       1.657   3.998   0.882  0.00  0.00    +0.028 A 
ATOM      5  C   UNL     1       1.875   2.690   0.519  0.00  0.00    -0.021 A 
ATOM      6  C   UNL     1       0.797   1.827   0.333  0.00  0.00    +0.017 A 
ATOM      7  C   UNL     1      -0.504   2.274   0.507  0.00  0.00    +0.037 A 
ATOM      8  C   UNL     1      -0.734   3.614   0.875  0.00  0.00    +0.075 A 
ATOM      9  C   UNL     1       0.351   4.468   1.059  0.00  0.00    +0.134 A 
ATOM     10  C   UNL     1      -2.117   4.094   1.061  0.00  0.00    +0.202 C 
ATOM     11  O   UNL     1      -2.350   5.286   1.128  0.00  0.00    -0.286 OA
ATOM     12  C   UNL     1      -3.213   3.112   1.166  0.00  0.00    +0.075 A 
ATOM     13  C   UNL     1      -2.987   1.771   0.800  0.00  0.00    +0.037 A 
ATOM     14  C   UNL     1      -4.019   0.846   0.898  0.00  0.00    +0.012 A 
ATOM     15  C   UNL     1      -5.266   1.245   1.355  0.00  0.00    +0.004 A 
ATOM     16  C   UNL     1      -5.494   2.556   1.715  0.00  0.00    +0.046 A 
ATOM     17  C   UNL     1      -4.474   3.500   1.625  0.00  0.00    +0.128 A 
ATOM     18  C   UNL     1      -1.651   1.361   0.314  0.00  0.00    +0.195 C 
ATOM     19  O   UNL     1      -1.499   0.288  -0.236  0.00  0.00    -0.287 OA
ATOM     20  C   UNL     1       3.257   2.130   0.298  0.00  0.00    +0.160 C 
ENDROOT
BRANCH   1  22
ATOM     21  C   UNL     1       5.932   1.125   0.985  0.00  0.00    +0.007 C 
ATOM     22  C   UNL     1       5.707   2.567   0.525  0.00  0.00    +0.032 C 
ENDBRANCH   1  22
BRANCH   9  23
ATOM     23  O   UNL     1       0.140   5.762   1.406  0.00  0.00    -0.506 OA
ATOM     24  H   UNL     1       0.075   5.908   2.359  0.00  0.00    +0.292 HD
ENDBRANCH   9  23
BRANCH  17  25
ATOM     25  O   UNL     1      -4.703   4.788   1.982  0.00  0.00    -0.506 OA
ATOM     26  H   UNL     1      -5.014   5.347   1.257  0.00  0.00    +0.292 HD
ENDBRANCH  17  25
BRANCH  20  27
ATOM     27  C   UNL     1       3.526   2.042  -1.183  0.00  0.00    +0.317 C 
ATOM     28  O   UNL     1       3.920   3.013  -1.784  0.00  0.00    -0.250 OA
BRANCH  27  29
ATOM     29  O   UNL     1       3.329   0.884  -1.833  0.00  0.00    -0.467 OA
ATOM     30  C   UNL     1       3.609   0.873  -3.257  0.00  0.00    +0.280 C 
ENDBRANCH  27  29
ENDBRANCH  20  27
BRANCH   1  31
ATOM     31  O   UNL     1       4.190   2.955   2.369  0.00  0.00    -0.387 OA
ATOM     32  H   UNL     1       4.870   3.451   2.846  0.00  0.00    +0.210 HD
ENDBRANCH   1  31
BRANCH   3  33
ATOM     33  O   UNL     1       2.983   5.136   2.520  0.00  0.00    -0.343 OA
BRANCH  33  34
ATOM     34  C   UNL     1       2.963   6.497   2.955  0.00  0.00    +0.250 C 
ATOM     35  C   UNL     1       2.861   6.543   4.482  0.00  0.00    +0.049 C 
ATOM     36  C   UNL     1       4.101   5.878   5.089  0.00  0.00    -0.033 C 
ATOM     37  C   UNL     1       5.354   6.590   4.568  0.00  0.00    +0.130 C 
ATOM     38  C   UNL     1       5.359   6.542   3.038  0.00  0.00    +0.145 C 
ATOM     39  O   UNL     1       4.165   7.148   2.540  0.00  0.00    -0.346 OA
ATOM     40  C   UNL     1       6.576   7.303   2.507  0.00  0.00    +0.040 C 
BRANCH  36  43
ATOM     41  C   UNL     1       2.852   5.321   7.087  0.00  0.00    -0.096 C 
ATOM     42  C   UNL     1       5.269   5.440   7.164  0.00  0.00    -0.096 C 
ATOM     43  N   UNL     1       4.048   6.012   6.560  0.00  0.00    +0.380 N 
ATOM     44  H   UNL     1       3.991   7.008   6.802  0.00  0.00    -0.082 HD
ENDBRANCH  36  43
BRANCH  37  45
ATOM     45  O   UNL     1       5.347   7.950   5.005  0.00  0.00    -0.391 OA
ATOM     46  H   UNL     1       6.113   8.461   4.710  0.00  0.00    +0.210 HD
ENDBRANCH  37  45
ENDBRANCH  33  34
ENDBRANCH   3  33
TORSDOF 10
