REMARK  Name = ZINC39367626
REMARK  8 active torsions:
REMARK  status: ('A' for Active; 'I' for Inactive)
REMARK    1  A    between atoms: C_1  and  C_2
REMARK    2  A    between atoms: C_2  and  C_3
REMARK    3  A    between atoms: C_3  and  N_4
REMARK    4  A    between atoms: C_17  and  S_18
REMARK    5  A    between atoms: S_18  and  C_19
REMARK    6  A    between atoms: C_19  and  C_21
REMARK    7  A    between atoms: C_19  and  C_27
REMARK    8  A    between atoms: C_27  and  C_29
REMARK                            x       y       z     vdW  Elec       q    Type
REMARK                         _______ _______ _______ _____ _____    ______ ____
ROOT
ATOM      1  C   UNL     1       5.110  -5.801  -1.297  0.00  0.00    +0.155 C 
ENDROOT
BRANCH   1   2
ATOM      2  C   UNL     1       6.128  -5.142  -0.403  0.00  0.00    -0.027 A 
ATOM      3  C   UNL     1       6.516  -5.757   0.773  0.00  0.00    +0.005 A 
ATOM      4  C   UNL     1       7.450  -5.153   1.594  0.00  0.00    +0.000 A 
ATOM      5  C   UNL     1       7.997  -3.934   1.238  0.00  0.00    +0.000 A 
ATOM      6  C   UNL     1       7.610  -3.320   0.062  0.00  0.00    +0.000 A 
ATOM      7  C   UNL     1       6.679  -3.926  -0.760  0.00  0.00    +0.005 A 
ENDBRANCH   1   2
BRANCH   1   8
ATOM      8  C   UNL     1       5.624  -7.147  -1.737  0.00  0.00    +0.179 C 
ATOM      9  O   UNL     1       5.307  -8.147  -1.126  0.00  0.00    -0.291 OA
BRANCH   8  10
ATOM     10  C   UNL     1       6.474  -7.246  -2.859  0.00  0.00    +0.025 C 
ATOM     11  C   UNL     1       7.024  -8.397  -3.393  0.00  0.00    +0.006 A 
ATOM     12  C   UNL     1       6.936  -9.762  -3.033  0.00  0.00    +0.010 A 
ATOM     13  C   UNL     1       7.595 -10.700  -3.750  0.00  0.00    +0.001 A 
ATOM     14  C   UNL     1       8.385 -10.379  -4.866  0.00  0.00    +0.002 A 
ATOM     15  C   UNL     1       8.535  -9.106  -5.293  0.00  0.00    +0.026 A 
ATOM     16  C   UNL     1       7.850  -8.023  -4.567  0.00  0.00    +0.043 A 
ATOM     17  N   UNL     1       7.820  -6.734  -4.755  0.00  0.00    -0.380 N 
ATOM     18  C   UNL     1       6.970  -6.115  -3.734  0.00  0.00    +0.152 C 
ATOM     19  H   UNL     1       8.284  -6.259  -5.462  0.00  0.00    +0.160 HD
ENDBRANCH   8  10
ENDBRANCH   1   8
BRANCH   1  20
ATOM     20  S   UNL     1       3.555  -6.014  -0.388  0.00  0.00    -0.069 S 
BRANCH  20  34
ATOM     21  N   UNL     1       0.762  -1.976   1.234  0.00  0.00    -0.277 N 
ATOM     22  C   UNL     1      -0.243  -2.656   1.822  0.00  0.00    +0.263 A 
ATOM     23  O   UNL     1      -1.161  -2.065   2.356  0.00  0.00    -0.267 OA
ATOM     24  C   UNL     1      -0.209  -4.130   1.805  0.00  0.00    +0.064 A 
ATOM     25  C   UNL     1      -1.221  -4.884   2.397  0.00  0.00    +0.015 A 
ATOM     26  C   UNL     1      -1.154  -6.261   2.360  0.00  0.00    +0.001 A 
ATOM     27  C   UNL     1      -0.089  -6.895   1.740  0.00  0.00    +0.002 A 
ATOM     28  C   UNL     1       0.920  -6.159   1.150  0.00  0.00    +0.027 A 
ATOM     29  C   UNL     1       0.868  -4.773   1.177  0.00  0.00    +0.064 A 
ATOM     30  N   UNL     1       1.873  -4.007   0.589  0.00  0.00    -0.256 N 
ATOM     31  C   UNL     1       1.811  -2.640   0.616  0.00  0.00    +0.240 A 
ATOM     32  N   UNL     1       2.870  -2.178  -0.009  0.00  0.00    -0.109 NA
ATOM     33  N   UNL     1       3.626  -3.270  -0.452  0.00  0.00    -0.120 NA
ATOM     34  C   UNL     1       3.014  -4.367  -0.076  0.00  0.00    +0.199 A 
BRANCH  21  35
ATOM     35  C   UNL     1       0.742  -0.511   1.242  0.00  0.00    +0.128 C 
BRANCH  35  37
ATOM     36  C   UNL     1      -0.019   1.526   0.010  0.00  0.00    +0.005 C 
ATOM     37  C   UNL     1       0.002  -0.004   0.002  0.00  0.00    +0.018 C 
ENDBRANCH  35  37
ENDBRANCH  21  35
ENDBRANCH  20  34
ENDBRANCH   1  20
TORSDOF 7
