REMARK  Name = ZINC36207030
REMARK  12 active torsions:
REMARK  status: ('A' for Active; 'I' for Inactive)
REMARK    1  A    between atoms: C_1  and  C_2
REMARK    2  A    between atoms: C_3  and  C_30
REMARK    3  A    between atoms: C_11  and  C_13
REMARK    4  A    between atoms: C_13  and  N_14
REMARK    5  A    between atoms: N_14  and  C_15
REMARK    6  A    between atoms: N_14  and  C_24
REMARK    7  A    between atoms: C_15  and  C_16
REMARK    8  A    between atoms: C_16  and  C_18
REMARK    9  A    between atoms: C_16  and  O_23
REMARK   10  A    between atoms: C_18  and  O_19
REMARK   11  A    between atoms: O_19  and  C_20
REMARK   12  A    between atoms: C_20  and  C_21
REMARK                            x       y       z     vdW  Elec       q    Type
REMARK                         _______ _______ _______ _____ _____    ______ ____
ROOT
ATOM      1  N   UNL     1       0.107  -4.811   4.066  0.00  0.00    +0.388 N 
ATOM      2  H   UNL     1      -0.548  -5.033   3.332  0.00  0.00    -0.081 HD
ENDROOT
BRANCH   1   3
ATOM      3  C   UNL     1       1.471  -5.118   3.614  0.00  0.00    -0.068 C 
ATOM      4  C   UNL     1       2.463  -4.801   4.735  0.00  0.00    -0.015 C 
ATOM      5  C   UNL     1       3.883  -5.121   4.264  0.00  0.00    -0.002 C 
ATOM      6  C   UNL     1       4.216  -4.274   3.034  0.00  0.00    -0.000 C 
ATOM      7  C   UNL     1       3.223  -4.590   1.913  0.00  0.00    -0.002 C 
ATOM      8  C   UNL     1       1.803  -4.271   2.384  0.00  0.00    -0.015 C 
ENDBRANCH   1   3
BRANCH   1   9
ATOM      9  C   UNL     1       0.010  -3.383   4.395  0.00  0.00    -0.003 C 
BRANCH   9  20
ATOM     10  C   UNL     1      -1.010   0.905  -0.657  0.00  0.00    +0.045 C 
ATOM     11  C   UNL     1      -0.975  -0.589  -0.468  0.00  0.00    -0.026 A 
ATOM     12  C   UNL     1      -1.185  -1.411  -1.509  0.00  0.00    -0.008 A 
ATOM     13  S   UNL     1      -1.044  -3.035  -0.788  0.00  0.00    -0.073 S 
ATOM     14  C   UNL     1      -0.707  -2.563   0.889  0.00  0.00    +0.116 A 
ATOM     15  C   UNL     1      -0.709  -1.157   0.841  0.00  0.00    +0.075 A 
ATOM     16  C   UNL     1      -0.453  -0.494   2.085  0.00  0.00    +0.260 A 
ATOM     17  O   UNL     1      -0.438   0.723   2.146  0.00  0.00    -0.267 OA
ATOM     18  N   UNL     1      -0.231  -1.237   3.185  0.00  0.00    -0.312 N 
ATOM     19  H   UNL     1      -0.057  -0.794   4.030  0.00  0.00    +0.170 HD
ATOM     20  C   UNL     1      -0.244  -2.594   3.136  0.00  0.00    +0.094 A 
ATOM     21  N   UNL     1      -0.483  -3.228   2.019  0.00  0.00    -0.229 NA
ATOM     22  C   UNL     1      -1.471  -1.047  -2.943  0.00  0.00    +0.052 C 
ENDBRANCH   9  20
ENDBRANCH   1   9
BRANCH   1  23
ATOM     23  C   UNL     1      -0.204  -5.610   5.259  0.00  0.00    -0.044 C 
BRANCH  23  24
ATOM     24  C   UNL     1      -0.247  -7.093   4.883  0.00  0.00    +0.124 C 
BRANCH  24  25
ATOM     25  O   UNL     1      -1.255  -7.304   3.892  0.00  0.00    -0.391 OA
ATOM     26  H   UNL     1      -2.145  -7.057   4.178  0.00  0.00    +0.210 HD
ENDBRANCH  24  25
BRANCH  24  27
ATOM     27  C   UNL     1      -0.570  -7.925   6.125  0.00  0.00    +0.190 C 
BRANCH  27  28
ATOM     28  O   UNL     1      -0.495  -9.315   5.800  0.00  0.00    -0.365 OA
BRANCH  28  29
ATOM     29  C   UNL     1      -0.781 -10.184   6.897  0.00  0.00    +0.248 C 
BRANCH  29  30
ATOM     30  C   UNL     1      -0.676 -11.584   6.455  0.00  0.00    -0.077 C 
ATOM     31  C   UNL     1      -0.592 -12.700   6.101  0.00  0.00    +0.006 C 
ENDBRANCH  29  30
ENDBRANCH  28  29
ENDBRANCH  27  28
ENDBRANCH  24  27
ENDBRANCH  23  24
ENDBRANCH   1  23
TORSDOF 10
