REMARK  Name = ZINC11784420
REMARK  4 active torsions:
REMARK  status: ('A' for Active; 'I' for Inactive)
REMARK    1  A    between atoms: C_1  and  C_2
REMARK    2  A    between atoms: C_13  and  C_15
REMARK    3  A    between atoms: C_24  and  C_26
REMARK    4  A    between atoms: C_26  and  C_27
REMARK                            x       y       z     vdW  Elec       q    Type
REMARK                         _______ _______ _______ _____ _____    ______ ____
ROOT
ATOM      1  C   UNL     1      -5.977   5.908  -2.634  0.00  0.00    +0.088 C 
ATOM      2  C   UNL     1      -6.552   7.067  -3.453  0.00  0.00    +0.070 C 
ATOM      3  C   UNL     1      -7.399   6.481  -4.575  0.00  0.00    +0.062 A 
ATOM      4  C   UNL     1      -7.085   5.205  -5.061  0.00  0.00    +0.079 A 
ATOM      5  S   UNL     1      -8.309   4.962  -6.312  0.00  0.00    -0.049 S 
ATOM      6  C   UNL     1      -9.117   6.491  -6.122  0.00  0.00    +0.165 A 
ATOM      7  N   UNL     1      -8.423   7.066  -5.149  0.00  0.00    -0.229 NA
ATOM      8  N   UNL     1     -10.209   6.984  -6.813  0.00  0.00    -0.265 N 
ATOM      9  C   UNL     1     -10.785   6.243  -7.779  0.00  0.00    +0.219 C 
ATOM     10  O   UNL     1     -10.346   5.144  -8.044  0.00  0.00    -0.275 OA
ATOM     11  C   UNL     1      -6.042   4.402  -4.611  0.00  0.00    +0.172 C 
ATOM     12  O   UNL     1      -5.849   3.296  -5.074  0.00  0.00    -0.291 OA
ATOM     13  C   UNL     1      -5.155   4.968  -3.516  0.00  0.00    +0.093 C 
ATOM     14  H   UNL     1     -10.560   7.863  -6.601  0.00  0.00    +0.157 HD
ENDROOT
BRANCH   1  27
ATOM     15  C   UNL     1       0.731   2.462   2.301  0.00  0.00    +0.063 C 
ATOM     16  C   UNL     1      -0.746   2.165   2.249  0.00  0.00    +0.014 A 
ATOM     17  C   UNL     1      -1.206   0.928   2.653  0.00  0.00    +0.021 A 
ATOM     18  C   UNL     1      -2.568   0.660   2.603  0.00  0.00    +0.005 A 
ATOM     19  C   UNL     1      -3.419   1.648   2.142  0.00  0.00    +0.042 A 
ATOM     20  C   UNL     1      -2.886   2.874   1.755  0.00  0.00    +0.099 A 
ATOM     21  N   UNL     1      -3.730   3.877   1.294  0.00  0.00    -0.314 N 
ATOM     22  C   UNL     1      -4.543   3.404   0.166  0.00  0.00    +0.125 C 
ATOM     23  C   UNL     1      -5.581   4.472  -0.194  0.00  0.00    +0.126 C 
ATOM     24  N   UNL     1      -4.882   5.746  -0.422  0.00  0.00    -0.298 N 
ATOM     25  C   UNL     1      -3.942   6.218   0.606  0.00  0.00    +0.126 C 
ATOM     26  C   UNL     1      -2.969   5.081   0.935  0.00  0.00    +0.125 C 
ATOM     27  C   UNL     1      -5.095   6.461  -1.545  0.00  0.00    +0.220 C 
ATOM     28  O   UNL     1      -4.578   7.550  -1.678  0.00  0.00    -0.275 OA
ATOM     29  N   UNL     1      -1.552   3.161   1.795  0.00  0.00    -0.347 N 
ATOM     30  H   UNL     1      -1.181   4.072   1.501  0.00  0.00    +0.167 HD
ENDBRANCH   1  27
BRANCH   9  31
ATOM     31  C   UNL     1     -11.975   6.780  -8.532  0.00  0.00    +0.099 C 
BRANCH  31  32
ATOM     32  C   UNL     1     -12.432   5.749  -9.566  0.00  0.00    -0.002 C 
ATOM     33  C   UNL     1     -11.338   5.562 -10.619  0.00  0.00    +0.004 C 
ATOM     34  C   UNL     1     -11.795   4.531 -11.652  0.00  0.00    +0.000 C 
ATOM     35  C   UNL     1     -13.076   5.022 -12.330  0.00  0.00    +0.000 C 
ATOM     36  C   UNL     1     -14.171   5.208 -11.277  0.00  0.00    +0.000 C 
ATOM     37  C   UNL     1     -13.713   6.239 -10.243  0.00  0.00    +0.004 C 
ENDBRANCH  31  32
ENDBRANCH   9  31
TORSDOF 3
