REMARK  Name = ZINC38965414
REMARK  5 active torsions:
REMARK  status: ('A' for Active; 'I' for Inactive)
REMARK    1  A    between atoms: C_1  and  C_2
REMARK    2  A    between atoms: C_4  and  N_9
REMARK    3  A    between atoms: N_9  and  C_10
REMARK    4  A    between atoms: N_13  and  S_14
REMARK    5  A    between atoms: S_14  and  C_17
REMARK                            x       y       z     vdW  Elec       q    Type
REMARK                         _______ _______ _______ _____ _____    ______ ____
ROOT
ATOM      1  C   UNL     1       0.158  -4.229  -2.426  0.00  0.00    +0.237 C 
ATOM      2  C   UNL     1      -0.847  -4.777  -3.414  0.00  0.00    +0.192 C 
ATOM      3  N   UNL     1      -2.115  -4.523  -3.275  0.00  0.00    -0.110 NA
ATOM      4  N   UNL     1      -0.412  -5.528  -4.438  0.00  0.00    -0.226 NA
ATOM      5  C   UNL     1       0.867  -5.798  -4.601  0.00  0.00    +0.089 A 
ATOM      6  C   UNL     1       1.291  -6.596  -5.694  0.00  0.00    +0.030 A 
ATOM      7  C   UNL     1       2.601  -6.877  -5.867  0.00  0.00    +0.002 A 
ATOM      8  C   UNL     1       3.599  -6.409  -4.996  0.00  0.00    +0.002 A 
ATOM      9  C   UNL     1       3.304  -5.642  -3.923  0.00  0.00    +0.027 A 
ATOM     10  C   UNL     1       1.900  -5.291  -3.666  0.00  0.00    +0.063 A 
ATOM     11  N   UNL     1       1.577  -4.552  -2.642  0.00  0.00    -0.359 N 
ATOM     12  H   UNL     1       2.259  -4.223  -2.034  0.00  0.00    +0.162 HD
ENDROOT
BRANCH   3  13
ATOM     13  S   UNL     1      -3.205  -5.129  -4.364  0.00  0.00    +0.100 S 
ATOM     14  O   UNL     1      -2.934  -4.494  -5.606  0.00  0.00    -0.146 OA
ATOM     15  O   UNL     1      -3.190  -6.541  -4.211  0.00  0.00    -0.146 OA
BRANCH  13  16
ATOM     16  C   UNL     1      -4.803  -4.585  -3.858  0.00  0.00    +0.113 A 
ATOM     17  C   UNL     1      -5.551  -5.353  -2.985  0.00  0.00    +0.029 A 
ATOM     18  C   UNL     1      -6.804  -4.926  -2.589  0.00  0.00    +0.002 A 
ATOM     19  C   UNL     1      -7.310  -3.731  -3.065  0.00  0.00    +0.000 A 
ATOM     20  C   UNL     1      -6.562  -2.962  -3.938  0.00  0.00    +0.002 A 
ATOM     21  C   UNL     1      -5.307  -3.387  -4.331  0.00  0.00    +0.029 A 
ENDBRANCH  13  16
ENDBRANCH   3  13
BRANCH   1  22
ATOM     22  N   UNL     1       0.028  -2.770  -2.418  0.00  0.00    -0.318 N 
ATOM     23  H   UNL     1       0.048  -2.276  -3.253  0.00  0.00    +0.148 HD
BRANCH  22  27
ATOM     24  C   UNL     1      -0.895   1.410  -0.003  0.00  0.00    +0.045 C 
ATOM     25  C   UNL     1      -0.574  -0.063  -0.006  0.00  0.00    -0.035 A 
ATOM     26  C   UNL     1      -0.422  -0.733  -1.205  0.00  0.00    +0.027 A 
ATOM     27  C   UNL     1      -0.126  -2.090  -1.207  0.00  0.00    +0.029 A 
ATOM     28  C   UNL     1       0.017  -2.769  -0.004  0.00  0.00    +0.024 A 
ATOM     29  C   UNL     1      -0.136  -2.094   1.191  0.00  0.00    +0.017 A 
ATOM     30  C   UNL     1      -0.425  -0.741   1.190  0.00  0.00    +0.021 A 
ATOM     31 BR   UNL     1      -0.626   0.182   2.829  0.00  0.00    -0.050 Br
ENDBRANCH  22  27
ENDBRANCH   1  22
TORSDOF 4
