REMARK  Name = ZINC37039949
REMARK  7 active torsions:
REMARK  status: ('A' for Active; 'I' for Inactive)
REMARK    1  A    between atoms: N_3  and  C_15
REMARK    2  A    between atoms: N_6  and  C_8
REMARK    3  A    between atoms: C_8  and  C_9
REMARK    4  A    between atoms: C_15  and  C_16
REMARK    5  A    between atoms: C_16  and  C_17
REMARK    6  A    between atoms: C_17  and  C_18
REMARK    7  A    between atoms: C_18  and  N_19
REMARK                            x       y       z     vdW  Elec       q    Type
REMARK                         _______ _______ _______ _____ _____    ______ ____
ROOT
ATOM      1  C   UNL     1      -0.018   1.458   0.010  0.00  0.00    -0.003 C 
ATOM      2  C   UNL     1       1.413   2.042  -0.001  0.00  0.00    +0.082 C 
ATOM      3  N   UNL     1       1.982   1.918   1.321  0.00  0.00    -0.304 NA
ATOM      4  C   UNL     1       2.764   0.680   1.542  0.00  0.00    +0.066 C 
ATOM      5  C   UNL     1       2.093  -0.571   0.952  0.00  0.00    -0.063 C 
ATOM      6  N   UNL     1       0.668  -0.580   1.187  0.00  0.00    +0.386 N 
ATOM      7  C   UNL     1       0.002  -0.004   0.002  0.00  0.00    -0.077 C 
ATOM      8  H   UNL     1       0.455  -0.024   2.001  0.00  0.00    -0.081 HD
ENDROOT
BRANCH   6   9
ATOM      9  C   UNL     1       0.208  -1.960   1.392  0.00  0.00    +0.019 C 
BRANCH   9  10
ATOM     10  C   UNL     1      -1.254  -1.953   1.758  0.00  0.00    +0.204 C 
ATOM     11  O   UNL     1      -1.853  -0.902   1.839  0.00  0.00    -0.277 OA
ATOM     12  N   UNL     1      -1.895  -3.114   1.995  0.00  0.00    -0.242 N 
ATOM     13  C   UNL     1      -3.202  -3.108   2.322  0.00  0.00    +0.303 C 
ATOM     14  O   UNL     1      -3.803  -2.054   2.403  0.00  0.00    -0.253 OA
ATOM     15  N   UNL     1      -3.843  -4.269   2.558  0.00  0.00    -0.313 N 
ATOM     16  H   UNL     1      -1.415  -3.955   1.930  0.00  0.00    +0.159 HD
ATOM     17  H   UNL     1      -3.364  -5.110   2.493  0.00  0.00    +0.146 HD
ATOM     18  H   UNL     1      -4.784  -4.265   2.794  0.00  0.00    +0.146 HD
ENDBRANCH   9  10
ENDBRANCH   6   9
BRANCH   3  19
ATOM     19  C   UNL     1       2.771   3.107   1.668  0.00  0.00    +0.084 C 
BRANCH  19  20
ATOM     20  C   UNL     1       1.844   4.319   1.783  0.00  0.00    +0.013 C 
BRANCH  20  21
ATOM     21  C   UNL     1       2.666   5.558   2.145  0.00  0.00    -0.018 C 
BRANCH  21  22
ATOM     22  C   UNL     1       1.738   6.769   2.260  0.00  0.00    -0.086 C 
BRANCH  22  23
ATOM     23  N   UNL     1       2.527   7.959   2.607  0.00  0.00    +0.378 N 
ATOM     24  H   UNL     1       2.994   7.807   3.489  0.00  0.00    -0.090 HD
ATOM     25  H   UNL     1       3.214   8.128   1.887  0.00  0.00    -0.090 HD
ATOM     26  H   UNL     1       1.915   8.758   2.683  0.00  0.00    -0.090 HD
ENDBRANCH  22  23
ENDBRANCH  21  22
ENDBRANCH  20  21
ENDBRANCH  19  20
ENDBRANCH   3  19
TORSDOF 7
