REMARK  Name = ZINC13473987
REMARK  8 active torsions:
REMARK  status: ('A' for Active; 'I' for Inactive)
REMARK    1  A    between atoms: C_1  and  C_2
REMARK    2  A    between atoms: C_4  and  O_20
REMARK    3  A    between atoms: C_6  and  O_9
REMARK    4  A    between atoms: O_9  and  C_10
REMARK    5  A    between atoms: C_14  and  C_16
REMARK    6  A    between atoms: N_18  and  C_19
REMARK    7  A    between atoms: O_20  and  C_21
REMARK    8  A    between atoms: C_25  and  C_27
REMARK                            x       y       z     vdW  Elec       q    Type
REMARK                         _______ _______ _______ _____ _____    ______ ____
ROOT
ATOM      1  C   UNL     1      -1.856  -0.255  -1.367  0.00  0.00    +0.050 C 
ATOM      2  C   UNL     1      -2.136   0.699  -0.233  0.00  0.00    +0.030 A 
ATOM      3  C   UNL     1      -3.176   0.461   0.653  0.00  0.00    +0.191 A 
ATOM      4  C   UNL     1      -3.402   1.357   1.690  0.00  0.00    +0.260 A 
ATOM      5  N   UNL     1      -2.645   2.433   1.830  0.00  0.00    -0.172 NA
ATOM      6  C   UNL     1      -1.649   2.693   1.000  0.00  0.00    +0.260 A 
ATOM      7  C   UNL     1      -1.362   1.836  -0.056  0.00  0.00    +0.191 A 
ATOM      8  F   UNL     1      -0.343   2.108  -0.900  0.00  0.00    -0.200 F 
ATOM      9  F   UNL     1      -3.957  -0.633   0.512  0.00  0.00    -0.200 F 
ENDROOT
BRANCH   6  10
ATOM     10  O   UNL     1      -0.897   3.809   1.181  0.00  0.00    -0.436 OA
BRANCH  10  11
ATOM     11  C   UNL     1      -1.284   4.690   2.141  0.00  0.00    +0.131 A 
ATOM     12  C   UNL     1      -2.609   4.728   2.555  0.00  0.00    +0.046 A 
ATOM     13  C   UNL     1      -3.009   5.622   3.531  0.00  0.00    +0.004 A 
ATOM     14  C   UNL     1      -2.092   6.482   4.101  0.00  0.00    +0.013 A 
ATOM     15  C   UNL     1      -0.758   6.451   3.693  0.00  0.00    +0.040 A 
ATOM     16  C   UNL     1      -0.356   5.545   2.711  0.00  0.00    +0.059 A 
BRANCH  15  17
ATOM     17  C   UNL     1       0.226   7.370   4.302  0.00  0.00    +0.244 C 
ATOM     18  O   UNL     1       1.387   7.341   3.944  0.00  0.00    -0.270 OA
ATOM     19  N   UNL     1      -0.164   8.240   5.255  0.00  0.00    -0.314 N 
ATOM     20  C   UNL     1       0.811   9.152   5.858  0.00  0.00    +0.128 C 
ATOM     21  H   UNL     1      -1.091   8.263   5.540  0.00  0.00    +0.149 HD
ENDBRANCH  15  17
ENDBRANCH  10  11
ENDBRANCH   6  10
BRANCH   4  22
ATOM     22  O   UNL     1      -4.414   1.129   2.566  0.00  0.00    -0.436 OA
BRANCH  22  23
ATOM     23  C   UNL     1      -4.508   1.935   3.656  0.00  0.00    +0.131 A 
ATOM     24  C   UNL     1      -3.372   2.556   4.160  0.00  0.00    +0.046 A 
ATOM     25  C   UNL     1      -3.462   3.377   5.268  0.00  0.00    +0.004 A 
ATOM     26  C   UNL     1      -4.682   3.584   5.882  0.00  0.00    +0.011 A 
ATOM     27  C   UNL     1      -5.827   2.965   5.383  0.00  0.00    +0.016 A 
ATOM     28  C   UNL     1      -5.736   2.141   4.261  0.00  0.00    +0.057 A 
BRANCH  27  29
ATOM     29  C   UNL     1      -7.136   3.185   6.038  0.00  0.00    +0.094 C 
ATOM     30  N   UNL     1      -7.224   4.003   7.144  0.00  0.00    -0.345 N 
ATOM     31  H   UNL     1      -9.107   2.688   5.931  0.00  0.00    +0.157 HD
ATOM     32  H   UNL     1      -6.428   4.435   7.492  0.00  0.00    +0.144 HD
ATOM     33  H   UNL     1      -8.082   4.147   7.573  0.00  0.00    +0.144 HD
ATOM     34  N   UNL     1      -8.184   2.567   5.515  0.00  0.00    -0.387 N 
ATOM     35  H   UNL     1      -8.067   1.968   4.690  0.00  0.00    +0.157 HD
ENDBRANCH  27  29
ENDBRANCH  22  23
ENDBRANCH   4  22
TORSDOF 6
