REMARK  Name = ZINC13740423
REMARK  6 active torsions:
REMARK  status: ('A' for Active; 'I' for Inactive)
REMARK    1  A    between atoms: C_1  and  C_2
REMARK    2  A    between atoms: N_11  and  C_14
REMARK    3  A    between atoms: C_14  and  C_15
REMARK    4  A    between atoms: C_15  and  C_16
REMARK    5  A    between atoms: C_17  and  C_29
REMARK    6  A    between atoms: C_22  and  N_28
REMARK                            x       y       z     vdW  Elec       q    Type
REMARK                         _______ _______ _______ _____ _____    ______ ____
ROOT
ATOM      1  C   UNL     1       3.254   0.144  -0.022  0.00  0.00    +0.053 C 
ENDROOT
BRANCH   1   2
ATOM      2  C   UNL     1       2.618   1.510  -0.014  0.00  0.00    -0.018 A 
ATOM      3  C   UNL     1       3.270   2.697  -0.017  0.00  0.00    +0.020 A 
ATOM      4  N   UNL     1       2.381   3.719  -0.007  0.00  0.00    -0.344 N 
ATOM      5  C   UNL     1       1.100   3.186   0.008  0.00  0.00    +0.053 A 
ATOM      6  C   UNL     1       1.183   1.798   0.000  0.00  0.00    +0.005 A 
ATOM      7  C   UNL     1      -0.013   1.076   0.008  0.00  0.00    +0.033 A 
ATOM      8  C   UNL     1      -1.218   1.759   0.017  0.00  0.00    +0.025 A 
ATOM      9  C   UNL     1      -1.272   3.159   0.033  0.00  0.00    +0.028 A 
ATOM     10  C   UNL     1      -0.109   3.877   0.026  0.00  0.00    -0.021 A 
ATOM     11  C   UNL     1       0.000   5.378   0.041  0.00  0.00    +0.039 C 
ATOM     12  C   UNL     1       1.298   5.803  -0.654  0.00  0.00    +0.026 C 
ATOM     13  C   UNL     1       2.542   5.179  -0.010  0.00  0.00    +0.122 C 
ATOM     14  C   UNL     1       4.768   2.857  -0.030  0.00  0.00    +0.064 C 
BRANCH   8  15
ATOM     15  N   UNL     1      -2.413   1.031   0.017  0.00  0.00    -0.358 N 
ATOM     16  H   UNL     1      -3.378   1.559   0.025  0.00  0.00    +0.142 HD
ATOM     17  H   UNL     1      -2.388  -0.068   0.010  0.00  0.00    +0.142 HD
ENDBRANCH   8  15
ENDBRANCH   1   2
BRANCH   1  18
ATOM     18  C   UNL     1       3.455  -0.316  -1.467  0.00  0.00    +0.089 C 
BRANCH  18  29
ATOM     19  C   UNL     1       9.872  -6.483  -1.279  0.00  0.00    +0.044 C 
ATOM     20  C   UNL     1       8.469  -6.268  -1.784  0.00  0.00    -0.046 A 
ATOM     21  C   UNL     1       7.720  -7.330  -2.274  0.00  0.00    +0.021 A 
ATOM     22  C   UNL     1       6.438  -7.099  -2.730  0.00  0.00    +0.084 A 
ATOM     23  N   UNL     1       5.918  -5.886  -2.705  0.00  0.00    -0.350 N 
ATOM     24  C   UNL     1       6.600  -4.848  -2.246  0.00  0.00    +0.099 A 
ATOM     25  C   UNL     1       7.900  -5.007  -1.776  0.00  0.00    +0.045 A 
ATOM     26  N   UNL     1       6.013  -3.588  -2.239  0.00  0.00    -0.314 N 
ATOM     27  C   UNL     1       4.648  -3.639  -2.779  0.00  0.00    +0.122 C 
ATOM     28  C   UNL     1       4.068  -2.224  -2.828  0.00  0.00    +0.103 C 
ATOM     29  N   UNL     1       4.075  -1.648  -1.476  0.00  0.00    -0.299 NA
ATOM     30  C   UNL     1       5.440  -1.597  -0.935  0.00  0.00    +0.103 C 
ATOM     31  C   UNL     1       6.020  -3.012  -0.886  0.00  0.00    +0.122 C 
ATOM     32  H   UNL     1       4.894  -5.719  -3.072  0.00  0.00    +0.166 HD
ENDBRANCH  18  29
ENDBRANCH   1  18
TORSDOF 4
