REMARK  Name = ZINC01026632
REMARK  7 active torsions:
REMARK  status: ('A' for Active; 'I' for Inactive)
REMARK    1  A    between atoms: C_1  and  C_2
REMARK    2  A    between atoms: C_3  and  C_19
REMARK    3  A    between atoms: C_4  and  C_10
REMARK    4  A    between atoms: C_13  and  O_18
REMARK    5  A    between atoms: C_14  and  O_16
REMARK    6  A    between atoms: O_16  and  C_17
REMARK    7  A    between atoms: N_21  and  C_22
REMARK                            x       y       z     vdW  Elec       q    Type
REMARK                         _______ _______ _______ _____ _____    ______ ____
ROOT
ATOM      1  C   UNL     1       1.841   1.869   1.894  0.00  0.00    +0.061 C 
ATOM      2  C   UNL     1       0.386   1.972   2.273  0.00  0.00    +0.017 C 
ATOM      3  C   UNL     1      -0.280   3.123   2.043  0.00  0.00    +0.056 C 
ATOM      4  C   UNL     1      -1.743   3.182   2.434  0.00  0.00    +0.139 C 
ATOM      5  N   UNL     1      -2.319   1.974   3.047  0.00  0.00    -0.315 N 
ATOM      6  C   UNL     1      -1.523   0.899   3.218  0.00  0.00    +0.135 C 
ATOM      7  S   UNL     1      -2.179  -0.513   3.929  0.00  0.00    -0.019 S 
ATOM      8  N   UNL     1      -0.236   0.901   2.848  0.00  0.00    -0.300 N 
ATOM      9  H   UNL     1      -3.249   1.951   3.322  0.00  0.00    +0.149 HD
ATOM     10  H   UNL     1       0.284   0.096   2.997  0.00  0.00    +0.154 HD
ENDROOT
BRANCH   4  11
ATOM     11  C   UNL     1      -2.545   3.505   1.200  0.00  0.00    -0.019 A 
ATOM     12  C   UNL     1      -3.088   4.766   1.040  0.00  0.00    +0.009 A 
ATOM     13  C   UNL     1      -3.825   5.067  -0.090  0.00  0.00    +0.049 A 
ATOM     14  C   UNL     1      -4.020   4.103  -1.067  0.00  0.00    +0.158 A 
ATOM     15  C   UNL     1      -3.474   2.834  -0.906  0.00  0.00    +0.162 A 
ATOM     16  C   UNL     1      -2.732   2.540   0.227  0.00  0.00    +0.055 A 
BRANCH  15  17
ATOM     17  O   UNL     1      -3.663   1.885  -1.861  0.00  0.00    -0.491 OA
ATOM     18  C   UNL     1      -3.148   0.579  -1.590  0.00  0.00    +0.277 C 
ENDBRANCH  15  17
BRANCH  14  19
ATOM     19  O   UNL     1      -4.744   4.398  -2.180  0.00  0.00    -0.503 OA
ATOM     20  H   UNL     1      -4.216   4.748  -2.911  0.00  0.00    +0.292 HD
ENDBRANCH  14  19
ENDBRANCH   4  11
BRANCH   3  21
ATOM     21  C   UNL     1       0.365   4.237   1.452  0.00  0.00    +0.248 C 
ATOM     22  O   UNL     1       1.505   4.130   1.036  0.00  0.00    -0.270 OA
ATOM     23  N   UNL     1      -0.282   5.415   1.349  0.00  0.00    -0.282 N 
ATOM     24  H   UNL     1      -1.144   5.534   1.779  0.00  0.00    +0.155 HD
BRANCH  23  25
ATOM     25  C   UNL     1       0.289   6.465   0.624  0.00  0.00    +0.034 A 
ATOM     26  C   UNL     1       1.076   6.196  -0.488  0.00  0.00    +0.023 A 
ATOM     27  C   UNL     1       1.633   7.236  -1.206  0.00  0.00    +0.002 A 
ATOM     28  C   UNL     1       1.419   8.544  -0.810  0.00  0.00    +0.000 A 
ATOM     29  C   UNL     1       0.640   8.815   0.300  0.00  0.00    +0.002 A 
ATOM     30  C   UNL     1       0.075   7.780   1.018  0.00  0.00    +0.023 A 
ENDBRANCH  23  25
ENDBRANCH   3  21
TORSDOF 5
