REMARK  Name = ZINC36954812
REMARK  6 active torsions:
REMARK  status: ('A' for Active; 'I' for Inactive)
REMARK    1  A    between atoms: C_1  and  C_2
REMARK    2  A    between atoms: C_2  and  C_4
REMARK    3  A    between atoms: C_2  and  N_14
REMARK    4  A    between atoms: C_7  and  S_10
REMARK    5  A    between atoms: S_10  and  N_13
REMARK    6  A    between atoms: N_14  and  C_15
REMARK                            x       y       z     vdW  Elec       q    Type
REMARK                         _______ _______ _______ _____ _____    ______ ____
ROOT
ATOM      1  C   UNL     1       0.120   1.661  -0.158  0.00  0.00    -0.009 C 
ATOM      2  C   UNL     1       0.080   0.137  -0.020  0.00  0.00    -0.044 C 
ENDROOT
BRANCH   2   3
ATOM      3  C   UNL     1       0.847  -0.276   1.210  0.00  0.00    -0.062 A 
ATOM      4  C   UNL     1       2.227  -0.345   1.173  0.00  0.00    +0.004 A 
ATOM      5  C   UNL     1       2.930  -0.724   2.301  0.00  0.00    +0.029 A 
ATOM      6  C   UNL     1       2.254  -1.034   3.466  0.00  0.00    +0.105 A 
ATOM      7  C   UNL     1       0.874  -0.965   3.503  0.00  0.00    +0.029 A 
ATOM      8  C   UNL     1       0.170  -0.581   2.376  0.00  0.00    +0.004 A 
BRANCH   6   9
ATOM      9  S   UNL     1       3.150  -1.519   4.904  0.00  0.00    +0.056 S 
ATOM     10  O   UNL     1       2.256  -2.282   5.702  0.00  0.00    -0.153 OA
ATOM     11  O   UNL     1       4.396  -2.032   4.452  0.00  0.00    -0.153 OA
BRANCH   9  12
ATOM     12  N   UNL     1       3.488  -0.141   5.758  0.00  0.00    -0.204 NA
ATOM     13  H   UNL     1       3.567  -0.176   6.724  0.00  0.00    +0.144 HD
ATOM     14  H   UNL     1       3.606   0.702   5.292  0.00  0.00    +0.144 HD
ENDBRANCH   9  12
ENDBRANCH   6   9
ENDBRANCH   2   3
BRANCH   2  15
ATOM     15  N   UNL     1       0.690  -0.478  -1.207  0.00  0.00    +0.385 N 
ATOM     16  H   UNL     1       1.612  -0.094  -1.348  0.00  0.00    -0.085 HD
ATOM     17  H   UNL     1       0.758  -1.475  -1.071  0.00  0.00    -0.085 HD
BRANCH  15  18
ATOM     18  C   UNL     1      -0.143  -0.199  -2.385  0.00  0.00    -0.071 C 
ATOM     19  C   UNL     1      -1.484  -0.923  -2.244  0.00  0.00    -0.016 C 
ATOM     20  C   UNL     1      -2.486  -0.336  -3.240  0.00  0.00    -0.002 C 
ATOM     21  C   UNL     1      -2.387   1.191  -3.224  0.00  0.00    -0.000 C 
ATOM     22  C   UNL     1      -1.837   1.680  -4.566  0.00  0.00    -0.000 C 
ATOM     23  C   UNL     1      -0.330   1.421  -4.623  0.00  0.00    -0.000 C 
ATOM     24  C   UNL     1      -0.077  -0.066  -4.878  0.00  0.00    -0.002 C 
ATOM     25  C   UNL     1       0.574  -0.693  -3.643  0.00  0.00    -0.016 C 
ENDBRANCH  15  18
ENDBRANCH   2  15
TORSDOF 5
