REMARK  Name = ZINC06471419
REMARK  8 active torsions:
REMARK  status: ('A' for Active; 'I' for Inactive)
REMARK    1  A    between atoms: C_1  and  N_46
REMARK    2  A    between atoms: C_4  and  N_7
REMARK    3  A    between atoms: N_7  and  N_8
REMARK    4  A    between atoms: C_9  and  C_10
REMARK    5  A    between atoms: C_9  and  O_25
REMARK    6  A    between atoms: C_15  and  N_16
REMARK    7  A    between atoms: N_16  and  S_17
REMARK    8  A    between atoms: S_17  and  C_20
REMARK                            x       y       z     vdW  Elec       q    Type
REMARK                         _______ _______ _______ _____ _____    ______ ____
ROOT
ATOM      1  C   UNL     1       2.273   1.118  -0.819  0.00  0.00    +0.060 A 
ATOM      2  C   UNL     1       3.438   1.859  -1.021  0.00  0.00    +0.015 A 
ATOM      3  C   UNL     1       3.499   3.173  -0.606  0.00  0.00    +0.001 A 
ATOM      4  C   UNL     1       2.409   3.762   0.013  0.00  0.00    +0.002 A 
ATOM      5  C   UNL     1       1.248   3.042   0.215  0.00  0.00    +0.025 A 
ATOM      6  C   UNL     1       1.170   1.718  -0.192  0.00  0.00    +0.060 A 
ENDROOT
BRANCH   1   8
ATOM      7  N   UNL     1       1.112  -0.976  -1.070  0.00  0.00    -0.144 NA
ATOM      8  C   UNL     1       2.201  -0.288  -1.261  0.00  0.00    +0.237 C 
BRANCH   7   9
ATOM      9  N   UNL     1       1.006  -2.276  -1.581  0.00  0.00    -0.239 N 
ATOM     10  H   UNL     1       1.769  -2.691  -2.013  0.00  0.00    +0.174 HD
BRANCH   9  14
ATOM     11  C   UNL     1      -3.908  -4.933  -1.338  0.00  0.00    -0.096 C 
ATOM     12  C   UNL     1      -1.492  -5.080  -1.452  0.00  0.00    -0.073 C 
ATOM     13  C   UNL     1      -0.271  -4.360  -2.034  0.00  0.00    +0.033 C 
ATOM     14  C   UNL     1      -0.189  -2.969  -1.469  0.00  0.00    +0.018 C 
ATOM     15  C   UNL     1      -1.203  -2.383  -0.880  0.00  0.00    -0.025 C 
ATOM     16  C   UNL     1      -2.539  -3.043  -0.697  0.00  0.00    -0.050 C 
ATOM     17  N   UNL     1      -2.658  -4.190  -1.616  0.00  0.00    +0.380 N 
ATOM     18  H   UNL     1      -2.683  -3.844  -2.583  0.00  0.00    -0.082 HD
ENDBRANCH   9  14
ENDBRANCH   7   9
BRANCH   8  19
ATOM     19  O   UNL     1       3.270  -0.865  -1.868  0.00  0.00    -0.491 OA
ATOM     20  H   UNL     1       3.844  -1.359  -1.267  0.00  0.00    +0.294 HD
ENDBRANCH   8  19
ENDBRANCH   1   8
BRANCH   6  21
ATOM     21  N   UNL     1       0.001   0.988   0.016  0.00  0.00    -0.215 N 
ATOM     22  H   UNL     1       0.050   0.044   0.231  0.00  0.00    +0.174 HD
BRANCH  21  23
ATOM     23  S   UNL     1      -1.473   1.732  -0.112  0.00  0.00    +0.079 S 
ATOM     24  O   UNL     1      -2.455   0.714   0.021  0.00  0.00    -0.149 OA
ATOM     25  O   UNL     1      -1.431   2.866   0.744  0.00  0.00    -0.149 OA
BRANCH  23  26
ATOM     26  C   UNL     1      -1.605   2.348  -1.757  0.00  0.00    +0.146 A 
ATOM     27  C   UNL     1      -2.102   1.736  -2.860  0.00  0.00    +0.036 A 
ATOM     28  C   UNL     1      -2.106   2.420  -4.061  0.00  0.00    +0.010 A 
ATOM     29  C   UNL     1      -1.613   3.682  -4.101  0.00  0.00    +0.047 A 
ATOM     30  S   UNL     1      -1.126   3.942  -2.403  0.00  0.00    -0.077 S 
ENDBRANCH  23  26
ENDBRANCH  21  23
ENDBRANCH   6  21
TORSDOF 7
