REMARK  Name = ZINC09227621
REMARK  6 active torsions:
REMARK  status: ('A' for Active; 'I' for Inactive)
REMARK    1  A    between atoms: C_1  and  C_2
REMARK    2  A    between atoms: C_1  and  S_5
REMARK    3  A    between atoms: S_5  and  C_6
REMARK    4  A    between atoms: C_12  and  C_14
REMARK    5  A    between atoms: C_14  and  S_15
REMARK    6  A    between atoms: S_15  and  C_16
REMARK                            x       y       z     vdW  Elec       q    Type
REMARK                         _______ _______ _______ _____ _____    ______ ____
ROOT
ATOM      1  C   UNL     1       1.100   1.973   0.002  0.00  0.00    +0.160 A 
ATOM      2  N   UNL     1      -0.015   1.257   0.009  0.00  0.00    -0.133 NA
ATOM      3  N   UNL     1       0.002  -0.004   0.002  0.00  0.00    -0.125 NA
ATOM      4  C   UNL     1       1.133  -0.690  -0.013  0.00  0.00    +0.189 A 
ATOM      5  S   UNL     1       2.314   0.656  -0.017  0.00  0.00    -0.024 S 
ATOM      6  N   UNL     1       1.345  -2.067  -0.021  0.00  0.00    -0.263 N 
ATOM      7  C   UNL     1       0.294  -2.910  -0.016  0.00  0.00    +0.229 C 
ATOM      8  O   UNL     1      -0.836  -2.471  -0.003  0.00  0.00    -0.275 OA
ATOM      9  H   UNL     1       2.249  -2.418  -0.032  0.00  0.00    +0.157 HD
ENDROOT
BRANCH   1  10
ATOM     10  S   UNL     1       1.324   3.720   0.009  0.00  0.00    -0.088 S 
BRANCH  10  11
ATOM     11  C   UNL     1      -0.365   4.380   0.028  0.00  0.00    +0.171 C 
BRANCH  11  12
ATOM     12  C   UNL     1      -0.317   5.886   0.035  0.00  0.00    +0.221 C 
ATOM     13  O   UNL     1       0.752   6.458   0.028  0.00  0.00    -0.275 OA
ATOM     14  N   UNL     1      -1.462   6.597   0.050  0.00  0.00    -0.329 N 
ATOM     15  H   UNL     1      -2.317   6.139   0.056  0.00  0.00    +0.145 HD
ATOM     16  H   UNL     1      -1.430   7.567   0.054  0.00  0.00    +0.145 HD
ENDBRANCH  11  12
ENDBRANCH  10  11
ENDBRANCH   1  10
BRANCH   7  17
ATOM     17  C   UNL     1       0.524  -4.400  -0.026  0.00  0.00    +0.172 C 
BRANCH  17  18
ATOM     18  S   UNL     1      -1.074  -5.258  -0.015  0.00  0.00    -0.088 S 
BRANCH  18  19
ATOM     19  C   UNL     1      -0.641  -6.966  -0.028  0.00  0.00    +0.160 A 
ATOM     20  N   UNL     1       0.554  -7.525  -0.042  0.00  0.00    -0.133 NA
ATOM     21  N   UNL     1       0.667  -8.896  -0.049  0.00  0.00    -0.125 NA
ATOM     22  C   UNL     1      -0.418  -9.645  -0.043  0.00  0.00    +0.180 A 
ATOM     23  S   UNL     1      -1.702  -8.403  -0.018  0.00  0.00    -0.025 S 
ATOM     24  N   UNL     1      -0.533 -11.030  -0.048  0.00  0.00    -0.336 N 
ATOM     25  H   UNL     1       0.264 -11.582  -0.058  0.00  0.00    +0.144 HD
ATOM     26  H   UNL     1      -1.410 -11.444  -0.042  0.00  0.00    +0.144 HD
ENDBRANCH  18  19
ENDBRANCH  17  18
ENDBRANCH   7  17
TORSDOF 6
