REMARK  Name = ZINC66968471
REMARK  8 active torsions:
REMARK  status: ('A' for Active; 'I' for Inactive)
REMARK    1  A    between atoms: C_1  and  C_2
REMARK    2  A    between atoms: C_2  and  C_3
REMARK    3  A    between atoms: C_3  and  N_4
REMARK    4  A    between atoms: C_10  and  N_13
REMARK    5  A    between atoms: N_13  and  C_14
REMARK    6  A    between atoms: C_14  and  C_16
REMARK    7  A    between atoms: C_14  and  C_17
REMARK    8  A    between atoms: N_22  and  C_23
REMARK                            x       y       z     vdW  Elec       q    Type
REMARK                         _______ _______ _______ _____ _____    ______ ____
ROOT
ATOM      1  N   UNL     1       3.770  -2.783   4.413  0.00  0.00    -0.333 N 
ATOM      2  H   UNL     1       2.881  -2.700   4.792  0.00  0.00    +0.147 HD
ENDROOT
BRANCH   1   9
ATOM      3  N   UNL     1       0.762  -1.980   1.234  0.00  0.00    +0.385 N 
ATOM      4  C   UNL     1       1.661  -2.481   0.169  0.00  0.00    -0.042 C 
ATOM      5  C   UNL     1       3.018  -2.633   0.818  0.00  0.00    -0.061 A 
ATOM      6  C   UNL     1       4.286  -2.752   0.281  0.00  0.00    +0.002 A 
ATOM      7  C   UNL     1       5.383  -2.881   1.113  0.00  0.00    +0.002 A 
ATOM      8  C   UNL     1       5.216  -2.891   2.484  0.00  0.00    +0.023 A 
ATOM      9  C   UNL     1       3.943  -2.772   3.027  0.00  0.00    +0.029 A 
ATOM     10  C   UNL     1       2.843  -2.643   2.190  0.00  0.00    -0.042 A 
ATOM     11  C   UNL     1       1.367  -2.498   2.482  0.00  0.00    -0.040 C 
ATOM     12  H   UNL     1      -0.171  -2.346   1.114  0.00  0.00    -0.081 HD
BRANCH   3  13
ATOM     13  C   UNL     1       0.742  -0.511   1.242  0.00  0.00    -0.078 C 
BRANCH  13  15
ATOM     14  C   UNL     1      -0.019   1.526   0.010  0.00  0.00    +0.002 C 
ATOM     15  C   UNL     1       0.002  -0.004   0.002  0.00  0.00    -0.022 C 
ENDBRANCH  13  15
ENDBRANCH   3  13
ENDBRANCH   1   9
BRANCH   1  16
ATOM     16  C   UNL     1       4.932  -2.920   5.295  0.00  0.00    +0.154 C 
ATOM     17  C   UNL     1       5.558  -1.544   5.531  0.00  0.00    +0.038 C 
BRANCH  16  18
ATOM     18  C   UNL     1       4.495  -3.506   6.613  0.00  0.00    +0.240 C 
ATOM     19  O   UNL     1       3.329  -3.783   6.797  0.00  0.00    -0.273 OA
ATOM     20  N   UNL     1       5.402  -3.724   7.587  0.00  0.00    -0.239 N 
ATOM     21  C   UNL     1       5.011  -4.248   8.766  0.00  0.00    +0.306 C 
ATOM     22  O   UNL     1       3.842  -4.525   8.950  0.00  0.00    -0.252 OA
ATOM     23  N   UNL     1       5.917  -4.465   9.739  0.00  0.00    -0.296 N 
ATOM     24  H   UNL     1       6.335  -3.503   7.439  0.00  0.00    +0.159 HD
ATOM     25  H   UNL     1       6.850  -4.244   9.592  0.00  0.00    +0.151 HD
BRANCH  23  26
ATOM     26  C   UNL     1       5.493  -5.035  11.021  0.00  0.00    +0.074 C 
ATOM     27  C   UNL     1       5.054  -3.910  11.980  0.00  0.00    +0.022 C 
ATOM     28  C   UNL     1       5.550  -4.381  13.370  0.00  0.00    +0.002 C 
ATOM     29  C   UNL     1       6.914  -5.038  13.042  0.00  0.00    +0.002 C 
ATOM     30  C   UNL     1       6.675  -5.752  11.696  0.00  0.00    +0.022 C 
ENDBRANCH  23  26
ENDBRANCH  16  18
ENDBRANCH   1  16
TORSDOF 6
