REMARK  Name = ZINC39630985
REMARK  10 active torsions:
REMARK  status: ('A' for Active; 'I' for Inactive)
REMARK    1  A    between atoms: C_1  and  C_2
REMARK    2  A    between atoms: C_2  and  C_3
REMARK    3  A    between atoms: C_2  and  C_4
REMARK    4  A    between atoms: C_2  and  C_28
REMARK    5  A    between atoms: C_4  and  N_5
REMARK    6  A    between atoms: C_6  and  C_8
REMARK    7  A    between atoms: C_19  and  C_21
REMARK    8  A    between atoms: C_28  and  N_29
REMARK    9  A    between atoms: N_29  and  C_30
REMARK   10  A    between atoms: N_29  and  C_31
REMARK                            x       y       z     vdW  Elec       q    Type
REMARK                         _______ _______ _______ _____ _____    ______ ____
ROOT
ATOM      1  C   UNL     1      -5.906   1.360   2.197  0.00  0.00    +0.100 C 
ATOM      2  C   UNL     1      -5.594   0.430   3.391  0.00  0.00    +0.121 C 
ATOM      3  N   UNL     1      -6.913   0.158   4.009  0.00  0.00    -0.300 N 
ATOM      4  C   UNL     1      -7.835   0.004   2.858  0.00  0.00    +0.115 C 
ATOM      5  C   UNL     1      -7.378   1.077   1.850  0.00  0.00    -0.004 C 
ATOM      6  C   UNL     1      -7.491   0.543   0.425  0.00  0.00    -0.010 C 
ATOM      7  C   UNL     1      -8.968   0.325   0.083  0.00  0.00    -0.082 C 
ATOM      8  N   UNL     1      -9.695   1.593   0.211  0.00  0.00    +0.379 N 
ATOM      9  C   UNL     1      -9.659   2.052   1.605  0.00  0.00    -0.082 C 
ATOM     10  C   UNL     1      -8.212   2.343   2.012  0.00  0.00    -0.010 C 
ATOM     11  C   UNL     1      -7.209   0.072   5.321  0.00  0.00    +0.219 C 
ATOM     12  O   UNL     1      -6.361   0.322   6.151  0.00  0.00    -0.275 OA
ATOM     13  H   UNL     1      -9.264   2.288  -0.381  0.00  0.00    -0.086 HD
ATOM     14  H   UNL     1     -10.654   1.460  -0.073  0.00  0.00    -0.086 HD
ENDROOT
BRANCH  11  15
ATOM     15  C   UNL     1      -8.592  -0.336   5.757  0.00  0.00    +0.079 C 
ATOM     16  C   UNL     1      -8.880   0.228   7.154  0.00  0.00    +0.017 C 
ATOM     17  C   UNL     1     -10.347  -0.048   7.494  0.00  0.00    +0.027 C 
ATOM     18  C   UNL     1     -10.676  -1.488   7.233  0.00  0.00    -0.031 C 
ATOM     19  C   UNL     1      -9.954  -2.276   6.503  0.00  0.00    -0.030 C 
ATOM     20  C   UNL     1      -8.684  -1.862   5.818  0.00  0.00    +0.039 C 
ENDBRANCH  11  15
BRANCH   1  22
ATOM     21  N   UNL     1      -4.657   1.994   0.159  0.00  0.00    -0.315 N 
ATOM     22  C   UNL     1      -5.018   1.028   1.026  0.00  0.00    +0.218 C 
ATOM     23  O   UNL     1      -4.627  -0.109   0.865  0.00  0.00    -0.275 OA
ATOM     24  H   UNL     1      -4.969   2.903   0.288  0.00  0.00    +0.149 HD
BRANCH  21  25
ATOM     25  C   UNL     1      -3.792   1.671  -0.979  0.00  0.00    +0.108 C 
BRANCH  25  27
ATOM     26  C   UNL     1      -4.868   3.490  -2.312  0.00  0.00    +0.010 C 
ATOM     27  C   UNL     1      -3.537   2.936  -1.801  0.00  0.00    -0.034 C 
ATOM     28  C   UNL     1      -2.852   3.984  -0.922  0.00  0.00    +0.010 C 
BRANCH  27  29
ATOM     29  C   UNL     1      -2.634   2.598  -2.989  0.00  0.00    -0.072 C 
BRANCH  29  30
ATOM     30  N   UNL     1      -2.383   3.814  -3.774  0.00  0.00    +0.376 N 
ATOM     31  C   UNL     1      -1.245   4.543  -3.198  0.00  0.00    -0.097 C 
ATOM     32  C   UNL     1      -2.076   3.446  -5.163  0.00  0.00    -0.097 C 
ATOM     33  H   UNL     1      -3.203   4.402  -3.755  0.00  0.00    -0.083 HD
ENDBRANCH  29  30
ENDBRANCH  27  29
ENDBRANCH  25  27
ENDBRANCH  21  25
ENDBRANCH   1  22
TORSDOF 6
