REMARK  Name = ZINC23714507
REMARK  13 active torsions:
REMARK  status: ('A' for Active; 'I' for Inactive)
REMARK    1  A    between atoms: C_1  and  C_2
REMARK    2  A    between atoms: C_2  and  C_3
REMARK    3  A    between atoms: C_3  and  N_4
REMARK    4  A    between atoms: C_10  and  N_16
REMARK    5  A    between atoms: C_11  and  C_12
REMARK    6  A    between atoms: N_14  and  C_15
REMARK    7  A    between atoms: C_17  and  C_19
REMARK    8  A    between atoms: C_22  and  S_25
REMARK    9  A    between atoms: S_25  and  N_28
REMARK   10  A    between atoms: N_28  and  C_29
REMARK   11  A    between atoms: N_28  and  C_32
REMARK   12  A    between atoms: C_29  and  C_30
REMARK   13  A    between atoms: C_32  and  C_33
REMARK                            x       y       z     vdW  Elec       q    Type
REMARK                         _______ _______ _______ _____ _____    ______ ____
ROOT
ATOM      1  N   UNL     1      -1.461  -7.845  -1.956  0.00  0.00    -0.275 N 
ATOM      2  C   UNL     1      -2.745  -8.121  -1.653  0.00  0.00    +0.249 C 
ATOM      3  O   UNL     1      -3.497  -7.226  -1.319  0.00  0.00    -0.270 OA
ATOM      4  H   UNL     1      -0.861  -8.559  -2.222  0.00  0.00    +0.156 HD
ENDROOT
BRANCH   1  11
ATOM      5  N   UNL     1       0.738  -1.966  -1.265  0.00  0.00    +0.383 N 
ATOM      6  C   UNL     1       1.532  -2.438  -2.407  0.00  0.00    -0.074 C 
ATOM      7  C   UNL     1       1.828  -3.935  -2.263  0.00  0.00    +0.018 C 
ATOM      8  C   UNL     1       0.507  -4.650  -2.013  0.00  0.00    -0.027 A 
ATOM      9  C   UNL     1      -0.580  -3.951  -1.616  0.00  0.00    -0.021 A 
ATOM     10  S   UNL     1      -1.856  -5.163  -1.454  0.00  0.00    -0.079 S 
ATOM     11  C   UNL     1      -0.999  -6.541  -1.888  0.00  0.00    +0.085 A 
ATOM     12  C   UNL     1       0.279  -6.074  -2.162  0.00  0.00    +0.068 A 
ATOM     13  C   UNL     1      -0.641  -2.475  -1.376  0.00  0.00    -0.035 C 
ATOM     14  H   UNL     1       1.152  -2.301  -0.408  0.00  0.00    -0.081 HD
BRANCH  12  15
ATOM     15  C   UNL     1       1.351  -6.981  -2.583  0.00  0.00    +0.246 C 
ATOM     16  O   UNL     1       2.067  -7.506  -1.751  0.00  0.00    -0.270 OA
ATOM     17  N   UNL     1       1.544  -7.232  -3.893  0.00  0.00    -0.314 N 
ATOM     18  C   UNL     1       2.615  -8.139  -4.315  0.00  0.00    +0.128 C 
ATOM     19  H   UNL     1       0.974  -6.814  -4.557  0.00  0.00    +0.149 HD
ENDBRANCH  12  15
BRANCH   5  20
ATOM     20  C   UNL     1       0.718  -0.497  -1.257  0.00  0.00    -0.079 C 
BRANCH  20  22
ATOM     21  C   UNL     1      -0.019   1.526   0.010  0.00  0.00    +0.002 C 
ATOM     22  C   UNL     1       0.002  -0.004   0.002  0.00  0.00    -0.022 C 
ENDBRANCH  20  22
ENDBRANCH   5  20
ENDBRANCH   1  11
BRANCH   2  23
ATOM     23  C   UNL     1      -3.239  -9.512  -1.726  0.00  0.00    +0.037 A 
ATOM     24  C   UNL     1      -2.376 -10.543  -2.103  0.00  0.00    +0.015 A 
ATOM     25  C   UNL     1      -2.843 -11.840  -2.168  0.00  0.00    +0.029 A 
ATOM     26  C   UNL     1      -4.163 -12.119  -1.862  0.00  0.00    +0.106 A 
ATOM     27  C   UNL     1      -5.023 -11.102  -1.488  0.00  0.00    +0.029 A 
ATOM     28  C   UNL     1      -4.568  -9.802  -1.412  0.00  0.00    +0.015 A 
BRANCH  26  29
ATOM     29  S   UNL     1      -4.751 -13.778  -1.949  0.00  0.00    +0.061 S 
ATOM     30  O   UNL     1      -6.157 -13.701  -2.143  0.00  0.00    -0.153 OA
ATOM     31  O   UNL     1      -3.895 -14.466  -2.849  0.00  0.00    -0.153 OA
BRANCH  29  32
ATOM     32  N   UNL     1      -4.516 -14.460  -0.458  0.00  0.00    -0.166 NA
BRANCH  32  33
ATOM     33  C   UNL     1      -5.565 -14.371   0.562  0.00  0.00    +0.156 C 
BRANCH  33  34
ATOM     34  C   UNL     1      -6.410 -15.618   0.523  0.00  0.00    +0.091 C 
ATOM     35  N   UNL     1      -6.572 -16.314   1.584  0.00  0.00    -0.310 NA
ATOM     36  H   UNL     1      -7.116 -17.117   1.559  0.00  0.00    +0.186 HD
ENDBRANCH  33  34
ENDBRANCH  32  33
BRANCH  32  37
ATOM     37  C   UNL     1      -3.260 -15.151  -0.158  0.00  0.00    +0.156 C 
BRANCH  37  38
ATOM     38  C   UNL     1      -2.313 -14.199   0.526  0.00  0.00    +0.091 C 
ATOM     39  N   UNL     1      -1.805 -14.506   1.659  0.00  0.00    -0.310 NA
ATOM     40  H   UNL     1      -2.029 -15.352   2.078  0.00  0.00    +0.186 HD
ENDBRANCH  37  38
ENDBRANCH  32  37
ENDBRANCH  29  32
ENDBRANCH  26  29
ENDBRANCH   2  23
TORSDOF 11
