REMARK  Name = ZINC16227655
REMARK  6 active torsions:
REMARK  status: ('A' for Active; 'I' for Inactive)
REMARK    1  A    between atoms: C_1  and  O_2
REMARK    2  A    between atoms: O_2  and  C_3
REMARK    3  A    between atoms: C_6  and  C_12
REMARK    4  A    between atoms: C_8  and  N_9
REMARK    5  A    between atoms: N_13  and  N_14
REMARK    6  A    between atoms: C_15  and  C_17
REMARK                            x       y       z     vdW  Elec       q    Type
REMARK                         _______ _______ _______ _____ _____    ______ ____
ROOT
ATOM      1  N   UNL     1      -7.305  -2.692   0.538  0.00  0.00    -0.221 N 
ATOM      2  C   UNL     1      -8.374  -2.037  -0.033  0.00  0.00    +0.139 C 
ATOM      3  N   UNL     1      -8.193  -0.893  -0.632  0.00  0.00    -0.384 N 
ATOM      4  H   UNL     1      -7.440  -3.543   0.983  0.00  0.00    +0.176 HD
ATOM      5  H   UNL     1      -8.930  -0.468  -1.099  0.00  0.00    +0.157 HD
ATOM      6  H   UNL     1      -7.322  -0.467  -0.611  0.00  0.00    +0.157 HD
ENDROOT
BRANCH   2   7
ATOM      7  C   UNL     1      -9.729  -2.631   0.033  0.00  0.00    +0.144 A 
ATOM      8  C   UNL     1     -10.137  -3.317   1.198  0.00  0.00    +0.167 A 
ATOM      9  N   UNL     1     -11.343  -3.852   1.270  0.00  0.00    -0.115 N 
ATOM     10  O   UNL     1     -11.747  -4.538   2.441  0.00  0.00    -0.162 OA
ATOM     11  C   UNL     1     -12.182  -3.742   0.232  0.00  0.00    +0.112 A 
ATOM     12  C   UNL     1     -13.470  -4.301   0.282  0.00  0.00    +0.031 A 
ATOM     13  C   UNL     1     -14.304  -4.175  -0.786  0.00  0.00    +0.002 A 
ATOM     14  C   UNL     1     -13.899  -3.498  -1.935  0.00  0.00    +0.002 A 
ATOM     15  C   UNL     1     -12.660  -2.943  -2.022  0.00  0.00    +0.030 A 
ATOM     16  C   UNL     1     -11.770  -3.052  -0.938  0.00  0.00    +0.092 A 
ATOM     17  N   UNL     1     -10.549  -2.512  -0.996  0.00  0.00    -0.239 NA
ATOM     18  N   UNL     1      -9.268  -3.431   2.273  0.00  0.00    -0.340 N 
ATOM     19  H   UNL     1      -8.444  -2.918   2.287  0.00  0.00    +0.144 HD
ATOM     20  H   UNL     1      -9.482  -4.024   3.010  0.00  0.00    +0.144 HD
ENDBRANCH   2   7
BRANCH   1  22
ATOM     21  C   UNL     1      -5.016  -2.747   1.013  0.00  0.00    +0.138 C 
ATOM     22  N   UNL     1      -6.024  -2.130   0.475  0.00  0.00    -0.189 NA
BRANCH  21  26
ATOM     23  C   UNL     1      -1.133  -1.042   0.823  0.00  0.00    +0.150 A 
ATOM     24  C   UNL     1      -2.209  -0.379   0.246  0.00  0.00    +0.048 A 
ATOM     25  C   UNL     1      -3.471  -0.929   0.305  0.00  0.00    +0.013 A 
ATOM     26  C   UNL     1      -3.668  -2.155   0.947  0.00  0.00    -0.003 A 
ATOM     27  C   UNL     1      -2.583  -2.818   1.525  0.00  0.00    +0.046 A 
ATOM     28  C   UNL     1      -1.323  -2.263   1.456  0.00  0.00    +0.168 A 
BRANCH  28  29
ATOM     29  N   UNL     1      -0.171  -2.967   2.063  0.00  0.00    +0.060 N 
ATOM     30  O   UNL     1      -0.335  -4.030   2.615  0.00  0.00    -0.126 OA
ATOM     31  O   UNL     1       0.934  -2.479   2.007  0.00  0.00    -0.126 OA
ENDBRANCH  28  29
BRANCH  23  33
ATOM     32  C   UNL     1       0.234   0.762   0.096  0.00  0.00    +0.277 C 
ATOM     33  O   UNL     1       0.109  -0.496   0.762  0.00  0.00    -0.493 OA
ENDBRANCH  23  33
ENDBRANCH  21  26
ENDBRANCH   1  22
TORSDOF 5
