REMARK  Name = ZINC09291791
REMARK  8 active torsions:
REMARK  status: ('A' for Active; 'I' for Inactive)
REMARK    1  A    between atoms: C_1  and  C_2
REMARK    2  A    between atoms: C_5  and  C_8
REMARK    3  A    between atoms: C_14  and  C_19
REMARK    4  A    between atoms: C_23  and  S_36
REMARK    5  A    between atoms: C_26  and  C_28
REMARK    6  A    between atoms: C_31  and  O_34
REMARK    7  A    between atoms: O_34  and  C_35
REMARK    8  A    between atoms: S_36  and  C_37
REMARK                            x       y       z     vdW  Elec       q    Type
REMARK                         _______ _______ _______ _____ _____    ______ ____
ROOT
ATOM      1  C   UNL     1       0.059  -4.275  -0.021  0.00  0.00    +0.234 C 
ATOM      2  C   UNL     1      -1.345  -4.790   0.097  0.00  0.00    +0.025 C 
ATOM      3  C   UNL     1      -1.890  -5.029   1.308  0.00  0.00    +0.058 C 
ATOM      4  C   UNL     1      -1.044  -4.773   2.501  0.00  0.00    +0.040 A 
ATOM      5  C   UNL     1      -1.593  -4.671   3.772  0.00  0.00    +0.017 A 
ATOM      6  C   UNL     1      -0.768  -4.430   4.854  0.00  0.00    -0.050 A 
ATOM      7  C   UNL     1       0.597  -4.292   4.673  0.00  0.00    +0.007 A 
ATOM      8  C   UNL     1       1.151  -4.392   3.411  0.00  0.00    +0.046 A 
ATOM      9  C   UNL     1       0.338  -4.634   2.318  0.00  0.00    +0.131 A 
ATOM     10  O   UNL     1       0.853  -4.744   1.071  0.00  0.00    -0.479 OA
ATOM     11  C   UNL     1      -1.358  -4.318   6.237  0.00  0.00    +0.044 C 
ATOM     12  N   UNL     1      -3.159  -5.487   1.437  0.00  0.00    -0.326 N 
ATOM     13  C   UNL     1      -3.961  -5.745   0.425  0.00  0.00    +0.216 C 
ATOM     14  N   UNL     1      -5.226  -6.200   0.382  0.00  0.00    -0.192 NA
ATOM     15  C   UNL     1      -5.630  -6.310  -0.868  0.00  0.00    +0.174 C 
ATOM     16  N   UNL     1      -4.616  -5.921  -1.702  0.00  0.00    -0.239 N 
ATOM     17  N   UNL     1      -3.548  -5.558  -0.879  0.00  0.00    -0.209 N 
ATOM     18  C   UNL     1      -2.190  -5.057  -1.129  0.00  0.00    +0.159 C 
ATOM     19  H   UNL     1      -3.498  -5.634   2.333  0.00  0.00    +0.169 HD
ATOM     20  H   UNL     1      -4.636  -5.902  -2.672  0.00  0.00    +0.172 HD
ENDROOT
BRANCH   1  25
ATOM     21  C   UNL     1      -0.018   1.503   0.010  0.00  0.00    +0.044 C 
ATOM     22  C   UNL     1       0.002  -0.004   0.002  0.00  0.00    -0.050 A 
ATOM     23  C   UNL     1       0.006  -0.689  -1.199  0.00  0.00    +0.004 A 
ATOM     24  C   UNL     1       0.025  -2.071  -1.206  0.00  0.00    +0.008 A 
ATOM     25  C   UNL     1       0.040  -2.768  -0.013  0.00  0.00    -0.003 A 
ATOM     26  C   UNL     1       0.037  -2.084   1.188  0.00  0.00    +0.008 A 
ATOM     27  C   UNL     1       0.023  -0.702   1.195  0.00  0.00    +0.004 A 
ENDBRANCH   1  25
BRANCH  18  28
ATOM     28  C   UNL     1      -1.468  -6.065  -1.986  0.00  0.00    -0.021 A 
ATOM     29  C   UNL     1      -1.536  -7.410  -1.675  0.00  0.00    +0.009 A 
ATOM     30  C   UNL     1      -0.875  -8.336  -2.460  0.00  0.00    +0.046 A 
ATOM     31  C   UNL     1      -0.143  -7.914  -3.561  0.00  0.00    +0.120 A 
ATOM     32  C   UNL     1      -0.078  -6.563  -3.871  0.00  0.00    +0.046 A 
ATOM     33  C   UNL     1      -0.745  -5.642  -3.087  0.00  0.00    +0.009 A 
BRANCH  31  34
ATOM     34  O   UNL     1       0.508  -8.822  -4.334  0.00  0.00    -0.495 OA
ATOM     35  C   UNL     1       1.241  -8.316  -5.451  0.00  0.00    +0.277 C 
ENDBRANCH  31  34
ENDBRANCH  18  28
BRANCH  15  36
ATOM     36  S   UNL     1      -7.220  -6.868  -1.382  0.00  0.00    -0.092 S 
ATOM     37  C   UNL     1      -8.085  -7.223   0.172  0.00  0.00    +0.093 C 
ENDBRANCH  15  36
TORSDOF 4
