REMARK  Name = ZINC40687062
REMARK  5 active torsions:
REMARK  status: ('A' for Active; 'I' for Inactive)
REMARK    1  A    between atoms: C_1  and  C_2
REMARK    2  A    between atoms: C_13  and  N_26
REMARK    3  A    between atoms: C_14  and  N_18
REMARK    4  A    between atoms: N_18  and  C_19
REMARK    5  A    between atoms: C_19  and  C_20
REMARK                            x       y       z     vdW  Elec       q    Type
REMARK                         _______ _______ _______ _____ _____    ______ ____
ROOT
ATOM      1  C   UNL     1      -0.018   1.503   0.010  0.00  0.00    +0.044 C 
ATOM      2  C   UNL     1       0.002  -0.004   0.002  0.00  0.00    -0.049 A 
ATOM      3  C   UNL     1       0.006  -0.698  -1.199  0.00  0.00    +0.005 A 
ATOM      4  C   UNL     1       0.025  -2.068  -1.234  0.00  0.00    +0.029 A 
ATOM      5  C   UNL     1       0.041  -2.822  -0.038  0.00  0.00    +0.080 A 
ATOM      6  C   UNL     1       0.036  -2.081   1.166  0.00  0.00    +0.041 A 
ATOM      7  C   UNL     1       0.023  -0.709   1.192  0.00  0.00    +0.020 A 
ATOM      8  S   UNL     1       0.060  -3.361   2.398  0.00  0.00    -0.052 S 
ATOM      9  C   UNL     1       0.074  -4.752   1.276  0.00  0.00    +0.165 A 
ATOM     10  N   UNL     1       0.060  -4.165   0.101  0.00  0.00    -0.225 NA
ATOM     11  N   UNL     1       0.094  -6.102   1.570  0.00  0.00    -0.277 N 
ATOM     12  C   UNL     1       0.102  -7.039   0.541  0.00  0.00    +0.150 A 
ATOM     13  C   UNL     1       0.117  -8.405   0.825  0.00  0.00    +0.106 A 
ATOM     14  C   UNL     1       0.124  -9.302  -0.245  0.00  0.00    +0.145 A 
ATOM     15  N   UNL     1       0.116  -8.823  -1.487  0.00  0.00    -0.219 NA
ATOM     16  C   UNL     1       0.103  -7.524  -1.712  0.00  0.00    +0.225 A 
ATOM     17  N   UNL     1       0.090  -6.645  -0.731  0.00  0.00    -0.219 NA
ATOM     18  H   UNL     1       0.103  -6.398   2.494  0.00  0.00    +0.156 HD
ENDROOT
BRANCH  13  19
ATOM     19  N   UNL     1       0.124  -8.865   2.151  0.00  0.00    -0.353 N 
ATOM     20  H   UNL     1       0.120  -8.231   2.885  0.00  0.00    +0.143 HD
ATOM     21  H   UNL     1       0.134  -9.818   2.334  0.00  0.00    +0.143 HD
ENDBRANCH  13  19
BRANCH  14  22
ATOM     22  N   UNL     1       0.139 -10.672  -0.018  0.00  0.00    -0.325 N 
ATOM     23  H   UNL     1       0.144 -11.013   0.890  0.00  0.00    +0.148 HD
BRANCH  22  24
ATOM     24  C   UNL     1       0.146 -11.603  -1.149  0.00  0.00    +0.134 C 
BRANCH  24  25
ATOM     25  C   UNL     1       0.162 -13.041  -0.627  0.00  0.00    +0.135 C 
ATOM     26  C   UNL     1       0.205 -14.042  -1.809  0.00  0.00    +0.035 C 
ATOM     27  C   UNL     1       0.850 -15.278  -1.125  0.00  0.00    +0.031 C 
ATOM     28  C   UNL     1       1.820 -14.625  -0.117  0.00  0.00    +0.160 C 
ATOM     29  O   UNL     1       1.365 -13.287   0.119  0.00  0.00    -0.375 OA
ENDBRANCH  24  25
ENDBRANCH  22  24
ENDBRANCH  14  22
TORSDOF 4
