REMARK  Name = ZINC10584526
REMARK  8 active torsions:
REMARK  status: ('A' for Active; 'I' for Inactive)
REMARK    1  A    between atoms: C_1  and  C_2
REMARK    2  A    between atoms: C_2  and  O_3
REMARK    3  A    between atoms: O_3  and  C_4
REMARK    4  A    between atoms: C_7  and  N_10
REMARK    5  A    between atoms: C_12  and  N_17
REMARK    6  A    between atoms: C_25  and  C_26
REMARK    7  A    between atoms: C_25  and  C_32
REMARK    8  A    between atoms: C_25  and  N_71
REMARK                            x       y       z     vdW  Elec       q    Type
REMARK                         _______ _______ _______ _____ _____    ______ ____
ROOT
ATOM      1  N   UNL     1      -1.569  -0.059  -1.729  0.00  0.00    -0.294 N 
ATOM      2  C   UNL     1      -0.739  -0.704  -0.886  0.00  0.00    +0.302 C 
ATOM      3  O   UNL     1      -0.637  -1.914  -0.940  0.00  0.00    -0.253 OA
ATOM      4  N   UNL     1      -0.022  -0.007   0.018  0.00  0.00    -0.289 N 
ATOM      5  C   UNL     1      -0.040   1.463   0.025  0.00  0.00    +0.091 C 
ATOM      6  C   UNL     1       1.407   1.968   0.027  0.00  0.00    -0.058 C 
ATOM      7  C   UNL     1       2.213  -0.108   0.987  0.00  0.00    -0.058 C 
ATOM      8  C   UNL     1       0.799  -0.698   1.024  0.00  0.00    +0.091 C 
ATOM      9  H   UNL     1      -1.597   0.911  -1.734  0.00  0.00    +0.151 HD
ATOM     10  N   UNL     1       2.122   1.357   1.169  0.00  0.00    +0.389 N 
ATOM     11  H   UNL     1       1.600   1.553   2.031  0.00  0.00    -0.080 HD
ENDROOT
BRANCH   1  14
ATOM     12  N   UNL     1      -3.124   0.628  -4.416  0.00  0.00    -0.270 N 
ATOM     13  C   UNL     1      -3.597   0.048  -3.154  0.00  0.00    +0.136 C 
ATOM     14  C   UNL     1      -2.429  -0.822  -2.637  0.00  0.00    +0.101 C 
ATOM     15  C   UNL     1      -1.685  -1.162  -3.949  0.00  0.00    +0.120 C 
ATOM     16  C   UNL     1      -2.054  -0.035  -4.888  0.00  0.00    +0.222 C 
ATOM     17  O   UNL     1      -1.471   0.231  -5.918  0.00  0.00    -0.275 OA
BRANCH  12  21
ATOM     18  C   UNL     1      -4.872   3.915  -6.295  0.00  0.00    +0.121 A 
ATOM     19  C   UNL     1      -5.323   3.509  -5.047  0.00  0.00    +0.047 A 
ATOM     20  C   UNL     1      -4.744   2.421  -4.425  0.00  0.00    +0.027 A 
ATOM     21  C   UNL     1      -3.712   1.733  -5.047  0.00  0.00    +0.037 A 
ATOM     22  C   UNL     1      -3.257   2.143  -6.294  0.00  0.00    +0.027 A 
ATOM     23  C   UNL     1      -3.840   3.228  -6.918  0.00  0.00    +0.047 A 
BRANCH  18  24
ATOM     24  O   UNL     1      -5.441   4.987  -6.907  0.00  0.00    -0.492 OA
BRANCH  24  26
ATOM     25  C   UNL     1      -5.686   6.570  -8.717  0.00  0.00    +0.048 C 
ATOM     26  C   UNL     1      -4.927   5.350  -8.190  0.00  0.00    +0.225 C 
ENDBRANCH  24  26
ENDBRANCH  18  24
ENDBRANCH  12  21
ENDBRANCH   1  14
BRANCH  10  27
ATOM     27  C   UNL     1       3.476   1.936   1.284  0.00  0.00    -0.007 C 
BRANCH  27  28
ATOM     28  C   UNL     1       3.357   3.430   1.442  0.00  0.00    -0.057 A 
ATOM     29  C   UNL     1       2.342   3.965   2.213  0.00  0.00    +0.002 A 
ATOM     30  C   UNL     1       2.236   5.335   2.361  0.00  0.00    +0.000 A 
ATOM     31  C   UNL     1       3.139   6.171   1.730  0.00  0.00    +0.000 A 
ATOM     32  C   UNL     1       4.150   5.636   0.954  0.00  0.00    +0.000 A 
ATOM     33  C   UNL     1       4.259   4.265   0.810  0.00  0.00    +0.002 A 
ENDBRANCH  27  28
BRANCH  27  34
ATOM     34  C   UNL     1       4.152   1.355   2.499  0.00  0.00    -0.057 A 
ATOM     35  C   UNL     1       3.429   1.146   3.659  0.00  0.00    +0.002 A 
ATOM     36  C   UNL     1       4.049   0.609   4.772  0.00  0.00    +0.000 A 
ATOM     37  C   UNL     1       5.393   0.290   4.728  0.00  0.00    +0.000 A 
ATOM     38  C   UNL     1       6.117   0.504   3.570  0.00  0.00    +0.000 A 
ATOM     39  C   UNL     1       5.497   1.036   2.456  0.00  0.00    +0.002 A 
ENDBRANCH  27  34
ENDBRANCH  10  27
TORSDOF 7
