REMARK  Name = ZINC40721990
REMARK  12 active torsions:
REMARK  status: ('A' for Active; 'I' for Inactive)
REMARK    1  A    between atoms: C_1  and  C_2
REMARK    2  A    between atoms: C_6  and  C_37
REMARK    3  A    between atoms: C_9  and  N_12
REMARK    4  A    between atoms: N_12  and  C_13
REMARK    5  A    between atoms: C_13  and  C_14
REMARK    6  A    between atoms: C_17  and  O_20
REMARK    7  A    between atoms: O_20  and  C_21
REMARK    8  A    between atoms: C_21  and  C_22
REMARK    9  A    between atoms: C_22  and  C_24
REMARK   10  A    between atoms: C_22  and  O_36
REMARK   11  A    between atoms: N_30  and  C_35
REMARK   12  A    between atoms: N_33  and  C_34
REMARK                            x       y       z     vdW  Elec       q    Type
REMARK                         _______ _______ _______ _____ _____    ______ ____
ROOT
ATOM      1  C   UNL     1      -4.915  -2.607  -1.165  0.00  0.00    -0.064 A 
ATOM      2  C   UNL     1      -5.208  -3.819  -1.762  0.00  0.00    +0.005 A 
ATOM      3  C   UNL     1      -6.503  -4.299  -1.754  0.00  0.00    +0.046 A 
ATOM      4  C   UNL     1      -7.510  -3.564  -1.145  0.00  0.00    +0.121 A 
ATOM      5  C   UNL     1      -7.214  -2.349  -0.546  0.00  0.00    +0.046 A 
ATOM      6  C   UNL     1      -5.916  -1.876  -0.552  0.00  0.00    +0.005 A 
ENDROOT
BRANCH   1   7
ATOM      7  C   UNL     1      -3.501  -2.085  -1.175  0.00  0.00    -0.046 C 
BRANCH   7   8
ATOM      8  N   UNL     1      -2.791  -2.572   0.015  0.00  0.00    +0.385 N 
ATOM      9  H   UNL     1      -2.777  -3.581   0.009  0.00  0.00    -0.085 HD
ATOM     10  H   UNL     1      -3.263  -2.247   0.845  0.00  0.00    -0.085 HD
BRANCH   8  19
ATOM     11  C   UNL     1      -0.019   1.526   0.010  0.00  0.00    +0.011 C 
ATOM     12  C   UNL     1       0.002  -0.004   0.002  0.00  0.00    -0.033 C 
ATOM     13  C   UNL     1       0.718  -0.497  -1.257  0.00  0.00    +0.010 C 
ATOM     14  C   UNL     1       0.739  -2.027  -1.265  0.00  0.00    -0.011 C 
ATOM     15  C   UNL     1       1.479  -2.534  -0.026  0.00  0.00    +0.010 C 
ATOM     16  C   UNL     1       0.763  -2.041   1.233  0.00  0.00    -0.033 C 
ATOM     17  C   UNL     1       0.742  -0.511   1.242  0.00  0.00    +0.013 C 
ATOM     18  C   UNL     1      -0.673  -2.570   1.244  0.00  0.00    -0.006 C 
ATOM     19  C   UNL     1      -1.413  -2.063   0.004  0.00  0.00    -0.067 C 
ATOM     20  C   UNL     1      -0.696  -2.557  -1.254  0.00  0.00    -0.009 C 
ATOM     21  C   UNL     1      -1.433  -0.534   0.013  0.00  0.00    -0.006 C 
ATOM     22  C   UNL     1       1.503  -2.548   2.473  0.00  0.00    +0.011 C 
ENDBRANCH   8  19
ENDBRANCH   7   8
ENDBRANCH   1   7
BRANCH   4  23
ATOM     23  O   UNL     1      -8.786  -4.034  -1.136  0.00  0.00    -0.489 OA
BRANCH  23  24
ATOM     24  C   UNL     1      -9.771  -3.225  -0.491  0.00  0.00    +0.265 C 
BRANCH  24  25
ATOM     25  C   UNL     1     -11.135  -3.912  -0.582  0.00  0.00    +0.182 C 
BRANCH  25  26
ATOM     26  C   UNL     1     -12.149  -3.121   0.203  0.00  0.00    -0.014 A 
ATOM     27  C   UNL     1     -12.800  -2.054  -0.392  0.00  0.00    +0.008 A 
ATOM     28  C   UNL     1     -13.732  -1.323   0.319  0.00  0.00    +0.028 A 
ATOM     29  C   UNL     1     -14.016  -1.659   1.634  0.00  0.00    +0.070 A 
ATOM     30  C   UNL     1     -13.359  -2.736   2.233  0.00  0.00    +0.070 A 
ATOM     31  C   UNL     1     -12.430  -3.467   1.510  0.00  0.00    +0.034 A 
ATOM     32  N   UNL     1     -13.845  -2.829   3.535  0.00  0.00    -0.295 N 
ATOM     33  C   UNL     1     -14.756  -1.855   3.719  0.00  0.00    +0.330 A 
ATOM     34  O   UNL     1     -15.372  -1.657   4.750  0.00  0.00    -0.246 OA
ATOM     35  N   UNL     1     -14.881  -1.132   2.590  0.00  0.00    -0.295 N 
ATOM     36  C   UNL     1     -15.774   0.013   2.400  0.00  0.00    +0.154 C 
ATOM     37  C   UNL     1     -13.436  -3.820   4.534  0.00  0.00    +0.154 C 
ENDBRANCH  25  26
BRANCH  25  38
ATOM     38  O   UNL     1     -11.541  -3.984  -1.950  0.00  0.00    -0.384 OA
ATOM     39  H   UNL     1     -11.627  -3.123  -2.381  0.00  0.00    +0.210 HD
ENDBRANCH  25  38
ENDBRANCH  24  25
ENDBRANCH  23  24
ENDBRANCH   4  23
TORSDOF 8
