REMARK  Name = ZINC39742602
REMARK  11 active torsions:
REMARK  status: ('A' for Active; 'I' for Inactive)
REMARK    1  A    between atoms: C_4  and  N_7
REMARK    2  A    between atoms: C_8  and  CA_24
REMARK    3  A    between atoms: C_11  and  S_12
REMARK    4  A    between atoms: S_12  and  C_13
REMARK    5  A    between atoms: C_13  and  C_14
REMARK    6  A    between atoms: N_16  and  C_17
REMARK    7  A    between atoms: C_22  and  O_23
REMARK    8  A    between atoms: CA_24  and  C_26
REMARK    9  A    between atoms: CA_24  and  N_28
REMARK   10  A    between atoms: C_26  and  O_27
REMARK   11  A    between atoms: C_29  and  C_31
REMARK                            x       y       z     vdW  Elec       q    Type
REMARK                         _______ _______ _______ _____ _____    ______ ____
ROOT
ATOM      1  N   UNL     1       3.600  -0.691  -0.014  0.00  0.00    -0.273 N 
ATOM      2  C   UNL     1       4.086  -1.494  -1.011  0.00  0.00    +0.161 A 
ATOM      3  N   UNL     1       5.252  -1.929  -0.624  0.00  0.00    -0.131 NA
ATOM      4  N   UNL     1       5.536  -1.461   0.539  0.00  0.00    -0.122 NA
ATOM      5  C   UNL     1       4.560  -0.689   0.960  0.00  0.00    +0.197 A 
ENDROOT
BRANCH   1   9
ATOM      6  C   UNL     1      -0.041   1.341   0.034  0.00  0.00    +0.000 A 
ATOM      7  C   UNL     1       1.146   2.051   0.016  0.00  0.00    +0.002 A 
ATOM      8  C   UNL     1       2.353   1.381   0.001  0.00  0.00    +0.026 A 
ATOM      9  C   UNL     1       2.375  -0.007   0.003  0.00  0.00    +0.050 A 
ATOM     10  C   UNL     1       1.183  -0.718   0.021  0.00  0.00    +0.026 A 
ATOM     11  C   UNL     1      -0.022  -0.042   0.036  0.00  0.00    +0.002 A 
ENDBRANCH   1   9
BRANCH   5  12
ATOM     12  S   UNL     1       4.499   0.180   2.492  0.00  0.00    -0.076 S 
BRANCH  12  13
ATOM     13  C   UNL     1       6.067  -0.244   3.300  0.00  0.00    +0.173 C 
BRANCH  13  14
ATOM     14  C   UNL     1       6.143   0.444   4.639  0.00  0.00    +0.228 C 
ATOM     15  O   UNL     1       5.230   1.150   5.011  0.00  0.00    -0.275 OA
ATOM     16  N   UNL     1       7.227   0.274   5.423  0.00  0.00    -0.282 N 
ATOM     17  H   UNL     1       7.927  -0.341   5.155  0.00  0.00    +0.155 HD
BRANCH  16  18
ATOM     18  C   UNL     1       7.341   0.985   6.624  0.00  0.00    +0.075 A 
ATOM     19  C   UNL     1       6.209   1.266   7.376  0.00  0.00    +0.027 A 
ATOM     20  C   UNL     1       6.324   1.968   8.561  0.00  0.00    +0.002 A 
ATOM     21  C   UNL     1       7.565   2.392   9.000  0.00  0.00    +0.004 A 
ATOM     22  C   UNL     1       8.697   2.116   8.256  0.00  0.00    +0.047 A 
ATOM     23  C   UNL     1       8.591   1.408   7.070  0.00  0.00    +0.138 A 
BRANCH  23  24
ATOM     24  O   UNL     1       9.704   1.131   6.340  0.00  0.00    -0.505 OA
ATOM     25  H   UNL     1       9.926   1.810   5.688  0.00  0.00    +0.292 HD
ENDBRANCH  23  24
ENDBRANCH  16  18
ENDBRANCH  13  14
ENDBRANCH  12  13
ENDBRANCH   5  12
BRANCH   2  26
ATOM     26  CA  UNL     1       3.400  -1.817  -2.313  0.00  0.00    +0.167 C 
BRANCH  26  27
ATOM     27  N   UNL     1       4.361  -1.705  -3.413  0.00  0.00    -0.299 N 
ATOM     28  C   UNL     1       3.928  -1.446  -4.662  0.00  0.00    +0.247 C 
ATOM     29  O   UNL     1       2.740  -1.306  -4.877  0.00  0.00    -0.270 OA
ATOM     30  H   UNL     1       5.309  -1.817  -3.241  0.00  0.00    +0.150 HD
BRANCH  28  31
ATOM     31  C   UNL     1       4.897  -1.333  -5.771  0.00  0.00    +0.072 A 
ATOM     32  C   UNL     1       6.263  -1.500  -5.529  0.00  0.00    +0.016 A 
ATOM     33  C   UNL     1       7.162  -1.393  -6.569  0.00  0.00    +0.001 A 
ATOM     34  C   UNL     1       6.716  -1.122  -7.851  0.00  0.00    +0.003 A 
ATOM     35  C   UNL     1       5.367  -0.955  -8.101  0.00  0.00    +0.039 A 
ATOM     36  C   UNL     1       4.452  -1.065  -7.069  0.00  0.00    +0.135 A 
ATOM     37  F   UNL     1       3.133  -0.907  -7.314  0.00  0.00    -0.205 F 
ENDBRANCH  28  31
ENDBRANCH  26  27
BRANCH  26  38
ATOM     38  C   UNL     1       2.849  -3.243  -2.260  0.00  0.00    +0.186 C 
BRANCH  38  39
ATOM     39  O   UNL     1       3.905  -4.149  -1.933  0.00  0.00    -0.393 OA
ATOM     40  H   UNL     1       3.627  -5.074  -1.882  0.00  0.00    +0.209 HD
ENDBRANCH  38  39
ENDBRANCH  26  38
ENDBRANCH   2  26
TORSDOF 11
