REMARK  Name = ZINC15707595
REMARK  5 active torsions:
REMARK  status: ('A' for Active; 'I' for Inactive)
REMARK    1  A    between atoms: C_4  and  N_7
REMARK    2  A    between atoms: N_10  and  C_11
REMARK    3  A    between atoms: C_20  and  C_23
REMARK    4  A    between atoms: C_23  and  C_24
REMARK    5  A    between atoms: C_24  and  C_25
REMARK                            x       y       z     vdW  Elec       q    Type
REMARK                         _______ _______ _______ _____ _____    ______ ____
ROOT
ATOM      1  C   UNL     1       4.200  -1.179  -3.196  0.00  0.00    +0.057 C 
ATOM      2  C   UNL     1       5.393  -2.118  -2.871  0.00  0.00    +0.014 C 
ATOM      3  C   UNL     1       5.813  -1.705  -1.460  0.00  0.00    +0.021 C 
ATOM      4  C   UNL     1       7.273  -1.796  -1.165  0.00  0.00    +0.200 C 
ATOM      5  O   UNL     1       7.952  -2.658  -1.682  0.00  0.00    -0.278 OA
ATOM      6  N   UNL     1       7.827  -0.908  -0.317  0.00  0.00    -0.318 N 
ATOM      7  C   UNL     1       7.129   0.235   0.257  0.00  0.00    +0.089 C 
ATOM      8  C   UNL     1       5.618   0.185  -0.013  0.00  0.00    -0.050 C 
ATOM      9  C   UNL     1       4.085  -0.239  -1.963  0.00  0.00    -0.055 C 
ATOM     10  H   UNL     1       8.756  -1.039  -0.070  0.00  0.00    +0.149 HD
ATOM     11  N   UNL     1       5.468  -0.318  -1.419  0.00  0.00    +0.391 N 
ATOM     12  H   UNL     1       6.098   0.223  -2.024  0.00  0.00    -0.080 HD
ENDROOT
BRANCH   1  16
ATOM     13  N   UNL     1       3.715   0.789  -6.264  0.00  0.00    -0.269 N 
ATOM     14  C   UNL     1       3.460   0.075  -5.150  0.00  0.00    +0.304 C 
ATOM     15  O   UNL     1       2.311  -0.139  -4.815  0.00  0.00    -0.253 OA
ATOM     16  N   UNL     1       4.478  -0.402  -4.407  0.00  0.00    -0.298 N 
ATOM     17  H   UNL     1       4.629   0.898  -6.571  0.00  0.00    +0.156 HD
ATOM     18  H   UNL     1       5.395  -0.232  -4.674  0.00  0.00    +0.150 HD
BRANCH  13  22
ATOM     19  C   UNL     1       0.581   2.526  -8.390  0.00  0.00    +0.000 A 
ATOM     20  C   UNL     1       0.498   2.404  -7.015  0.00  0.00    +0.002 A 
ATOM     21  C   UNL     1       1.535   1.828  -6.307  0.00  0.00    +0.023 A 
ATOM     22  C   UNL     1       2.662   1.372  -6.978  0.00  0.00    +0.035 A 
ATOM     23  C   UNL     1       2.745   1.501  -8.358  0.00  0.00    +0.023 A 
ATOM     24  C   UNL     1       1.702   2.072  -9.061  0.00  0.00    +0.002 A 
ENDBRANCH  13  22
ENDBRANCH   1  16
BRANCH   8  25
ATOM     25  C   UNL     1       5.012   1.579   0.160  0.00  0.00    -0.005 C 
BRANCH  25  26
ATOM     26  C   UNL     1       5.140   2.014   1.621  0.00  0.00    +0.095 C 
BRANCH  26  27
ATOM     27  C   UNL     1       4.639   3.428   1.770  0.00  0.00    +0.220 C 
ATOM     28  O   UNL     1       4.221   4.028   0.803  0.00  0.00    -0.275 OA
ATOM     29  N   UNL     1       4.655   4.024   2.978  0.00  0.00    -0.271 N 
ATOM     30  C   UNL     1       4.196   5.389   3.248  0.00  0.00    +0.118 C 
ATOM     31  C   UNL     1       4.418   5.600   4.754  0.00  0.00    +0.056 C 
ATOM     32  C   UNL     1       5.005   4.294   5.239  0.00  0.00    -0.024 A 
ATOM     33  C   UNL     1       5.113   3.431   4.159  0.00  0.00    +0.039 A 
ATOM     34  C   UNL     1       5.634   2.152   4.363  0.00  0.00    +0.024 A 
ATOM     35  C   UNL     1       6.034   1.757   5.622  0.00  0.00    +0.002 A 
ATOM     36  C   UNL     1       5.917   2.623   6.693  0.00  0.00    +0.000 A 
ATOM     37  C   UNL     1       5.407   3.893   6.498  0.00  0.00    +0.005 A 
ENDBRANCH  26  27
ENDBRANCH  25  26
ENDBRANCH   8  25
TORSDOF 5
