REMARK  Name = ZINC09214623
REMARK  16 active torsions:
REMARK  status: ('A' for Active; 'I' for Inactive)
REMARK    1  A    between atoms: C_1  and  C_2
REMARK    2  A    between atoms: C_13  and  C_22
REMARK    3  A    between atoms: C_15  and  O_21
REMARK    4  A    between atoms: C_17  and  O_20
REMARK    5  A    between atoms: C_23  and  O_40
REMARK    6  A    between atoms: C_26  and  C_28
REMARK    7  A    between atoms: C_28  and  C_29
REMARK    8  A    between atoms: C_28  and  C_30
REMARK    9  A    between atoms: C_28  and  O_39
REMARK   10  A    between atoms: C_30  and  C_32
REMARK   11  A    between atoms: C_30  and  O_38
REMARK   12  A    between atoms: C_32  and  C_33
REMARK   13  A    between atoms: C_33  and  C_34
REMARK   14  A    between atoms: C_34  and  C_35
REMARK   15  A    between atoms: C_34  and  C_36
REMARK   16  A    between atoms: C_34  and  O_37
REMARK                            x       y       z     vdW  Elec       q    Type
REMARK                         _______ _______ _______ _____ _____    ______ ____
ROOT
ATOM      1  C   UNL     1      -0.607   1.340  -0.331  0.00  0.00    +0.015 C 
ATOM      2  C   UNL     1      -0.299  -0.148  -0.147  0.00  0.00    +0.006 C 
ATOM      3  C   UNL     1       1.067  -0.442  -0.717  0.00  0.00    +0.011 C 
ATOM      4  C   UNL     1       2.055   0.580  -0.123  0.00  0.00    +0.009 C 
ATOM      5  C   UNL     1       2.066   0.512   1.400  0.00  0.00    +0.025 C 
ATOM      6  C   UNL     1       0.671   0.538   1.965  0.00  0.00    -0.031 C 
ATOM      7  C   UNL     1       0.258   1.398   2.886  0.00  0.00    +0.049 C 
ATOM      8  C   UNL     1       1.189   2.429   3.374  0.00  0.00    +0.160 C 
ATOM      9  O   UNL     1       1.061   2.949   4.463  0.00  0.00    -0.292 OA
ATOM     10  C   UNL     1       2.316   2.800   2.432  0.00  0.00    +0.069 C 
ATOM     11  C   UNL     1       3.001   1.521   2.013  0.00  0.00    -0.013 C 
ATOM     12  C   UNL     1       4.147   1.866   1.062  0.00  0.00    +0.041 C 
ATOM     13  C   UNL     1       5.136   2.791   1.777  0.00  0.00    +0.144 C 
ATOM     14  C   UNL     1       4.421   4.071   2.213  0.00  0.00    +0.144 C 
ATOM     15  C   UNL     1       3.300   3.725   3.149  0.00  0.00    +0.046 C 
ATOM     16  C   UNL     1       3.620   0.894   3.264  0.00  0.00    +0.012 C 
ATOM     17  C   UNL     1      -0.273  -0.473   1.374  0.00  0.00    +0.093 C 
ATOM     18  C   UNL     1      -1.755  -0.336   1.731  0.00  0.00    +0.040 C 
ATOM     19  C   UNL     1      -2.462  -1.037   0.537  0.00  0.00    +0.010 C 
ATOM     20  C   UNL     1      -1.476  -0.964  -0.658  0.00  0.00    +0.032 C 
ENDROOT
BRANCH  14  21
ATOM     21  O   UNL     1       5.346   4.926   2.888  0.00  0.00    -0.389 OA
ATOM     22  H   UNL     1       6.103   5.191   2.348  0.00  0.00    +0.210 HD
ENDBRANCH  14  21
BRANCH  13  23
ATOM     23  O   UNL     1       5.661   2.125   2.928  0.00  0.00    -0.389 OA
ATOM     24  H   UNL     1       6.296   2.653   3.432  0.00  0.00    +0.210 HD
ENDBRANCH  13  23
BRANCH  20  25
ATOM     25  C   UNL     1      -1.016  -2.368  -1.056  0.00  0.00    +0.092 C 
ATOM     26  C   UNL     1      -2.237  -3.230  -1.385  0.00  0.00    +0.044 C 
BRANCH  25  27
ATOM     27  O   UNL     1      -0.295  -2.957   0.028  0.00  0.00    -0.386 OA
ATOM     28  H   UNL     1       0.598  -2.603   0.145  0.00  0.00    +0.210 HD
ENDBRANCH  25  27
BRANCH  25  29
ATOM     29  C   UNL     1      -0.109  -2.279  -2.284  0.00  0.00    +0.146 C 
BRANCH  29  30
ATOM     30  O   UNL     1      -0.771  -1.540  -3.313  0.00  0.00    -0.389 OA
ATOM     31  H   UNL     1      -1.558  -1.976  -3.666  0.00  0.00    +0.210 HD
ENDBRANCH  29  30
BRANCH  29  32
ATOM     32  C   UNL     1       0.205  -3.688  -2.790  0.00  0.00    +0.037 C 
BRANCH  32  33
ATOM     33  C   UNL     1       1.210  -3.605  -3.940  0.00  0.00    +0.037 C 
BRANCH  33  34
ATOM     34  C   UNL     1       1.524  -5.015  -4.446  0.00  0.00    +0.061 C 
ATOM     35  C   UNL     1       2.621  -4.942  -5.510  0.00  0.00    +0.041 C 
ATOM     36  C   UNL     1       2.002  -5.881  -3.279  0.00  0.00    +0.041 C 
BRANCH  34  37
ATOM     37  O   UNL     1       0.346  -5.590  -5.014  0.00  0.00    -0.389 OA
ATOM     38  H   UNL     1      -0.014  -5.092  -5.761  0.00  0.00    +0.210 HD
ENDBRANCH  34  37
ENDBRANCH  33  34
ENDBRANCH  32  33
ENDBRANCH  29  32
ENDBRANCH  25  29
ENDBRANCH  20  25
BRANCH  17  39
ATOM     39  O   UNL     1       0.206  -1.798   1.614  0.00  0.00    -0.384 OA
ATOM     40  H   UNL     1       0.238  -2.041   2.549  0.00  0.00    +0.211 HD
ENDBRANCH  17  39
TORSDOF 11
