REMARK  Name = ZINC02118851
REMARK  10 active torsions:
REMARK  status: ('A' for Active; 'I' for Inactive)
REMARK    1  A    between atoms: C_1  and  O_2
REMARK    2  A    between atoms: O_2  and  C_3
REMARK    3  A    between atoms: C_8  and  C_9
REMARK    4  A    between atoms: N_28  and  C_31
REMARK    5  A    between atoms: C_31  and  C_32
REMARK    6  A    between atoms: C_32  and  C_33
REMARK    7  A    between atoms: C_36  and  O_41
REMARK    8  A    between atoms: C_37  and  O_39
REMARK    9  A    between atoms: O_39  and  C_40
REMARK   10  A    between atoms: O_41  and  C_42
REMARK                            x       y       z     vdW  Elec       q    Type
REMARK                         _______ _______ _______ _____ _____    ______ ____
ROOT
ATOM      1  C   UNL     1       7.889  -2.058  -1.788  0.00  0.00    +0.157 C 
ATOM      2  C   UNL     1       8.060  -3.183  -0.793  0.00  0.00    +0.046 A 
ATOM      3  C   UNL     1       7.047  -3.684  -0.054  0.00  0.00    -0.015 A 
ATOM      4  C   UNL     1       7.603  -4.744   0.764  0.00  0.00    +0.003 A 
ATOM      5  C   UNL     1       7.039  -5.607   1.708  0.00  0.00    +0.010 A 
ATOM      6  C   UNL     1       7.884  -6.509   2.306  0.00  0.00    +0.001 A 
ATOM      7  C   UNL     1       9.233  -6.571   1.997  0.00  0.00    +0.002 A 
ATOM      8  C   UNL     1       9.817  -5.729   1.066  0.00  0.00    +0.026 A 
ATOM      9  C   UNL     1       8.983  -4.804   0.442  0.00  0.00    +0.047 A 
ATOM     10  N   UNL     1       9.222  -3.847  -0.502  0.00  0.00    -0.356 N 
ATOM     11  H   UNL     1      10.085  -3.665  -0.907  0.00  0.00    +0.166 HD
ATOM     12  C   UNL     1       5.622  -3.195  -0.106  0.00  0.00    +0.069 C 
ATOM     13  C   UNL     1       5.423  -2.383  -1.394  0.00  0.00    +0.167 C 
ATOM     14  N   UNL     1       6.552  -1.469  -1.564  0.00  0.00    -0.276 N 
ATOM     15  C   UNL     1       6.427  -0.141  -1.532  0.00  0.00    +0.234 C 
ATOM     16  O   UNL     1       7.438   0.525  -1.617  0.00  0.00    -0.274 OA
ATOM     17  C   UNL     1       5.126   0.583  -1.403  0.00  0.00    +0.203 C 
ATOM     18  N   UNL     1       3.998  -0.331  -1.333  0.00  0.00    -0.291 N 
ATOM     19  C   UNL     1       4.118  -1.657  -1.333  0.00  0.00    +0.237 C 
ATOM     20  O   UNL     1       3.103  -2.319  -1.280  0.00  0.00    -0.274 OA
ENDROOT
BRANCH   1  26
ATOM     21  C   UNL     1       8.200  -1.733  -4.255  0.00  0.00    +0.125 A 
ATOM     22  C   UNL     1       8.289  -2.233  -5.546  0.00  0.00    +0.046 A 
ATOM     23  C   UNL     1       8.151  -3.589  -5.772  0.00  0.00    +0.004 A 
ATOM     24  C   UNL     1       7.929  -4.448  -4.711  0.00  0.00    +0.001 A 
ATOM     25  C   UNL     1       7.845  -3.953  -3.423  0.00  0.00    +0.009 A 
ATOM     26  C   UNL     1       7.982  -2.598  -3.193  0.00  0.00    +0.020 A 
BRANCH  21  28
ATOM     27  C   UNL     1       8.552   0.432  -5.173  0.00  0.00    +0.277 C 
ATOM     28  O   UNL     1       8.329  -0.399  -4.032  0.00  0.00    -0.495 OA
ENDBRANCH  21  28
ENDBRANCH   1  26
BRANCH  18  29
ATOM     29  C   UNL     1       2.651   0.240  -1.266  0.00  0.00    +0.113 C 
BRANCH  29  30
ATOM     30  C   UNL     1       2.257   0.446   0.199  0.00  0.00    +0.054 C 
BRANCH  30  31
ATOM     31  C   UNL     1       0.872   1.033   0.269  0.00  0.00    -0.042 A 
ATOM     32  C   UNL     1       0.703   2.405   0.270  0.00  0.00    +0.007 A 
ATOM     33  C   UNL     1      -0.566   2.949   0.334  0.00  0.00    +0.049 A 
ATOM     34  C   UNL     1      -1.673   2.118   0.396  0.00  0.00    +0.161 A 
ATOM     35  C   UNL     1      -1.504   0.737   0.389  0.00  0.00    +0.162 A 
ATOM     36  C   UNL     1      -0.229   0.199   0.331  0.00  0.00    +0.053 A 
BRANCH  35  37
ATOM     37  O   UNL     1      -2.588  -0.083   0.444  0.00  0.00    -0.491 OA
ATOM     38  C   UNL     1      -2.338  -1.490   0.439  0.00  0.00    +0.277 C 
ENDBRANCH  35  37
BRANCH  34  39
ATOM     39  O   UNL     1      -2.923   2.651   0.459  0.00  0.00    -0.491 OA
ATOM     40  C   UNL     1      -3.021   4.077   0.456  0.00  0.00    +0.277 C 
ENDBRANCH  34  39
ENDBRANCH  30  31
ENDBRANCH  29  30
ENDBRANCH  18  29
TORSDOF 7
