REMARK  Name = ZINC22322861
REMARK  13 active torsions:
REMARK  status: ('A' for Active; 'I' for Inactive)
REMARK    1  A    between atoms: C_1  and  C_2
REMARK    2  A    between atoms: C_5  and  S_8
REMARK    3  A    between atoms: S_8  and  N_11
REMARK    4  A    between atoms: N_11  and  C_12
REMARK    5  A    between atoms: N_11  and  C_29
REMARK    6  A    between atoms: C_12  and  C_13
REMARK    7  A    between atoms: N_15  and  C_16
REMARK    8  A    between atoms: C_19  and  C_27
REMARK    9  A    between atoms: C_19  and  C_28
REMARK   10  A    between atoms: C_31  and  O_37
REMARK   11  A    between atoms: C_34  and  O_35
REMARK   12  A    between atoms: O_35  and  C_36
REMARK   13  A    between atoms: O_37  and  C_38
REMARK                            x       y       z     vdW  Elec       q    Type
REMARK                         _______ _______ _______ _____ _____    ______ ____
ROOT
ATOM      1  N   UNL     1       0.268   1.983  -0.106  0.00  0.00    -0.191 N 
ENDROOT
BRANCH   1   2
ATOM      2  C   UNL     1       1.350   2.838  -0.340  0.00  0.00    +0.097 A 
ATOM      3  C   UNL     1       1.913   3.550   0.709  0.00  0.00    +0.074 A 
ATOM      4  C   UNL     1       2.986   4.396   0.475  0.00  0.00    +0.122 A 
ATOM      5  C   UNL     1       3.497   4.531  -0.808  0.00  0.00    +0.049 A 
ATOM      6  C   UNL     1       2.937   3.823  -1.855  0.00  0.00    +0.051 A 
ATOM      7  C   UNL     1       1.869   2.972  -1.626  0.00  0.00    +0.143 A 
BRANCH   7   8
ATOM      8  O   UNL     1       1.322   2.272  -2.657  0.00  0.00    -0.493 OA
ATOM      9  C   UNL     1       1.905   2.458  -3.949  0.00  0.00    +0.277 C 
ENDBRANCH   7   8
BRANCH   4  10
ATOM     10  O   UNL     1       3.538   5.094   1.503  0.00  0.00    -0.495 OA
ATOM     11  C   UNL     1       4.641   5.947   1.189  0.00  0.00    +0.277 C 
ENDBRANCH   4  10
ENDBRANCH   1   2
BRANCH   1  12
ATOM     12  S   UNL     1       0.529   0.369   0.157  0.00  0.00    +0.075 S 
ATOM     13  O   UNL     1      -0.711  -0.286  -0.074  0.00  0.00    -0.150 OA
ATOM     14  O   UNL     1       1.713   0.029  -0.551  0.00  0.00    -0.150 OA
BRANCH  12  19
ATOM     15  C   UNL     1       1.771  -0.306   6.022  0.00  0.00    +0.044 C 
ATOM     16  C   UNL     1       1.461  -0.137   4.557  0.00  0.00    -0.050 A 
ATOM     17  C   UNL     1       0.170  -0.323   4.098  0.00  0.00    +0.005 A 
ATOM     18  C   UNL     1      -0.114  -0.168   2.754  0.00  0.00    +0.029 A 
ATOM     19  C   UNL     1       0.892   0.172   1.869  0.00  0.00    +0.109 A 
ATOM     20  C   UNL     1       2.183   0.352   2.328  0.00  0.00    +0.029 A 
ATOM     21  C   UNL     1       2.467   0.203   3.672  0.00  0.00    +0.005 A 
ENDBRANCH  12  19
ENDBRANCH   1  12
BRANCH   1  22
ATOM     22  C   UNL     1      -1.098   2.514  -0.100  0.00  0.00    +0.227 C 
BRANCH  22  23
ATOM     23  C   UNL     1      -1.427   3.037   1.274  0.00  0.00    +0.233 C 
ATOM     24  O   UNL     1      -0.641   2.885   2.185  0.00  0.00    -0.274 OA
ATOM     25  N   UNL     1      -2.595   3.673   1.492  0.00  0.00    -0.307 N 
ATOM     26  H   UNL     1      -3.345   3.736   0.689  0.00  0.00    +0.149 HD
BRANCH  25  27
ATOM     27  C   UNL     1      -2.868   4.279   2.797  0.00  0.00    +0.110 C 
ATOM     28  C   UNL     1      -3.765   5.505   2.612  0.00  0.00    +0.074 C 
ATOM     29  C   UNL     1      -4.274   5.943   3.991  0.00  0.00    +0.107 C 
ATOM     30  O   UNL     1      -5.104   4.906   4.515  0.00  0.00    -0.486 OA
ATOM     31  C   UNL     1      -4.625   3.635   4.488  0.00  0.00    +0.126 A 
ATOM     32  C   UNL     1      -3.560   3.274   3.683  0.00  0.00    +0.015 A 
ATOM     33  C   UNL     1      -3.107   1.965   3.684  0.00  0.00    +0.009 A 
ATOM     34  C   UNL     1      -3.715   1.018   4.486  0.00  0.00    +0.001 A 
ATOM     35  C   UNL     1      -4.778   1.376   5.293  0.00  0.00    +0.004 A 
ATOM     36  C   UNL     1      -5.234   2.679   5.295  0.00  0.00    +0.046 A 
ATOM     37  C   UNL     1      -3.087   6.175   4.928  0.00  0.00    +0.055 C 
ATOM     38  C   UNL     1      -5.084   7.234   3.856  0.00  0.00    +0.055 C 
ENDBRANCH  25  27
ENDBRANCH  22  23
ENDBRANCH   1  22
TORSDOF 8
