REMARK  Name = ZINC44563350
REMARK  8 active torsions:
REMARK  status: ('A' for Active; 'I' for Inactive)
REMARK    1  A    between atoms: C_1  and  C_2
REMARK    2  A    between atoms: C_4  and  N_22
REMARK    3  A    between atoms: C_5  and  S_9
REMARK    4  A    between atoms: C_7  and  C_8
REMARK    5  A    between atoms: S_9  and  N_12
REMARK    6  A    between atoms: N_12  and  C_13
REMARK    7  A    between atoms: C_13  and  C_14
REMARK    8  A    between atoms: N_20  and  C_21
REMARK                            x       y       z     vdW  Elec       q    Type
REMARK                         _______ _______ _______ _____ _____    ______ ____
ROOT
ATOM      1  S   UNL     1       0.328  -4.512  -0.533  0.00  0.00    +0.060 S 
ATOM      2  O   UNL     1       1.356  -5.138  -1.287  0.00  0.00    -0.153 OA
ATOM      3  O   UNL     1       0.298  -4.544   0.888  0.00  0.00    -0.153 OA
ENDROOT
BRANCH   1   8
ATOM      4  C   UNL     1       0.319   1.310  -2.134  0.00  0.00    +0.044 C 
ATOM      5  C   UNL     1       0.318  -0.142  -1.732  0.00  0.00    -0.046 A 
ATOM      6  C   UNL     1      -0.593  -0.599  -0.800  0.00  0.00    +0.028 A 
ATOM      7  C   UNL     1      -0.594  -1.938  -0.430  0.00  0.00    +0.051 A 
ATOM      8  C   UNL     1       0.323  -2.813  -0.999  0.00  0.00    +0.126 A 
ATOM      9  C   UNL     1       1.232  -2.349  -1.930  0.00  0.00    +0.034 A 
ATOM     10  C   UNL     1       1.226  -1.016  -2.300  0.00  0.00    -0.046 A 
ATOM     11  C   UNL     1       2.215  -0.515  -3.320  0.00  0.00    +0.044 C 
BRANCH   7  12
ATOM     12  N   UNL     1      -1.514  -2.404   0.512  0.00  0.00    -0.356 N 
ATOM     13  H   UNL     1      -2.079  -1.776   0.989  0.00  0.00    +0.142 HD
ATOM     14  H   UNL     1      -1.588  -3.354   0.689  0.00  0.00    +0.142 HD
ENDBRANCH   7  12
ENDBRANCH   1   8
BRANCH   1  15
ATOM     15  N   UNL     1      -1.103  -5.165  -1.050  0.00  0.00    -0.191 NA
ATOM     16  H   UNL     1      -1.740  -5.511  -0.406  0.00  0.00    +0.148 HD
BRANCH  15  17
ATOM     17  C   UNL     1      -1.407  -5.221  -2.482  0.00  0.00    +0.090 C 
BRANCH  17  18
ATOM     18  C   UNL     1      -2.583  -6.171  -2.718  0.00  0.00    -0.053 C 
ATOM     19  C   UNL     1      -2.172  -7.595  -2.337  0.00  0.00    -0.014 C 
ATOM     20  C   UNL     1      -3.352  -8.542  -2.574  0.00  0.00    -0.003 C 
ATOM     21  C   UNL     1      -4.558  -8.051  -1.768  0.00  0.00    -0.019 C 
ATOM     22  C   UNL     1      -4.881  -6.610  -2.170  0.00  0.00    -0.079 C 
ATOM     23  N   UNL     1      -3.723  -5.751  -1.894  0.00  0.00    +0.381 N 
ATOM     24  C   UNL     1      -4.065  -4.357  -2.208  0.00  0.00    -0.096 C 
ATOM     25  H   UNL     1      -3.477  -5.823  -0.918  0.00  0.00    -0.082 HD
ENDBRANCH  17  18
ENDBRANCH  15  17
ENDBRANCH   1  15
TORSDOF 5
