REMARK  Name = ZINC63303047
REMARK  4 active torsions:
REMARK  status: ('A' for Active; 'I' for Inactive)
REMARK    1  A    between atoms: N_18  and  C_19
REMARK    2  A    between atoms: C_19  and  C_20
REMARK    3  A    between atoms: C_20  and  C_21
REMARK    4  A    between atoms: C_26  and  C_29
REMARK                            x       y       z     vdW  Elec       q    Type
REMARK                         _______ _______ _______ _____ _____    ______ ____
ROOT
ATOM      1  C   UNL     1      -0.017   1.395   0.018  0.00  0.00    +0.022 A 
ATOM      2  C   UNL     1       1.110   2.137   0.013  0.00  0.00    +0.027 A 
ATOM      3  C   UNL     1       2.386   1.512  -0.005  0.00  0.00    +0.043 A 
ATOM      4  N   UNL     1       3.602   2.009  -0.034  0.00  0.00    -0.376 N 
ATOM      5  C   UNL     1       4.557   0.906   0.036  0.00  0.00    +0.124 C 
ATOM      6  C   UNL     1       5.519   0.907  -1.157  0.00  0.00    +0.138 C 
ATOM      7  N   UNL     1       6.153  -0.419  -1.227  0.00  0.00    -0.283 N 
ATOM      8  C   UNL     1       5.340  -1.627  -1.401  0.00  0.00    +0.114 C 
ATOM      9  C   UNL     1       4.326  -1.729  -0.247  0.00  0.00    +0.052 C 
ATOM     10  C   UNL     1       3.719  -0.358  -0.050  0.00  0.00    -0.035 C 
ATOM     11  C   UNL     1       2.436   0.029  -0.024  0.00  0.00    +0.001 A 
ATOM     12  C   UNL     1       1.163  -0.703  -0.014  0.00  0.00    +0.030 A 
ATOM     13  C   UNL     1       0.003  -0.008   0.007  0.00  0.00    +0.042 A 
ATOM     14 CL   UNL     1      -1.502  -0.874   0.021  0.00  0.00    -0.084 Cl
ATOM     15  C   UNL     1       7.493  -0.524  -1.130  0.00  0.00    +0.302 C 
ATOM     16  O   UNL     1       8.180   0.478  -1.080  0.00  0.00    -0.253 OA
ATOM     17  N   UNL     1       8.072  -1.741  -1.088  0.00  0.00    -0.299 N 
ATOM     18  H   UNL     1       7.533  -2.539  -1.201  0.00  0.00    +0.150 HD
ATOM     19  H   UNL     1       3.827   2.951  -0.092  0.00  0.00    +0.160 HD
ENDROOT
BRANCH  17  20
ATOM     20  C   UNL     1       9.517  -1.857  -0.872  0.00  0.00    +0.115 C 
BRANCH  20  21
ATOM     21  C   UNL     1       9.914  -3.335  -0.868  0.00  0.00    +0.114 C 
BRANCH  21  22
ATOM     22  C   UNL     1      11.400  -3.455  -0.646  0.00  0.00    +0.217 C 
ATOM     23  O   UNL     1      12.074  -2.457  -0.504  0.00  0.00    -0.276 OA
ATOM     24  N   UNL     1      11.979  -4.671  -0.604  0.00  0.00    -0.301 N 
ATOM     25  C   UNL     1      11.176  -5.889  -0.780  0.00  0.00    +0.108 C 
ATOM     26  C   UNL     1      11.796  -6.731  -1.900  0.00  0.00    +0.032 C 
ATOM     27  C   UNL     1      13.270  -6.991  -1.581  0.00  0.00    +0.078 C 
ATOM     28  C   UNL     1      14.020  -5.659  -1.506  0.00  0.00    +0.032 C 
ATOM     29  C   UNL     1      13.426  -4.804  -0.388  0.00  0.00    +0.108 C 
BRANCH  27  30
ATOM     30  C   UNL     1      13.874  -7.848  -2.663  0.00  0.00    +0.214 C 
ATOM     31  O   UNL     1      13.194  -8.214  -3.597  0.00  0.00    -0.276 OA
ATOM     32  N   UNL     1      15.171  -8.206  -2.593  0.00  0.00    -0.329 N 
ATOM     33  H   UNL     1      15.716  -7.913  -1.845  0.00  0.00    +0.145 HD
ATOM     34  H   UNL     1      15.561  -8.758  -3.289  0.00  0.00    +0.145 HD
ENDBRANCH  27  30
ENDBRANCH  21  22
ENDBRANCH  20  21
ENDBRANCH  17  20
TORSDOF 4
