REMARK  Name = ZINC33727943
REMARK  6 active torsions:
REMARK  status: ('A' for Active; 'I' for Inactive)
REMARK    1  A    between atoms: C_3  and  N_22
REMARK    2  A    between atoms: N_8  and  C1*_9
REMARK    3  A    between atoms: C2*_11  and  O2*_21
REMARK    4  A    between atoms: C3*_13  and  O3*_20
REMARK    5  A    between atoms: C4*_15  and  C5*_18
REMARK    6  A    between atoms: C5*_18  and  O5*_19
REMARK                            x       y       z     vdW  Elec       q    Type
REMARK                         _______ _______ _______ _____ _____    ______ ____
ROOT
ATOM      1  C   UNL     1       3.605   3.015   0.892  0.00  0.00    +0.096 C 
ATOM      2  C   UNL     1       4.801   3.378   1.320  0.00  0.00    +0.044 C 
ATOM      3  C   UNL     1       4.951   4.757   1.929  0.00  0.00    +0.179 C 
ATOM      4  N   UNL     1       3.744   5.596   2.001  0.00  0.00    -0.279 N 
ATOM      5  C   UNL     1       2.587   5.097   1.520  0.00  0.00    +0.310 C 
ATOM      6  O   UNL     1       1.583   5.780   1.568  0.00  0.00    -0.252 OA
ATOM      7  N   UNL     1       2.514   3.866   0.995  0.00  0.00    -0.232 N 
ATOM      8 BR   UNL     1       6.282   2.212   1.176  0.00  0.00    -0.050 Br
ATOM      9  H   UNL     1       3.800   6.604   2.438  0.00  0.00    +0.152 HD
ENDROOT
BRANCH   7  10
ATOM     10  C1* UNL     1       1.217   3.397   0.500  0.00  0.00    +0.245 C 
ATOM     11  C2* UNL     1       0.198   3.308   1.657  0.00  0.00    +0.193 C 
ATOM     12  C3* UNL     1      -0.634   2.048   1.328  0.00  0.00    +0.178 C 
ATOM     13  C4* UNL     1      -0.019   1.526   0.010  0.00  0.00    +0.177 C 
ATOM     14  O4* UNL     1       1.328   2.047   0.000  0.00  0.00    -0.347 OA
BRANCH  12  15
ATOM     15  O3* UNL     1      -0.499   1.074   2.364  0.00  0.00    -0.386 OA
ATOM     16  H3* UNL     1      -1.029   0.112   2.288  0.00  0.00    +0.210 HD
ENDBRANCH  12  15
BRANCH  11  17
ATOM     17  O2* UNL     1       0.872   3.153   2.908  0.00  0.00    -0.385 OA
ATOM     18  H2* UNL     1       0.292   3.073   3.839  0.00  0.00    +0.210 HD
ENDBRANCH  11  17
BRANCH  13  19
ATOM     19  C5* UNL     1       0.002  -0.004   0.002  0.00  0.00    +0.190 C 
BRANCH  19  20
ATOM     20  O5* UNL     1       0.535  -0.466  -1.241  0.00  0.00    -0.392 OA
ATOM     21  H5* UNL     1       0.628  -1.546  -1.432  0.00  0.00    +0.210 HD
ENDBRANCH  19  20
ENDBRANCH  13  19
ENDBRANCH   7  10
BRANCH   3  22
ATOM     22  N   UNL     1       5.469   4.593   3.295  0.00  0.00    -0.309 NA
ATOM     23  H   UNL     1       5.588   5.581   3.762  0.00  0.00    +0.120 HD
ATOM     24  H   UNL     1       4.762   3.991   3.885  0.00  0.00    +0.120 HD
ENDBRANCH   3  22
TORSDOF 6
