REMARK  Name = ZINC00828825
REMARK  8 active torsions:
REMARK  status: ('A' for Active; 'I' for Inactive)
REMARK    1  A    between atoms: C_1  and  C_2
REMARK    2  A    between atoms: C_7  and  N_8
REMARK    3  A    between atoms: C_9  and  C_11
REMARK    4  A    between atoms: C_12  and  C_28
REMARK    5  A    between atoms: C_17  and  C_19
REMARK    6  A    between atoms: C_22  and  O_27
REMARK    7  A    between atoms: C_23  and  O_25
REMARK    8  A    between atoms: O_25  and  C_26
REMARK                            x       y       z     vdW  Elec       q    Type
REMARK                         _______ _______ _______ _____ _____    ______ ____
ROOT
ATOM      1  C   UNL     1      -2.653  -0.871   0.980  0.00  0.00    +0.056 C 
ATOM      2  C   UNL     1      -3.636  -0.105   1.500  0.00  0.00    +0.017 C 
ATOM      3  N   UNL     1      -4.524   0.546   0.692  0.00  0.00    -0.300 N 
ATOM      4  C   UNL     1      -4.497   0.482  -0.645  0.00  0.00    +0.135 C 
ATOM      5  S   UNL     1      -5.671   1.349  -1.540  0.00  0.00    -0.019 S 
ATOM      6  N   UNL     1      -3.575  -0.243  -1.309  0.00  0.00    -0.315 N 
ATOM      7  C   UNL     1      -2.570  -0.984  -0.528  0.00  0.00    +0.139 C 
ATOM      8  C   UNL     1      -3.755   0.033   2.996  0.00  0.00    +0.061 C 
ATOM      9  H   UNL     1      -5.213   1.085   1.111  0.00  0.00    +0.154 HD
ATOM     10  H   UNL     1      -3.573  -0.275  -2.279  0.00  0.00    +0.149 HD
ENDROOT
BRANCH   7  11
ATOM     11  C   UNL     1      -1.205  -0.506  -0.955  0.00  0.00    -0.019 A 
ATOM     12  C   UNL     1      -0.956   0.848  -1.077  0.00  0.00    +0.009 A 
ATOM     13  C   UNL     1       0.294   1.291  -1.468  0.00  0.00    +0.049 A 
ATOM     14  C   UNL     1       1.300   0.377  -1.739  0.00  0.00    +0.158 A 
ATOM     15  C   UNL     1       1.049  -0.987  -1.615  0.00  0.00    +0.162 A 
ATOM     16  C   UNL     1      -0.206  -1.424  -1.223  0.00  0.00    +0.055 A 
BRANCH  15  17
ATOM     17  O   UNL     1       2.033  -1.888  -1.879  0.00  0.00    -0.491 OA
ATOM     18  C   UNL     1       1.679  -3.271  -1.819  0.00  0.00    +0.277 C 
ENDBRANCH  15  17
BRANCH  14  19
ATOM     19  O   UNL     1       2.530   0.810  -2.123  0.00  0.00    -0.503 OA
ATOM     20  H   UNL     1       2.632   0.906  -3.080  0.00  0.00    +0.292 HD
ENDBRANCH  14  19
ENDBRANCH   7  11
BRANCH   1  22
ATOM     21  N   UNL     1      -0.706  -0.873   2.373  0.00  0.00    -0.281 N 
ATOM     22  C   UNL     1      -1.732  -1.547   1.817  0.00  0.00    +0.248 C 
ATOM     23  O   UNL     1      -1.866  -2.738   2.034  0.00  0.00    -0.270 OA
ATOM     24  H   UNL     1      -0.642   0.089   2.263  0.00  0.00    +0.155 HD
BRANCH  21  31
ATOM     25  C   UNL     1       0.915   0.617   4.175  0.00  0.00    +0.045 C 
ATOM     26  C   UNL     1       1.078  -0.871   4.000  0.00  0.00    -0.029 A 
ATOM     27  C   UNL     1       2.033  -1.553   4.729  0.00  0.00    +0.005 A 
ATOM     28  C   UNL     1       2.187  -2.917   4.564  0.00  0.00    +0.000 A 
ATOM     29  C   UNL     1       1.382  -3.604   3.674  0.00  0.00    +0.002 A 
ATOM     30  C   UNL     1       0.422  -2.930   2.946  0.00  0.00    +0.023 A 
ATOM     31  C   UNL     1       0.265  -1.559   3.109  0.00  0.00    +0.037 A 
ENDBRANCH  21  31
ENDBRANCH   1  22
TORSDOF 5
