REMARK  Name = ZINC61809811
REMARK  7 active torsions:
REMARK  status: ('A' for Active; 'I' for Inactive)
REMARK    1  A    between atoms: C_1  and  C_2
REMARK    2  A    between atoms: C_7  and  N_22
REMARK    3  A    between atoms: C_9  and  C_11
REMARK    4  A    between atoms: N_13  and  C_14
REMARK    5  A    between atoms: N_13  and  C_18
REMARK    6  A    between atoms: C_14  and  C_15
REMARK    7  A    between atoms: C_18  and  C_19
REMARK                            x       y       z     vdW  Elec       q    Type
REMARK                         _______ _______ _______ _____ _____    ______ ____
ROOT
ATOM      1  C   UNL     1       2.105  -0.568   1.295  0.00  0.00    +0.218 C 
ATOM      2  O   UNL     1       2.554   0.445   1.787  0.00  0.00    -0.275 OA
ATOM      3  N   UNL     1       2.881  -1.332   0.501  0.00  0.00    -0.284 N 
ENDROOT
BRANCH   1  10
ATOM      4  C   UNL     1      -0.130   1.074   0.389  0.00  0.00    +0.008 C 
ATOM      5  C   UNL     1      -0.224  -0.452   0.451  0.00  0.00    -0.004 C 
ATOM      6  C   UNL     1      -1.671  -0.863   0.731  0.00  0.00    +0.004 C 
ATOM      7  C   UNL     1      -2.120  -0.269   2.068  0.00  0.00    -0.001 C 
ATOM      8  C   UNL     1      -1.216  -0.790   3.187  0.00  0.00    -0.016 C 
ATOM      9  C   UNL     1       0.231  -0.379   2.907  0.00  0.00    -0.063 C 
ATOM     10  C   UNL     1       0.680  -0.973   1.571  0.00  0.00    +0.064 C 
BRANCH   9  11
ATOM     11  N   UNL     1       1.099  -0.879   3.982  0.00  0.00    +0.380 N 
ATOM     12  H   UNL     1       1.115  -1.888   3.959  0.00  0.00    -0.090 HD
ATOM     13  H   UNL     1       2.034  -0.525   3.851  0.00  0.00    -0.090 HD
ATOM     14  H   UNL     1       0.743  -0.569   4.873  0.00  0.00    -0.090 HD
ENDBRANCH   9  11
ENDBRANCH   1  10
BRANCH   3  15
ATOM     15  C   UNL     1       4.295  -0.995   0.314  0.00  0.00    +0.203 C 
BRANCH  15  16
ATOM     16  C   UNL     1       5.121  -1.691   1.365  0.00  0.00    +0.228 C 
ATOM     17  O   UNL     1       4.582  -2.399   2.189  0.00  0.00    -0.274 OA
ATOM     18  N   UNL     1       6.458  -1.526   1.389  0.00  0.00    -0.328 N 
ATOM     19  H   UNL     1       6.889  -0.960   0.730  0.00  0.00    +0.145 HD
ATOM     20  H   UNL     1       6.990  -1.974   2.065  0.00  0.00    +0.145 HD
ENDBRANCH  15  16
ENDBRANCH   3  15
BRANCH   3  21
ATOM     21  C   UNL     1       2.312  -2.501  -0.175  0.00  0.00    +0.203 C 
BRANCH  21  22
ATOM     22  C   UNL     1       1.867  -2.112  -1.562  0.00  0.00    +0.228 C 
ATOM     23  O   UNL     1       2.013  -0.971  -1.947  0.00  0.00    -0.274 OA
ATOM     24  N   UNL     1       1.309  -3.032  -2.373  0.00  0.00    -0.328 N 
ATOM     25  H   UNL     1       1.193  -3.944  -2.065  0.00  0.00    +0.145 HD
ATOM     26  H   UNL     1       1.023  -2.781  -3.266  0.00  0.00    +0.145 HD
ENDBRANCH  21  22
ENDBRANCH   3  21
TORSDOF 6
