REMARK  Name = ZINC58213888
REMARK  11 active torsions:
REMARK  status: ('A' for Active; 'I' for Inactive)
REMARK    1  A    between atoms: C_1  and  C_2
REMARK    2  A    between atoms: C_4  and  C_27
REMARK    3  A    between atoms: C_5  and  N_9
REMARK    4  A    between atoms: C_6  and  C_8
REMARK    5  A    between atoms: C_10  and  C_12
REMARK    6  A    between atoms: C_12  and  N_13
REMARK    7  A    between atoms: N_16  and  C_17
REMARK    8  A    between atoms: C_19  and  C_25
REMARK    9  A    between atoms: C_19  and  C_26
REMARK   10  A    between atoms: C_21  and  C_23
REMARK   11  A    between atoms: C_21  and  C_24
REMARK                            x       y       z     vdW  Elec       q    Type
REMARK                         _______ _______ _______ _____ _____    ______ ____
ROOT
ATOM      1  N   UNL     1       0.519  -7.101   2.198  0.00  0.00    -0.291 N 
ATOM      2  C   UNL     1       0.602  -8.432   2.397  0.00  0.00    +0.300 C 
ATOM      3  O   UNL     1       0.246  -9.200   1.524  0.00  0.00    -0.253 OA
ATOM      4  N   UNL     1       1.081  -8.910   3.562  0.00  0.00    -0.297 N 
ATOM      5  H   UNL     1       0.803  -6.488   2.894  0.00  0.00    +0.151 HD
ATOM      6  H   UNL     1       1.365  -8.297   4.258  0.00  0.00    +0.151 HD
ENDROOT
BRANCH   4   7
ATOM      7  C   UNL     1       1.171 -10.360   3.779  0.00  0.00    +0.072 C 
ATOM      8  C   UNL     1      -0.164 -10.871   4.324  0.00  0.00    +0.009 C 
ATOM      9  C   UNL     1      -0.081 -12.378   4.566  0.00  0.00    -0.072 C 
ATOM     10  N   UNL     1       1.044 -12.736   5.418  0.00  0.00    +0.386 N 
ATOM     11  C   UNL     1       2.336 -12.141   5.116  0.00  0.00    -0.072 C 
ATOM     12  C   UNL     1       2.256 -10.648   4.816  0.00  0.00    +0.009 C 
ATOM     13  C   UNL     1       3.229 -12.310   6.368  0.00  0.00    -0.010 C 
ATOM     14  C   UNL     1       3.038 -12.867   3.965  0.00  0.00    -0.010 C 
ATOM     15  C   UNL     1      -0.056 -13.127   3.235  0.00  0.00    -0.010 C 
ATOM     16  C   UNL     1      -1.375 -12.795   5.302  0.00  0.00    -0.010 C 
ATOM     17  H   UNL     1       0.801 -12.503   6.384  0.00  0.00    -0.084 HD
ATOM     18  H   UNL     1       1.146 -13.753   5.404  0.00  0.00    -0.084 HD
ENDBRANCH   4   7
BRANCH   1  19
ATOM     19  C   UNL     1      -0.001  -6.581   0.931  0.00  0.00    +0.202 C 
BRANCH  19  21
ATOM     20  N   UNL     1      -0.426  -4.373  -0.100  0.00  0.00    -0.284 N 
ATOM     21  C   UNL     1       0.011  -5.074   0.965  0.00  0.00    +0.234 C 
ATOM     22  O   UNL     1       0.413  -4.492   1.950  0.00  0.00    -0.274 OA
ATOM     23  H   UNL     1      -0.823  -4.835  -0.855  0.00  0.00    +0.155 HD
BRANCH  20  28
ATOM     24  C   UNL     1       0.053   1.279  -0.169  0.00  0.00    +0.044 C 
ATOM     25  C   UNL     1      -0.074  -0.222  -0.150  0.00  0.00    -0.050 A 
ATOM     26  C   UNL     1       0.493  -0.975  -1.162  0.00  0.00    +0.008 A 
ATOM     27  C   UNL     1       0.379  -2.351  -1.148  0.00  0.00    -0.029 A 
ATOM     28  C   UNL     1      -0.308  -2.979  -0.117  0.00  0.00    +0.039 A 
ATOM     29  C   UNL     1      -0.876  -2.220   0.898  0.00  0.00    -0.029 A 
ATOM     30  C   UNL     1      -0.753  -0.845   0.881  0.00  0.00    +0.008 A 
ATOM     31  C   UNL     1      -1.622  -2.897   2.019  0.00  0.00    +0.045 C 
ATOM     32  C   UNL     1       0.996  -3.171  -2.252  0.00  0.00    +0.045 C 
ENDBRANCH  20  28
ENDBRANCH  19  21
ENDBRANCH   1  19
TORSDOF 4
