REMARK  Name = ZINC41672924
REMARK  7 active torsions:
REMARK  status: ('A' for Active; 'I' for Inactive)
REMARK    1  A    between atoms: C_1  and  N_2
REMARK    2  A    between atoms: C_7  and  N_11
REMARK    3  A    between atoms: C_12  and  C_14
REMARK    4  A    between atoms: C_14  and  C_24
REMARK    5  A    between atoms: C_15  and  C_16
REMARK    6  A    between atoms: C_19  and  O_23
REMARK    7  A    between atoms: C_20  and  O_22
REMARK                            x       y       z     vdW  Elec       q    Type
REMARK                         _______ _______ _______ _____ _____    ______ ____
ROOT
ATOM      1  N   UNL     1      -0.044  -5.042   3.324  0.00  0.00    -0.281 N 
ATOM      2  C   UNL     1      -0.932  -6.016   3.609  0.00  0.00    +0.259 C 
ATOM      3  O   UNL     1      -2.054  -5.971   3.143  0.00  0.00    -0.269 OA
ATOM      4  H   UNL     1       0.872  -5.116   3.633  0.00  0.00    +0.155 HD
ENDROOT
BRANCH   1  11
ATOM      5  C   UNL     1       0.248   0.886  -0.916  0.00  0.00    -0.095 C 
ATOM      6  N   UNL     1      -0.174  -0.492  -0.629  0.00  0.00    +0.383 N 
ATOM      7  C   UNL     1      -1.377  -0.497   0.234  0.00  0.00    -0.043 C 
ATOM      8  C   UNL     1      -1.240  -1.716   1.119  0.00  0.00    -0.062 A 
ATOM      9  C   UNL     1      -2.163  -2.408   1.879  0.00  0.00    +0.004 A 
ATOM     10  C   UNL     1      -1.771  -3.511   2.611  0.00  0.00    +0.023 A 
ATOM     11  C   UNL     1      -0.445  -3.926   2.583  0.00  0.00    +0.034 A 
ATOM     12  C   UNL     1       0.481  -3.229   1.819  0.00  0.00    +0.025 A 
ATOM     13  C   UNL     1       0.083  -2.127   1.089  0.00  0.00    -0.061 A 
ATOM     14  C   UNL     1       0.849  -1.189   0.183  0.00  0.00    -0.043 C 
ATOM     15  H   UNL     1      -0.348  -0.995  -1.486  0.00  0.00    -0.081 HD
ENDBRANCH   1  11
BRANCH   2  16
ATOM     16  C   UNL     1      -0.542  -7.132   4.484  0.00  0.00    +0.114 C 
ATOM     17  C   UNL     1      -1.449  -8.128   4.776  0.00  0.00    +0.032 C 
BRANCH  17  18
ATOM     18  C   UNL     1      -1.128  -9.139   5.785  0.00  0.00    -0.020 A 
ATOM     19  C   UNL     1      -1.698 -10.417   5.707  0.00  0.00    +0.012 A 
ATOM     20  C   UNL     1      -1.393 -11.365   6.658  0.00  0.00    +0.050 A 
ATOM     21  C   UNL     1      -0.523 -11.058   7.697  0.00  0.00    +0.158 A 
ATOM     22  C   UNL     1       0.048  -9.788   7.783  0.00  0.00    +0.159 A 
ATOM     23  C   UNL     1      -0.245  -8.832   6.831  0.00  0.00    +0.057 A 
BRANCH  22  24
ATOM     24  O   UNL     1       0.899  -9.493   8.802  0.00  0.00    -0.503 OA
ATOM     25  H   UNL     1       1.827  -9.681   8.606  0.00  0.00    +0.292 HD
ENDBRANCH  22  24
BRANCH  21  26
ATOM     26  O   UNL     1      -0.227 -11.997   8.631  0.00  0.00    -0.503 OA
ATOM     27  H   UNL     1       0.540 -12.543   8.412  0.00  0.00    +0.292 HD
ENDBRANCH  21  26
ENDBRANCH  17  18
BRANCH  16  28
ATOM     28  C   UNL     1       0.779  -7.185   5.033  0.00  0.00    +0.104 C 
ATOM     29  N   UNL     1       1.828  -7.226   5.468  0.00  0.00    -0.191 NA
ENDBRANCH  16  28
ENDBRANCH   2  16
TORSDOF 6
