REMARK  Name = ZINC11979394
REMARK  10 active torsions:
REMARK  status: ('A' for Active; 'I' for Inactive)
REMARK    1  A    between atoms: C_1  and  C_2
REMARK    2  A    between atoms: C_2  and  C_3
REMARK    3  A    between atoms: C_2  and  C_4
REMARK    4  A    between atoms: C_4  and  N_5
REMARK    5  A    between atoms: C_7  and  C_20
REMARK    6  A    between atoms: C_10  and  C_12
REMARK    7  A    between atoms: N_22  and  C_23
REMARK    8  A    between atoms: C_23  and  C_24
REMARK    9  A    between atoms: C_24  and  C_26
REMARK   10  A    between atoms: C_24  and  N_76
REMARK                            x       y       z     vdW  Elec       q    Type
REMARK                         _______ _______ _______ _____ _____    ______ ____
ROOT
ATOM      1  N   UNL     1      -5.385  -1.066   1.472  0.00  0.00    -0.351 N 
ATOM      2  C   UNL     1      -4.177  -0.772   0.965  0.00  0.00    +0.102 A 
ATOM      3  C   UNL     1      -3.141  -1.680   1.006  0.00  0.00    +0.100 A 
ATOM      4  C   UNL     1      -3.384  -2.989   1.635  0.00  0.00    +0.206 A 
ATOM      5  O   UNL     1      -2.507  -3.833   1.705  0.00  0.00    -0.286 OA
ATOM      6  C   UNL     1      -4.732  -3.236   2.174  0.00  0.00    +0.100 A 
ATOM      7  C   UNL     1      -5.675  -2.239   2.060  0.00  0.00    +0.102 A 
ENDROOT
BRANCH   6   8
ATOM      8  C   UNL     1      -5.063  -4.518   2.821  0.00  0.00    +0.252 C 
ATOM      9  O   UNL     1      -4.218  -5.112   3.462  0.00  0.00    -0.270 OA
ATOM     10  N   UNL     1      -6.303  -5.032   2.702  0.00  0.00    -0.297 N 
ATOM     11  C   UNL     1      -7.354  -4.294   1.988  0.00  0.00    +0.108 C 
ATOM     12  C   UNL     1      -7.948  -5.211   0.908  0.00  0.00    +0.019 C 
ATOM     13  C   UNL     1      -8.425  -6.512   1.559  0.00  0.00    +0.003 C 
ATOM     14  C   UNL     1      -7.235  -7.230   2.199  0.00  0.00    +0.019 C 
ATOM     15  C   UNL     1      -6.631  -6.338   3.288  0.00  0.00    +0.108 C 
ENDBRANCH   6   8
BRANCH   3  16
ATOM     16  C   UNL     1      -1.823  -1.348   0.439  0.00  0.00    +0.249 C 
ATOM     17  O   UNL     1      -0.918  -2.159   0.488  0.00  0.00    -0.270 OA
ATOM     18  N   UNL     1      -1.619  -0.144  -0.133  0.00  0.00    -0.312 N 
ATOM     19  H   UNL     1      -2.341   0.502  -0.171  0.00  0.00    +0.149 HD
BRANCH  18  20
ATOM     20  C   UNL     1      -0.308   0.186  -0.696  0.00  0.00    +0.094 C 
BRANCH  20  21
ATOM     21  C   UNL     1      -0.345   1.601  -1.279  0.00  0.00    -0.020 C 
BRANCH  21  27
ATOM     22  C   UNL     1      -1.157   0.903  -3.450  0.00  0.00    -0.078 C 
ATOM     23  C   UNL     1      -2.378   0.914  -4.373  0.00  0.00    -0.019 C 
ATOM     24  C   UNL     1      -2.705   2.358  -4.763  0.00  0.00    -0.004 C 
ATOM     25  C   UNL     1      -2.949   3.179  -3.494  0.00  0.00    -0.019 C 
ATOM     26  C   UNL     1      -1.712   3.102  -2.596  0.00  0.00    -0.078 C 
ATOM     27  N   UNL     1      -1.466   1.690  -2.237  0.00  0.00    +0.385 N 
ATOM     28  H   UNL     1      -2.311   1.306  -1.797  0.00  0.00    -0.081 HD
ENDBRANCH  21  27
BRANCH  21  29
ATOM     29  C   UNL     1       0.963   1.895  -1.966  0.00  0.00    -0.059 A 
ATOM     30  C   UNL     1       1.645   3.063  -1.682  0.00  0.00    +0.002 A 
ATOM     31  C   UNL     1       2.848   3.332  -2.309  0.00  0.00    +0.000 A 
ATOM     32  C   UNL     1       3.363   2.436  -3.227  0.00  0.00    +0.000 A 
ATOM     33  C   UNL     1       2.679   1.270  -3.515  0.00  0.00    +0.000 A 
ATOM     34  C   UNL     1       1.478   1.000  -2.885  0.00  0.00    +0.002 A 
ENDBRANCH  21  29
ENDBRANCH  20  21
ENDBRANCH  18  20
ENDBRANCH   3  16
BRANCH   1  35
ATOM     35  C   UNL     1      -6.440  -0.052   1.387  0.00  0.00    +0.124 C 
BRANCH  35  37
ATOM     36  C   UNL     1      -7.411   1.970   2.486  0.00  0.00    +0.009 C 
ATOM     37  C   UNL     1      -6.394   0.837   2.631  0.00  0.00    +0.003 C 
ATOM     38  C   UNL     1      -6.734   0.002   3.868  0.00  0.00    +0.009 C 
ENDBRANCH  35  37
ENDBRANCH   1  35
TORSDOF 8
