REMARK  Name = ZINC13525102
REMARK  13 active torsions:
REMARK  status: ('A' for Active; 'I' for Inactive)
REMARK    1  A    between atoms: C_1  and  C_2
REMARK    2  A    between atoms: C_4  and  C_15
REMARK    3  A    between atoms: C_5  and  C_14
REMARK    4  A    between atoms: N_6  and  C_7
REMARK    5  A    between atoms: N_17  and  N_18
REMARK    6  A    between atoms: C_19  and  C_20
REMARK    7  A    between atoms: C_23  and  O_28
REMARK    8  A    between atoms: C_24  and  O_26
REMARK    9  A    between atoms: O_26  and  C_27
REMARK   10  A    between atoms: O_28  and  C_29
REMARK   11  A    between atoms: C_29  and  C_30
REMARK   12  A    between atoms: C_33  and  C_41
REMARK   13  A    between atoms: C_38  and  C_40
REMARK                            x       y       z     vdW  Elec       q    Type
REMARK                         _______ _______ _______ _____ _____    ______ ____
ROOT
ATOM      1  N   UNL     1      -2.474  -0.314  -0.225  0.00  0.00    -0.187 NA
ATOM      2  C   UNL     1      -2.493   0.984  -0.196  0.00  0.00    +0.138 C 
ENDROOT
BRANCH   2   3
ATOM      3  C   UNL     1      -1.227   1.739  -0.162  0.00  0.00    -0.002 A 
ATOM      4  C   UNL     1      -0.006   1.060  -0.161  0.00  0.00    +0.013 A 
ATOM      5  C   UNL     1       1.177   1.768  -0.135  0.00  0.00    +0.050 A 
ATOM      6  C   UNL     1       1.159   3.155  -0.105  0.00  0.00    +0.163 A 
ATOM      7  C   UNL     1      -0.055   3.839  -0.101  0.00  0.00    +0.162 A 
ATOM      8  C   UNL     1      -1.245   3.136  -0.126  0.00  0.00    +0.059 A 
BRANCH   7   9
ATOM      9  O   UNL     1      -0.069   5.198  -0.071  0.00  0.00    -0.491 OA
ATOM     10  C   UNL     1      -1.349   5.834  -0.068  0.00  0.00    +0.277 C 
ENDBRANCH   7   9
BRANCH   6  11
ATOM     11  O   UNL     1       2.328   3.848  -0.080  0.00  0.00    -0.479 OA
BRANCH  11  12
ATOM     12  C   UNL     1       3.535   3.084  -0.085  0.00  0.00    +0.325 C 
BRANCH  12  13
ATOM     13  C   UNL     1       4.719   4.016  -0.054  0.00  0.00    +0.254 C 
ATOM     14  O   UNL     1       4.546   5.216  -0.030  0.00  0.00    -0.272 OA
ATOM     15  N   UNL     1       5.971   3.515  -0.054  0.00  0.00    -0.293 N 
ATOM     16  C   UNL     1       6.198   2.068   0.050  0.00  0.00    +0.073 C 
ATOM     17  C   UNL     1       7.091   1.628  -1.120  0.00  0.00    +0.022 C 
ATOM     18  C   UNL     1       8.371   2.466  -1.121  0.00  0.00    +0.004 C 
ATOM     19  C   UNL     1       8.016   3.942  -1.314  0.00  0.00    +0.022 C 
ATOM     20  C   UNL     1       7.134   4.408  -0.152  0.00  0.00    +0.073 C 
ATOM     21  C   UNL     1       6.661   5.840  -0.409  0.00  0.00    +0.028 C 
ATOM     22  C   UNL     1       6.892   1.752   1.377  0.00  0.00    +0.028 C 
ENDBRANCH  12  13
ENDBRANCH  11  12
ENDBRANCH   6  11
ENDBRANCH   2   3
BRANCH   1  25
ATOM     23  C   UNL     1      -3.657  -2.378  -0.287  0.00  0.00    +0.265 C 
ATOM     24  O   UNL     1      -2.595  -2.971  -0.286  0.00  0.00    -0.268 OA
ATOM     25  N   UNL     1      -3.676  -1.031  -0.257  0.00  0.00    -0.203 N 
ATOM     26  H   UNL     1      -4.523  -0.558  -0.258  0.00  0.00    +0.178 HD
BRANCH  23  30
ATOM     27  C   UNL     1      -8.625  -3.539  -0.379  0.00  0.00    +0.064 C 
ATOM     28  C   UNL     1      -7.120  -3.624  -0.362  0.00  0.00    +0.022 A 
ATOM     29  C   UNL     1      -6.278  -2.576  -0.327  0.00  0.00    +0.036 A 
ATOM     30  C   UNL     1      -4.921  -3.132  -0.321  0.00  0.00    +0.059 A 
ATOM     31  C   UNL     1      -5.065  -4.492  -0.359  0.00  0.00    +0.033 A 
ATOM     32  N   UNL     1      -6.389  -4.779  -0.377  0.00  0.00    -0.317 N 
ATOM     33  C   UNL     1      -3.944  -5.499  -0.374  0.00  0.00    +0.064 C 
BRANCH  32  34
ATOM     34  C   UNL     1      -6.931  -6.072  -0.413  0.00  0.00    +0.047 A 
ATOM     35  C   UNL     1      -6.740  -6.934   0.658  0.00  0.00    +0.029 A 
ATOM     36  C   UNL     1      -7.279  -8.206   0.624  0.00  0.00    +0.040 A 
ATOM     37  C   UNL     1      -7.999  -8.624  -0.483  0.00  0.00    +0.124 A 
ATOM     38  C   UNL     1      -8.185  -7.766  -1.554  0.00  0.00    +0.040 A 
ATOM     39  C   UNL     1      -7.653  -6.493  -1.521  0.00  0.00    +0.029 A 
ATOM     40  F   UNL     1      -8.520  -9.870  -0.517  0.00  0.00    -0.205 F 
ENDBRANCH  32  34
ENDBRANCH  23  30
ENDBRANCH   1  25
TORSDOF 8
