REMARK  Name = ZINC09138053
REMARK  10 active torsions:
REMARK  status: ('A' for Active; 'I' for Inactive)
REMARK    1  A    between atoms: C_1  and  C_2
REMARK    2  A    between atoms: C_2  and  O_3
REMARK    3  A    between atoms: O_3  and  C_4
REMARK    4  A    between atoms: C_6  and  C_11
REMARK    5  A    between atoms: C_9  and  O_10
REMARK    6  A    between atoms: C_13  and  C_20
REMARK    7  A    between atoms: C_14  and  C_19
REMARK    8  A    between atoms: N_22  and  C_23
REMARK    9  A    between atoms: C_26  and  C_30
REMARK   10  A    between atoms: C_28  and  C_29
REMARK                            x       y       z     vdW  Elec       q    Type
REMARK                         _______ _______ _______ _____ _____    ______ ____
ROOT
ATOM      1  C   UNL     1      -3.931   3.242   7.147  0.00  0.00    +0.139 C 
ATOM      2  C   UNL     1      -2.442   2.993   7.023  0.00  0.00    +0.056 C 
ATOM      3  C   UNL     1      -1.683   3.155   8.128  0.00  0.00    +0.017 C 
ATOM      4  N   UNL     1      -2.240   3.541   9.314  0.00  0.00    -0.300 N 
ATOM      5  C   UNL     1      -3.548   3.775   9.480  0.00  0.00    +0.135 C 
ATOM      6  S   UNL     1      -4.115   4.248  11.024  0.00  0.00    -0.019 S 
ATOM      7  N   UNL     1      -4.432   3.650   8.470  0.00  0.00    -0.315 N 
ATOM      8  C   UNL     1      -0.198   2.912   8.051  0.00  0.00    +0.061 C 
ATOM      9  H   UNL     1      -1.604   3.676  10.202  0.00  0.00    +0.154 HD
ATOM     10  H   UNL     1      -5.505   3.844   8.617  0.00  0.00    +0.149 HD
ENDROOT
BRANCH   1  13
ATOM     11  C   UNL     1      -5.952   0.746   5.158  0.00  0.00    +0.162 A 
ATOM     12  C   UNL     1      -5.296   1.909   5.529  0.00  0.00    +0.055 A 
ATOM     13  C   UNL     1      -4.648   1.978   6.748  0.00  0.00    -0.019 A 
ATOM     14  C   UNL     1      -4.662   0.893   7.604  0.00  0.00    +0.009 A 
ATOM     15  C   UNL     1      -5.319  -0.268   7.242  0.00  0.00    +0.049 A 
ATOM     16  C   UNL     1      -5.966  -0.346   6.020  0.00  0.00    +0.158 A 
BRANCH  16  17
ATOM     17  O   UNL     1      -6.614  -1.488   5.663  0.00  0.00    -0.503 OA
ATOM     18  H   UNL     1      -6.624  -2.350   6.345  0.00  0.00    +0.292 HD
ENDBRANCH  16  17
BRANCH  11  19
ATOM     19  O   UNL     1      -6.586   0.674   3.957  0.00  0.00    -0.489 OA
BRANCH  19  21
ATOM     20  C   UNL     1      -7.289   1.566   1.823  0.00  0.00    +0.048 C 
ATOM     21  C   UNL     1      -6.474   1.809   3.095  0.00  0.00    +0.226 C 
ENDBRANCH  19  21
ENDBRANCH  11  19
ENDBRANCH   1  13
BRANCH   2  22
ATOM     22  C   UNL     1      -1.865   2.597   5.792  0.00  0.00    +0.248 C 
ATOM     23  O   UNL     1      -1.765   3.399   4.881  0.00  0.00    -0.270 OA
ATOM     24  N   UNL     1      -1.428   1.333   5.628  0.00  0.00    -0.281 N 
ATOM     25  H   UNL     1      -1.616   0.580   6.408  0.00  0.00    +0.155 HD
BRANCH  24  26
ATOM     26  C   UNL     1      -0.735   0.978   4.466  0.00  0.00    +0.037 A 
ATOM     27  C   UNL     1      -1.017   1.615   3.265  0.00  0.00    +0.024 A 
ATOM     28  C   UNL     1      -0.331   1.262   2.120  0.00  0.00    +0.005 A 
ATOM     29  C   UNL     1       0.636   0.275   2.168  0.00  0.00    -0.050 A 
ATOM     30  C   UNL     1       0.915  -0.366   3.361  0.00  0.00    +0.008 A 
ATOM     31  C   UNL     1       0.237  -0.013   4.511  0.00  0.00    -0.029 A 
ATOM     32  C   UNL     1       0.546  -0.708   5.812  0.00  0.00    +0.045 C 
ATOM     33  C   UNL     1       1.383  -0.108   0.916  0.00  0.00    +0.044 C 
ENDBRANCH  24  26
ENDBRANCH   2  22
TORSDOF 6
