REMARK  Name = ZINC42904442
REMARK  7 active torsions:
REMARK  status: ('A' for Active; 'I' for Inactive)
REMARK    1  A    between atoms: C_4  and  O_7
REMARK    2  A    between atoms: O_7  and  C_8
REMARK    3  A    between atoms: C_8  and  C_9
REMARK    4  A    between atoms: C_12  and  C_14
REMARK    5  A    between atoms: N_16  and  N_17
REMARK    6  A    between atoms: N_20  and  C_21
REMARK    7  A    between atoms: C_24  and  C_27
REMARK                            x       y       z     vdW  Elec       q    Type
REMARK                         _______ _______ _______ _____ _____    ______ ____
ROOT
ATOM      1  C   UNL     1       7.916  -3.813  -1.709  0.00  0.00    +0.295 C 
ATOM      2  O   UNL     1       8.968  -4.230  -1.261  0.00  0.00    -0.265 OA
ATOM      3  N   UNL     1       7.738  -3.725  -3.042  0.00  0.00    -0.227 N 
ATOM      4  H   UNL     1       6.899  -3.393  -3.398  0.00  0.00    +0.173 HD
ENDROOT
BRANCH   3   5
ATOM      5  N   UNL     1       8.764  -4.115  -3.912  0.00  0.00    -0.218 N 
ATOM      6  C   UNL     1       8.586  -4.027  -5.245  0.00  0.00    +0.320 C 
ATOM      7  O   UNL     1       9.477  -4.365  -6.001  0.00  0.00    -0.251 OA
ATOM      8  N   UNL     1       7.421  -3.565  -5.741  0.00  0.00    -0.268 N 
ATOM      9  H   UNL     1       9.603  -4.447  -3.556  0.00  0.00    +0.174 HD
ATOM     10  H   UNL     1       6.687  -3.359  -5.141  0.00  0.00    +0.156 HD
BRANCH   8  11
ATOM     11  C   UNL     1       7.271  -3.384  -7.115  0.00  0.00    +0.035 A 
ATOM     12  C   UNL     1       7.883  -4.264  -8.003  0.00  0.00    +0.024 A 
ATOM     13  C   UNL     1       7.737  -4.087  -9.360  0.00  0.00    +0.015 A 
ATOM     14  C   UNL     1       6.973  -3.023  -9.847  0.00  0.00    +0.037 A 
ATOM     15  C   UNL     1       6.360  -2.141  -8.952  0.00  0.00    +0.015 A 
ATOM     16  C   UNL     1       6.505  -2.326  -7.596  0.00  0.00    +0.024 A 
BRANCH  14  17
ATOM     17  C   UNL     1       6.815  -2.830 -11.301  0.00  0.00    +0.242 C 
ATOM     18  O   UNL     1       7.349  -3.598 -12.078  0.00  0.00    -0.270 OA
ATOM     19  N   UNL     1       6.078  -1.803 -11.769  0.00  0.00    -0.325 N 
ATOM     20  H   UNL     1       5.652  -1.190 -11.149  0.00  0.00    +0.145 HD
ATOM     21  H   UNL     1       5.974  -1.677 -12.725  0.00  0.00    +0.145 HD
ENDBRANCH  14  17
ENDBRANCH   8  11
ENDBRANCH   3   5
BRANCH   1  25
ATOM     22  C   UNL     1       4.913  -2.660  -0.062  0.00  0.00    +0.143 A 
ATOM     23  C   UNL     1       5.653  -2.965   1.027  0.00  0.00    +0.049 A 
ATOM     24  C   UNL     1       6.890  -3.442   0.567  0.00  0.00    +0.055 A 
ATOM     25  C   UNL     1       6.842  -3.405  -0.797  0.00  0.00    +0.191 A 
ATOM     26  O   UNL     1       5.631  -2.933  -1.160  0.00  0.00    -0.452 OA
BRANCH  22  27
ATOM     27  C   UNL     1       3.510  -2.111  -0.045  0.00  0.00    +0.303 C 
BRANCH  27  28
ATOM     28  O   UNL     1       3.558  -0.683  -0.029  0.00  0.00    -0.484 OA
BRANCH  28  32
ATOM     29  C   UNL     1      -0.054   1.310   0.020  0.00  0.00    +0.000 A 
ATOM     30  C   UNL     1       1.129   2.026   0.019  0.00  0.00    +0.004 A 
ATOM     31  C   UNL     1       2.340   1.360   0.003  0.00  0.00    +0.045 A 
ATOM     32  C   UNL     1       2.368  -0.027  -0.013  0.00  0.00    +0.121 A 
ATOM     33  C   UNL     1       1.179  -0.742  -0.012  0.00  0.00    +0.045 A 
ATOM     34  C   UNL     1      -0.029  -0.072   0.004  0.00  0.00    +0.004 A 
ENDBRANCH  28  32
ENDBRANCH  27  28
ENDBRANCH  22  27
ENDBRANCH   1  25
TORSDOF 7
