REMARK  Name = ZINC39992249
REMARK  7 active torsions:
REMARK  status: ('A' for Active; 'I' for Inactive)
REMARK    1  A    between atoms: C_2  and  C_3
REMARK    2  A    between atoms: C_3  and  N_4
REMARK    3  A    between atoms: C_5  and  C_7
REMARK    4  A    between atoms: C_9  and  N_18
REMARK    5  A    between atoms: C_19  and  C_21
REMARK    6  A    between atoms: C_21  and  C_32
REMARK    7  A    between atoms: C_22  and  C_23
REMARK                            x       y       z     vdW  Elec       q    Type
REMARK                         _______ _______ _______ _____ _____    ______ ____
ROOT
ATOM      1  N   UNL     1       1.727  -1.317   3.559  0.00  0.00    -0.298 N 
ATOM      2  C   UNL     1       0.751  -0.895   4.388  0.00  0.00    +0.255 C 
ATOM      3  O   UNL     1       0.399  -1.595   5.319  0.00  0.00    -0.269 OA
ATOM      4  H   UNL     1       2.008  -0.758   2.817  0.00  0.00    +0.150 HD
ENDROOT
BRANCH   1   6
ATOM      5  C   UNL     1       2.508  -3.409   2.457  0.00  0.00    +0.132 C 
ATOM      6  C   UNL     1       2.363  -2.618   3.779  0.00  0.00    +0.152 C 
ATOM      7  S   UNL     1       4.149  -2.438   4.194  0.00  0.00    -0.106 S 
ATOM      8  C   UNL     1       4.776  -3.795   3.232  0.00  0.00    -0.013 C 
ATOM      9  C   UNL     1       3.809  -4.170   2.407  0.00  0.00    -0.046 C 
ATOM     10  C   UNL     1       4.013  -5.336   1.442  0.00  0.00    +0.032 C 
ATOM     11  C   UNL     1       5.510  -5.591   1.272  0.00  0.00    +0.005 C 
ATOM     12  C   UNL     1       6.161  -5.749   2.649  0.00  0.00    +0.005 C 
ATOM     13  C   UNL     1       6.151  -4.391   3.347  0.00  0.00    +0.042 C 
BRANCH   5  15
ATOM     14  N   UNL     1       1.367  -1.676   1.111  0.00  0.00    -0.311 N 
ATOM     15  C   UNL     1       2.457  -2.447   1.299  0.00  0.00    +0.223 C 
ATOM     16  O   UNL     1       3.396  -2.366   0.535  0.00  0.00    -0.275 OA
ATOM     17  H   UNL     1       0.617  -1.740   1.722  0.00  0.00    +0.149 HD
BRANCH  14  18
ATOM     18  C   UNL     1       1.317  -0.740  -0.015  0.00  0.00    +0.131 C 
BRANCH  18  20
ATOM     19  C   UNL     1      -0.016   1.306   0.009  0.00  0.00    +0.005 C 
ATOM     20  C   UNL     1       0.002  -0.004   0.002  0.00  0.00    -0.016 C 
ENDBRANCH  18  20
ENDBRANCH  14  18
ENDBRANCH   5  15
ENDBRANCH   1   6
BRANCH   2  21
ATOM     21  C   UNL     1       0.111   0.413   4.168  0.00  0.00    +0.114 C 
ATOM     22  C   UNL     1      -0.892   0.847   5.020  0.00  0.00    +0.030 C 
BRANCH  22  23
ATOM     23  C   UNL     1      -1.500   2.090   4.811  0.00  0.00    -0.018 C 
ATOM     24  C   UNL     1      -2.509   2.671   5.570  0.00  0.00    +0.003 A 
ATOM     25  C   UNL     1      -3.212   2.247   6.718  0.00  0.00    +0.010 A 
ATOM     26  C   UNL     1      -4.170   3.034   7.263  0.00  0.00    +0.001 A 
ATOM     27  C   UNL     1      -4.508   4.284   6.728  0.00  0.00    +0.002 A 
ATOM     28  C   UNL     1      -3.893   4.781   5.630  0.00  0.00    +0.026 A 
ATOM     29  C   UNL     1      -2.841   3.987   4.979  0.00  0.00    +0.043 A 
ATOM     30  N   UNL     1      -2.099   4.218   3.929  0.00  0.00    -0.380 N 
ATOM     31  C   UNL     1      -1.193   3.086   3.714  0.00  0.00    +0.149 C 
ATOM     32  H   UNL     1      -2.139   5.017   3.379  0.00  0.00    +0.160 HD
ENDBRANCH  22  23
BRANCH  21  33
ATOM     33  C   UNL     1       0.526   1.238   3.072  0.00  0.00    +0.104 C 
ATOM     34  N   UNL     1       0.854   1.891   2.204  0.00  0.00    -0.191 NA
ENDBRANCH  21  33
ENDBRANCH   2  21
TORSDOF 7
