REMARK  Name = ZINC22402117
REMARK  3 active torsions:
REMARK  status: ('A' for Active; 'I' for Inactive)
REMARK    1  A    between atoms: C_1  and  C_2
REMARK    2  A    between atoms: C_2  and  C_29
REMARK    3  A    between atoms: N_12  and  C_15
REMARK                            x       y       z     vdW  Elec       q    Type
REMARK                         _______ _______ _______ _____ _____    ______ ____
ROOT
ATOM      1  C   UNL     1      -5.720  -1.649   2.697  0.00  0.00    +0.011 C 
ATOM      2  C   UNL     1      -6.256  -1.085   1.380  0.00  0.00    -0.023 C 
ATOM      3  C   UNL     1      -5.098  -0.870   0.404  0.00  0.00    +0.058 C 
ATOM      4  C   UNL     1      -4.438  -2.191   0.103  0.00  0.00    +0.020 C 
ATOM      5  C   UNL     1      -5.140  -3.344   0.119  0.00  0.00    +0.039 C 
ATOM      6  C   UNL     1      -6.511  -3.353   0.428  0.00  0.00    +0.164 C 
ATOM      7  O   UNL     1      -7.116  -4.407   0.428  0.00  0.00    -0.292 OA
ATOM      8  C   UNL     1      -7.241  -2.080   0.758  0.00  0.00    +0.086 C 
ATOM      9  C   UNL     1      -4.463  -4.655  -0.195  0.00  0.00    +0.091 C 
ATOM     10  C   UNL     1      -4.958  -5.719   0.793  0.00  0.00    +0.016 C 
ATOM     11  C   UNL     1      -4.340  -7.071   0.429  0.00  0.00    -0.077 C 
ATOM     12  N   UNL     1      -4.729  -7.436  -0.938  0.00  0.00    +0.378 N 
ATOM     13  C   UNL     1      -4.232  -6.456  -1.911  0.00  0.00    -0.077 C 
ATOM     14  C   UNL     1      -4.845  -5.085  -1.616  0.00  0.00    +0.016 C 
ATOM     15  C   UNL     1      -4.268  -8.790  -1.273  0.00  0.00    -0.096 C 
ATOM     16  N   UNL     1      -3.014  -4.538  -0.095  0.00  0.00    -0.244 NA
ATOM     17  C   UNL     1      -2.401  -3.399  -0.096  0.00  0.00    +0.188 C 
ATOM     18  N   UNL     1      -3.099  -2.214  -0.181  0.00  0.00    -0.290 N 
ATOM     19  N   UNL     1      -1.026  -3.369  -0.005  0.00  0.00    -0.241 N 
ATOM     20  C   UNL     1      -0.308  -4.548  -0.023  0.00  0.00    +0.295 A 
ATOM     21  N   UNL     1       0.997  -4.630  -0.039  0.00  0.00    -0.195 NA
ATOM     22  C   UNL     1       1.352  -5.944  -0.053  0.00  0.00    +0.111 A 
ATOM     23  C   UNL     1       2.578  -6.611  -0.074  0.00  0.00    +0.031 A 
ATOM     24  C   UNL     1       2.605  -7.989  -0.085  0.00  0.00    +0.002 A 
ATOM     25  C   UNL     1       1.424  -8.714  -0.075  0.00  0.00    +0.004 A 
ATOM     26  C   UNL     1       0.205  -8.067  -0.055  0.00  0.00    +0.048 A 
ATOM     27  C   UNL     1       0.159  -6.682  -0.044  0.00  0.00    +0.157 A 
ATOM     28  O   UNL     1      -0.848  -5.779  -0.025  0.00  0.00    -0.424 OA
ATOM     29  C   UNL     1      -6.962   0.247   1.642  0.00  0.00    +0.011 C 
ATOM     30  H   UNL     1      -2.583  -1.289  -0.476  0.00  0.00    +0.154 HD
ATOM     31  H   UNL     1      -0.501  -2.406   0.081  0.00  0.00    +0.159 HD
ATOM     32  H   UNL     1      -5.828  -7.430  -0.987  0.00  0.00    -0.082 HD
ENDROOT
TORSDOF 0
