REMARK  Name = ZINC61675957
REMARK  11 active torsions:
REMARK  status: ('A' for Active; 'I' for Inactive)
REMARK    1  A    between atoms: C_1  and  C_2
REMARK    2  A    between atoms: C_2  and  C_3
REMARK    3  A    between atoms: C_3  and  C_5
REMARK    4  A    between atoms: C_3  and  O_8
REMARK    5  A    between atoms: O_8  and  C_9
REMARK    6  A    between atoms: C_10  and  O_20
REMARK    7  A    between atoms: C_12  and  C_16
REMARK    8  A    between atoms: C_16  and  N_17
REMARK    9  A    between atoms: N_17  and  C_18
REMARK   10  A    between atoms: C_18  and  C_19
REMARK   11  A    between atoms: O_20  and  C_21
REMARK                            x       y       z     vdW  Elec       q    Type
REMARK                         _______ _______ _______ _____ _____    ______ ____
ROOT
ATOM      1  C   UNL     1      -3.434   0.036  -1.141  0.00  0.00    +0.177 A 
ATOM      2  C   UNL     1      -4.302  -1.028  -1.368  0.00  0.00    +0.163 A 
ATOM      3  C   UNL     1      -5.671  -0.826  -1.306  0.00  0.00    +0.051 A 
ATOM      4  C   UNL     1      -6.173   0.430  -1.020  0.00  0.00    -0.060 A 
ATOM      5  C   UNL     1      -5.311   1.487  -0.794  0.00  0.00    +0.021 A 
ATOM      6  C   UNL     1      -3.943   1.291  -0.848  0.00  0.00    +0.063 A 
ATOM      7 BR   UNL     1      -2.767   2.738  -0.530  0.00  0.00    -0.046 Br
ENDROOT
BRANCH   2   8
ATOM      8  O   UNL     1      -3.807  -2.263  -1.650  0.00  0.00    -0.491 OA
ATOM      9  C   UNL     1      -4.757  -3.307  -1.872  0.00  0.00    +0.277 C 
ENDBRANCH   2   8
BRANCH   1  10
ATOM     10  O   UNL     1      -2.089  -0.158  -1.200  0.00  0.00    -0.475 OA
BRANCH  10  11
ATOM     11  C   UNL     1      -1.433  -0.534   0.013  0.00  0.00    +0.258 C 
BRANCH  11  12
ATOM     12  C   UNL     1      -1.414  -2.036   0.129  0.00  0.00    +0.251 C 
ATOM     13  O   UNL     1      -1.830  -2.720  -0.783  0.00  0.00    -0.272 OA
ATOM     14  N   UNL     1      -0.933  -2.620   1.244  0.00  0.00    -0.326 N 
ATOM     15  H   UNL     1      -0.601  -2.073   1.973  0.00  0.00    +0.145 HD
ATOM     16  H   UNL     1      -0.921  -3.587   1.319  0.00  0.00    +0.145 HD
ENDBRANCH  11  12
BRANCH  11  18
ATOM     17  C   UNL     1      -0.019   1.526   0.010  0.00  0.00    +0.008 C 
ATOM     18  C   UNL     1       0.002  -0.004   0.002  0.00  0.00    +0.051 C 
ENDBRANCH  11  18
ENDBRANCH  10  11
ENDBRANCH   1  10
BRANCH   4  19
ATOM     19  C   UNL     1      -7.663   0.647  -0.953  0.00  0.00    -0.047 C 
BRANCH  19  20
ATOM     20  N   UNL     1      -8.131   0.416   0.420  0.00  0.00    +0.382 N 
ATOM     21  H   UNL     1      -7.917  -0.532   0.693  0.00  0.00    -0.085 HD
ATOM     22  H   UNL     1      -7.669   1.059   1.046  0.00  0.00    -0.085 HD
BRANCH  20  23
ATOM     23  C   UNL     1      -9.583   0.628   0.485  0.00  0.00    -0.086 C 
ATOM     24  C   UNL     1     -10.070   0.387   1.915  0.00  0.00    -0.017 C 
ENDBRANCH  20  23
ENDBRANCH  19  20
ENDBRANCH   4  19
TORSDOF 8
