REMARK  Name = ZINC16610778
REMARK  15 active torsions:
REMARK  status: ('A' for Active; 'I' for Inactive)
REMARK    1  A    between atoms: C_1  and  C_2
REMARK    2  A    between atoms: C_2  and  O_3
REMARK    3  A    between atoms: O_3  and  C_4
REMARK    4  A    between atoms: C_4  and  C_6
REMARK    5  A    between atoms: C_7  and  C_37
REMARK    6  A    between atoms: N_8  and  C_36
REMARK    7  A    between atoms: C_12  and  C_14
REMARK    8  A    between atoms: C_18  and  N_20
REMARK    9  A    between atoms: N_23  and  C_24
REMARK   10  A    between atoms: C_25  and  C_33
REMARK   11  A    between atoms: C_29  and  C_30
REMARK   12  A    between atoms: C_30  and  C_31
REMARK   13  A    between atoms: C_30  and  C_32
REMARK   14  A    between atoms: C_33  and  C_34
REMARK   15  A    between atoms: C_33  and  C_35
REMARK                            x       y       z     vdW  Elec       q    Type
REMARK                         _______ _______ _______ _____ _____    ______ ____
ROOT
ATOM      1  C   UNL     1       6.793  -3.826  -3.411  0.00  0.00    -0.021 A 
ATOM      2  C   UNL     1       7.565  -4.304  -2.368  0.00  0.00    +0.006 A 
ATOM      3  C   UNL     1       7.155  -4.123  -1.060  0.00  0.00    +0.002 A 
ATOM      4  C   UNL     1       5.973  -3.460  -0.791  0.00  0.00    +0.023 A 
ATOM      5  C   UNL     1       5.193  -2.983  -1.836  0.00  0.00    +0.035 A 
ATOM      6  C   UNL     1       5.609  -3.166  -3.148  0.00  0.00    +0.029 A 
ENDROOT
BRANCH   1  13
ATOM      7  C   UNL     1       6.810  -5.408  -5.274  0.00  0.00    +0.078 C 
ATOM      8  C   UNL     1       7.767  -6.264  -5.692  0.00  0.00    +0.021 C 
ATOM      9  N   UNL     1       9.080  -5.896  -5.716  0.00  0.00    -0.289 N 
ATOM     10  C   UNL     1       9.520  -4.688  -5.340  0.00  0.00    +0.137 C 
ATOM     11  S   UNL     1      11.197  -4.356  -5.421  0.00  0.00    -0.018 S 
ATOM     12  N   UNL     1       8.685  -3.726  -4.900  0.00  0.00    -0.315 N 
ATOM     13  C   UNL     1       7.245  -4.024  -4.835  0.00  0.00    +0.141 C 
ATOM     14  C   UNL     1      10.065  -6.876  -6.181  0.00  0.00    +0.137 C 
ATOM     15  C   UNL     1       7.378  -7.651  -6.138  0.00  0.00    +0.061 C 
ATOM     16  H   UNL     1       9.025  -2.858  -4.631  0.00  0.00    +0.149 HD
BRANCH   7  17
ATOM     17  C   UNL     1       5.449  -5.790  -5.248  0.00  0.00    +0.339 C 
ATOM     18  O   UNL     1       5.123  -6.906  -5.605  0.00  0.00    -0.245 OA
BRANCH  17  19
ATOM     19  O   UNL     1       4.511  -4.916  -4.826  0.00  0.00    -0.462 OA
BRANCH  19  21
ATOM     20  C   UNL     1       2.244  -4.249  -4.320  0.00  0.00    +0.048 C 
ATOM     21  C   UNL     1       3.156  -5.369  -4.825  0.00  0.00    +0.229 C 
ENDBRANCH  19  21
ENDBRANCH  17  19
ENDBRANCH   7  17
ENDBRANCH   1  13
BRANCH   5  22
ATOM     22  N   UNL     1       3.994  -2.314  -1.567  0.00  0.00    -0.269 N 
ATOM     23  C   UNL     1       3.246  -2.673  -0.505  0.00  0.00    +0.308 C 
ATOM     24  O   UNL     1       3.658  -3.512   0.273  0.00  0.00    -0.252 OA
ATOM     25  N   UNL     1       2.041  -2.103  -0.305  0.00  0.00    -0.269 N 
ATOM     26  H   UNL     1       3.701  -1.592  -2.144  0.00  0.00    +0.156 HD
ATOM     27  H   UNL     1       1.738  -1.392  -0.892  0.00  0.00    +0.156 HD
BRANCH  25  28
ATOM     28  C   UNL     1       1.228  -2.535   0.748  0.00  0.00    +0.042 A 
ATOM     29  C   UNL     1      -0.039  -3.040   0.487  0.00  0.00    -0.023 A 
ATOM     30  C   UNL     1      -0.842  -3.461   1.529  0.00  0.00    +0.006 A 
ATOM     31  C   UNL     1      -0.383  -3.384   2.832  0.00  0.00    +0.001 A 
ATOM     32  C   UNL     1       0.881  -2.888   3.094  0.00  0.00    +0.006 A 
ATOM     33  C   UNL     1       1.688  -2.466   2.056  0.00  0.00    -0.023 A 
BRANCH  33  34
ATOM     34  C   UNL     1       3.065  -1.924   2.344  0.00  0.00    +0.015 C 
ATOM     35  C   UNL     1       3.842  -2.932   3.194  0.00  0.00    +0.012 C 
ATOM     36  C   UNL     1       2.945  -0.601   3.103  0.00  0.00    +0.012 C 
ENDBRANCH  33  34
BRANCH  29  37
ATOM     37  C   UNL     1      -0.541  -3.123  -0.932  0.00  0.00    +0.015 C 
ATOM     38  C   UNL     1      -0.970  -4.560  -1.238  0.00  0.00    +0.012 C 
ATOM     39  C   UNL     1      -1.737  -2.186  -1.106  0.00  0.00    +0.012 C 
ENDBRANCH  29  37
ENDBRANCH  25  28
ENDBRANCH   5  22
TORSDOF 8
