REMARK  Name = ZINC64900408
REMARK  6 active torsions:
REMARK  status: ('A' for Active; 'I' for Inactive)
REMARK    1  A    between atoms: C_1  and  C_2
REMARK    2  A    between atoms: C_4  and  N_17
REMARK    3  A    between atoms: C_6  and  C_7
REMARK    4  A    between atoms: N_9  and  N_10
REMARK    5  A    between atoms: N_13  and  C_14
REMARK    6  A    between atoms: C_18  and  C_20
REMARK                            x       y       z     vdW  Elec       q    Type
REMARK                         _______ _______ _______ _____ _____    ______ ____
ROOT
ATOM      1  C   UNL     1      -0.018   1.503   0.010  0.00  0.00    +0.045 C 
ATOM      2  C   UNL     1       0.002  -0.004   0.002  0.00  0.00    -0.029 A 
ATOM      3  C   UNL     1       0.007  -0.725  -1.164  0.00  0.00    +0.035 A 
ATOM      4  C   UNL     1       0.026  -2.098  -1.090  0.00  0.00    +0.073 A 
ATOM      5  S   UNL     1       0.037  -2.419   0.559  0.00  0.00    -0.069 S 
ATOM      6  C   UNL     1       0.023  -0.747   1.175  0.00  0.00    +0.080 A 
ENDROOT
BRANCH   6   7
ATOM      7  C   UNL     1       0.030  -0.277   2.559  0.00  0.00    +0.267 C 
ATOM      8  O   UNL     1       0.016   0.917   2.797  0.00  0.00    -0.268 OA
ATOM      9  N   UNL     1       0.052  -1.166   3.572  0.00  0.00    -0.229 N 
ATOM     10  H   UNL     1       0.063  -2.118   3.382  0.00  0.00    +0.173 HD
BRANCH   9  11
ATOM     11  N   UNL     1       0.058  -0.717   4.899  0.00  0.00    -0.218 N 
ATOM     12  C   UNL     1       0.080  -1.606   5.911  0.00  0.00    +0.316 C 
ATOM     13  O   UNL     1       0.086  -1.215   7.063  0.00  0.00    -0.251 OA
ATOM     14  N   UNL     1       0.095  -2.927   5.648  0.00  0.00    -0.295 N 
ATOM     15  H   UNL     1       0.047   0.234   5.088  0.00  0.00    +0.174 HD
ATOM     16  H   UNL     1       0.091  -3.239   4.729  0.00  0.00    +0.151 HD
BRANCH  14  17
ATOM     17  C   UNL     1       0.119  -3.894   6.748  0.00  0.00    +0.075 C 
ATOM     18  C   UNL     1       1.070  -5.085   6.622  0.00  0.00    +0.024 C 
ATOM     19  C   UNL     1      -0.438  -5.292   6.473  0.00  0.00    +0.024 C 
ENDBRANCH  14  17
ENDBRANCH   9  11
ENDBRANCH   6   7
BRANCH   4  20
ATOM     20  N   UNL     1       0.033  -3.010  -2.138  0.00  0.00    -0.276 N 
ATOM     21  C   UNL     1       0.052  -4.332  -1.880  0.00  0.00    +0.250 C 
ATOM     22  O   UNL     1       0.063  -4.728  -0.730  0.00  0.00    -0.270 OA
ATOM     23  H   UNL     1       0.024  -2.694  -3.055  0.00  0.00    +0.156 HD
BRANCH  21  24
ATOM     24  C   UNL     1       0.060  -5.302  -2.994  0.00  0.00    +0.055 A 
ATOM     25  C   UNL     1       0.053  -4.852  -4.316  0.00  0.00    +0.014 A 
ATOM     26  C   UNL     1       0.061  -5.762  -5.351  0.00  0.00    +0.001 A 
ATOM     27  C   UNL     1       0.075  -7.120  -5.084  0.00  0.00    +0.001 A 
ATOM     28  C   UNL     1       0.081  -7.575  -3.778  0.00  0.00    +0.021 A 
ATOM     29  C   UNL     1       0.080  -6.674  -2.731  0.00  0.00    +0.053 A 
ATOM     30 CL   UNL     1       0.095  -7.245  -1.091  0.00  0.00    -0.083 Cl
ENDBRANCH  21  24
ENDBRANCH   4  20
TORSDOF 5
