REMARK  Name = ZINC39948400
REMARK  15 active torsions:
REMARK  status: ('A' for Active; 'I' for Inactive)
REMARK    1  A    between atoms: C_1  and  C_2
REMARK    2  A    between atoms: C_4  and  C_27
REMARK    3  A    between atoms: C_7  and  C_17
REMARK    4  A    between atoms: C_9  and  C_16
REMARK    5  A    between atoms: C_11  and  C_12
REMARK    6  A    between atoms: C_11  and  O_15
REMARK    7  A    between atoms: C_12  and  C_13
REMARK    8  A    between atoms: C_19  and  O_25
REMARK    9  A    between atoms: C_22  and  O_23
REMARK   10  A    between atoms: O_23  and  C_24
REMARK   11  A    between atoms: O_25  and  C_26
REMARK   12  A    between atoms: C_29  and  O_35
REMARK   13  A    between atoms: C_32  and  O_33
REMARK   14  A    between atoms: O_33  and  C_34
REMARK   15  A    between atoms: O_35  and  C_36
REMARK                            x       y       z     vdW  Elec       q    Type
REMARK                         _______ _______ _______ _____ _____    ______ ____
ROOT
ATOM      1  C   UNL     1      -0.254   1.363   0.471  0.00  0.00    +0.009 C 
ATOM      2  C   UNL     1      -0.050  -0.153   0.479  0.00  0.00    +0.008 C 
ATOM      3  C   UNL     1       0.456  -0.608  -0.891  0.00  0.00    -0.031 C 
ATOM      4  N   UNL     1       1.731   0.054  -1.191  0.00  0.00    +0.389 N 
ATOM      5  C   UNL     1       2.746  -0.354  -0.212  0.00  0.00    -0.031 C 
ATOM      6  C   UNL     1       2.329   0.111   1.185  0.00  0.00    +0.008 C 
ATOM      7  C   UNL     1       0.982  -0.525   1.548  0.00  0.00    +0.072 C 
ATOM      8  C   UNL     1       3.387  -0.317   2.204  0.00  0.00    +0.009 C 
ATOM      9  H   UNL     1       2.035  -0.207  -2.117  0.00  0.00    -0.084 HD
ATOM     10  H   UNL     1       1.608   1.054  -1.149  0.00  0.00    -0.084 HD
ENDROOT
BRANCH   5  11
ATOM     11  C   UNL     1       2.878  -1.855  -0.222  0.00  0.00    -0.016 A 
ATOM     12  C   UNL     1       1.766  -2.648  -0.011  0.00  0.00    +0.051 A 
ATOM     13  C   UNL     1       1.887  -4.029  -0.021  0.00  0.00    +0.121 A 
ATOM     14  C   UNL     1       3.125  -4.615  -0.242  0.00  0.00    +0.049 A 
ATOM     15  C   UNL     1       4.237  -3.823  -0.452  0.00  0.00    +0.049 A 
ATOM     16  C   UNL     1       4.114  -2.441  -0.448  0.00  0.00    +0.122 A 
BRANCH  16  17
ATOM     17  O   UNL     1       5.208  -1.661  -0.661  0.00  0.00    -0.495 OA
ATOM     18  C   UNL     1       6.449  -2.332  -0.887  0.00  0.00    +0.277 C 
ENDBRANCH  16  17
BRANCH  13  19
ATOM     19  O   UNL     1       0.793  -4.809   0.187  0.00  0.00    -0.495 OA
ATOM     20  C   UNL     1       0.991  -6.224   0.164  0.00  0.00    +0.277 C 
ENDBRANCH  13  19
ENDBRANCH   5  11
BRANCH   3  21
ATOM     21  C   UNL     1      -0.557  -0.244  -1.946  0.00  0.00    -0.016 A 
ATOM     22  C   UNL     1      -0.366   0.877  -2.729  0.00  0.00    +0.051 A 
ATOM     23  C   UNL     1      -1.298   1.212  -3.700  0.00  0.00    +0.121 A 
ATOM     24  C   UNL     1      -2.422   0.420  -3.885  0.00  0.00    +0.049 A 
ATOM     25  C   UNL     1      -2.613  -0.701  -3.101  0.00  0.00    +0.049 A 
ATOM     26  C   UNL     1      -1.678  -1.039  -2.134  0.00  0.00    +0.122 A 
BRANCH  26  27
ATOM     27  O   UNL     1      -1.863  -2.146  -1.367  0.00  0.00    -0.495 OA
ATOM     28  C   UNL     1      -3.040  -2.918  -1.615  0.00  0.00    +0.277 C 
ENDBRANCH  26  27
BRANCH  23  29
ATOM     29  O   UNL     1      -1.111   2.316  -4.471  0.00  0.00    -0.495 OA
ATOM     30  C   UNL     1      -2.111   2.601  -5.451  0.00  0.00    +0.277 C 
ENDBRANCH  23  29
ENDBRANCH   3  21
BRANCH   7  31
ATOM     31  O   UNL     1       1.123  -1.946   1.603  0.00  0.00    -0.388 OA
ATOM     32  H   UNL     1       1.763  -2.252   2.260  0.00  0.00    +0.210 HD
ENDBRANCH   7  31
BRANCH   7  33
ATOM     33  C   UNL     1       0.519  -0.003   2.910  0.00  0.00    +0.061 C 
BRANCH  33  34
ATOM     34  C   UNL     1      -0.835  -0.579   3.235  0.00  0.00    -0.032 C 
ATOM     35  C   UNL     1      -0.998  -1.298   4.317  0.00  0.00    +0.004 C 
ENDBRANCH  33  34
ENDBRANCH   7  33
TORSDOF 9
