REMARK  Name = ZINC35143653
REMARK  15 active torsions:
REMARK  status: ('A' for Active; 'I' for Inactive)
REMARK    1  A    between atoms: C_1  and  C_2
REMARK    2  A    between atoms: C_7  and  N_8
REMARK    3  A    between atoms: C_9  and  N_17
REMARK    4  A    between atoms: C_11  and  C_13
REMARK    5  A    between atoms: C_13  and  C_14
REMARK    6  A    between atoms: C_13  and  C_15
REMARK    7  A    between atoms: C_13  and  C_16
REMARK    8  A    between atoms: C_18  and  C_20
REMARK    9  A    between atoms: C_20  and  N_21
REMARK   10  A    between atoms: N_21  and  C_22
REMARK   11  A    between atoms: C_22  and  C_23
REMARK   12  A    between atoms: C_23  and  N_24
REMARK   13  A    between atoms: N_24  and  C_25
REMARK   14  A    between atoms: N_24  and  C_26
REMARK   15  A    between atoms: N_29  and  C_30
REMARK                            x       y       z     vdW  Elec       q    Type
REMARK                         _______ _______ _______ _____ _____    ______ ____
ROOT
ATOM      1  C   UNL     1       0.854  -3.504   5.610  0.00  0.00    +0.205 C 
ENDROOT
BRANCH   1   2
ATOM      2  N   UNL     1       0.932  -3.624   7.068  0.00  0.00    -0.279 N 
ATOM      3  C   UNL     1       2.125  -3.536   7.689  0.00  0.00    +0.303 C 
ATOM      4  O   UNL     1       3.137  -3.357   7.038  0.00  0.00    -0.253 OA
ATOM      5  N   UNL     1       2.197  -3.646   9.030  0.00  0.00    -0.294 N 
ATOM      6  H   UNL     1       1.390  -3.788   9.549  0.00  0.00    +0.151 HD
BRANCH   5   7
ATOM      7  C   UNL     1       3.494  -3.550   9.704  0.00  0.00    +0.037 C 
ATOM      8  C   UNL     1       4.418  -4.658   9.193  0.00  0.00    +0.029 C 
ATOM      9  C   UNL     1       5.772  -4.558   9.897  0.00  0.00    -0.008 C 
ATOM     10  C   UNL     1       5.575  -4.715  11.406  0.00  0.00    +0.007 C 
ATOM     11  C   UNL     1       4.652  -3.608  11.918  0.00  0.00    -0.008 C 
ATOM     12  C   UNL     1       3.297  -3.707  11.213  0.00  0.00    +0.029 C 
ATOM     13  C   UNL     1       5.280  -2.244  11.625  0.00  0.00    +0.007 C 
ATOM     14  C   UNL     1       5.477  -2.087  10.116  0.00  0.00    -0.008 C 
ATOM     15  C   UNL     1       6.400  -3.194   9.604  0.00  0.00    +0.007 C 
ATOM     16  C   UNL     1       4.122  -2.187   9.411  0.00  0.00    +0.029 C 
ENDBRANCH   5   7
BRANCH   2  17
ATOM     17  C   UNL     1      -0.287  -3.839   7.852  0.00  0.00    +0.091 C 
BRANCH  17  18
ATOM     18  C   UNL     1      -0.541  -5.340   7.998  0.00  0.00    -0.060 C 
BRANCH  18  19
ATOM     19  N   UNL     1      -1.763  -5.556   8.784  0.00  0.00    +0.377 N 
ATOM     20  C   UNL     1      -2.073  -6.991   8.824  0.00  0.00    -0.097 C 
ATOM     21  C   UNL     1      -1.560  -5.061  10.152  0.00  0.00    -0.097 C 
ATOM     22  H   UNL     1      -2.530  -5.058   8.357  0.00  0.00    -0.083 HD
ENDBRANCH  18  19
ENDBRANCH  17  18
ENDBRANCH   2  17
ENDBRANCH   1   2
BRANCH   1  24
ATOM     23  N   UNL     1       0.560  -1.706   3.937  0.00  0.00    -0.269 N 
ATOM     24  C   UNL     1       0.659  -2.058   5.234  0.00  0.00    +0.236 C 
ATOM     25  O   UNL     1       0.592  -1.210   6.099  0.00  0.00    -0.274 OA
ATOM     26  H   UNL     1       0.613  -2.384   3.245  0.00  0.00    +0.156 HD
BRANCH  23  28
ATOM     27  N   UNL     1       0.146   0.115   2.338  0.00  0.00    -0.218 N 
ATOM     28  C   UNL     1       0.380  -0.368   3.589  0.00  0.00    +0.129 A 
ATOM     29  C   UNL     1       0.404   0.695   4.439  0.00  0.00    +0.069 A 
ATOM     30  C   UNL     1       0.181   1.852   3.686  0.00  0.00    +0.071 A 
ATOM     31  N   UNL     1       0.032   1.508   2.432  0.00  0.00    -0.169 NA
BRANCH  27  38
ATOM     32  C   UNL     1      -2.054   0.609   0.602  0.00  0.00    +0.046 C 
ATOM     33  C   UNL     1      -1.014  -0.436   0.291  0.00  0.00    -0.025 A 
ATOM     34  C   UNL     1      -1.108  -1.183  -0.868  0.00  0.00    +0.005 A 
ATOM     35  C   UNL     1      -0.154  -2.142  -1.153  0.00  0.00    +0.000 A 
ATOM     36  C   UNL     1       0.897  -2.357  -0.281  0.00  0.00    +0.002 A 
ATOM     37  C   UNL     1       0.997  -1.614   0.879  0.00  0.00    +0.028 A 
ATOM     38  C   UNL     1       0.044  -0.645   1.165  0.00  0.00    +0.070 A 
ENDBRANCH  27  38
BRANCH  30  39
ATOM     39  C   UNL     1       0.126   3.257   4.226  0.00  0.00    +0.006 C 
ATOM     40  C   UNL     1       1.543   3.736   4.549  0.00  0.00    +0.017 C 
ATOM     41  C   UNL     1      -0.499   4.182   3.179  0.00  0.00    +0.017 C 
ATOM     42  C   UNL     1      -0.723   3.282   5.499  0.00  0.00    +0.017 C 
ENDBRANCH  30  39
ENDBRANCH  23  28
ENDBRANCH   1  24
TORSDOF 9
