REMARK  Name = ZINC51068562
REMARK  14 active torsions:
REMARK  status: ('A' for Active; 'I' for Inactive)
REMARK    1  A    between atoms: C_1  and  C_2
REMARK    2  A    between atoms: C_2  and  C_4
REMARK    3  A    between atoms: C_2  and  N_22
REMARK    4  A    between atoms: C_6  and  C_7
REMARK    5  A    between atoms: C_6  and  C_9
REMARK    6  A    between atoms: C_9  and  C_11
REMARK    7  A    between atoms: C_12  and  N_21
REMARK    8  A    between atoms: N_13  and  C_20
REMARK    9  A    between atoms: N_16  and  C_19
REMARK   10  A    between atoms: C_23  and  O_25
REMARK   11  A    between atoms: O_25  and  C_26
REMARK   12  A    between atoms: C_26  and  C_27
REMARK   13  A    between atoms: C_26  and  C_28
REMARK   14  A    between atoms: C_26  and  C_29
REMARK                            x       y       z     vdW  Elec       q    Type
REMARK                         _______ _______ _______ _____ _____    ______ ____
ROOT
ATOM      1  C   UNL     1      -2.716  -0.508  -0.752  0.00  0.00    +0.197 C 
ATOM      2  O   UNL     1      -3.794  -0.200  -0.009  0.00  0.00    -0.289 OA
ATOM      3  C   UNL     1      -2.874  -1.126  -1.956  0.00  0.00    +0.143 C 
ENDROOT
BRANCH   1   5
ATOM      4  C   UNL     1      -1.233   1.338  -0.016  0.00  0.00    +0.036 C 
ATOM      5  C   UNL     1      -1.335  -0.170  -0.253  0.00  0.00    +0.145 C 
BRANCH   5   6
ATOM      6  N   UNL     1      -1.083  -0.880   1.004  0.00  0.00    -0.271 N 
ATOM      7  C   UNL     1       0.181  -1.155   1.380  0.00  0.00    +0.401 C 
ATOM      8  O   UNL     1       1.112  -0.815   0.677  0.00  0.00    -0.226 OA
ATOM      9  H   UNL     1      -1.826  -1.152   1.565  0.00  0.00    +0.153 HD
BRANCH   7  10
ATOM     10  O   UNL     1       0.413  -1.808   2.535  0.00  0.00    -0.445 OA
BRANCH  10  11
ATOM     11  C   UNL     1       1.778  -2.066   2.871  0.00  0.00    +0.107 C 
ATOM     12  C   UNL     1       2.534  -0.742   2.989  0.00  0.00    +0.055 C 
ATOM     13  C   UNL     1       1.842  -2.810   4.207  0.00  0.00    +0.055 C 
ATOM     14  C   UNL     1       2.419  -2.925   1.779  0.00  0.00    +0.055 C 
ENDBRANCH  10  11
ENDBRANCH   7  10
ENDBRANCH   5   6
ENDBRANCH   1   5
BRANCH   3  15
ATOM     15  C   UNL     1      -4.175  -1.549  -2.380  0.00  0.00    +0.107 C 
ATOM     16  N   UNL     1      -5.207  -1.884  -2.716  0.00  0.00    -0.191 NA
ENDBRANCH   3  15
BRANCH   3  17
ATOM     17  C   UNL     1      -1.706  -1.359  -2.822  0.00  0.00    +0.215 C 
ATOM     18  O   UNL     1      -1.125  -0.415  -3.328  0.00  0.00    -0.285 OA
BRANCH  17  19
ATOM     19  C   UNL     1      -1.243  -2.726  -3.075  0.00  0.00    +0.125 A 
ATOM     20  C   UNL     1      -0.198  -2.973  -3.974  0.00  0.00    +0.116 A 
ATOM     21  N   UNL     1       0.206  -4.263  -4.183  0.00  0.00    -0.284 N 
ATOM     22  C   UNL     1      -0.388  -5.281  -3.537  0.00  0.00    +0.333 A 
ATOM     23  O   UNL     1      -0.007  -6.417  -3.744  0.00  0.00    -0.246 OA
ATOM     24  N   UNL     1      -1.392  -5.076  -2.668  0.00  0.00    -0.263 N 
ATOM     25  C   UNL     1      -1.839  -3.831  -2.409  0.00  0.00    +0.269 A 
ATOM     26  O   UNL     1      -2.747  -3.656  -1.616  0.00  0.00    -0.267 OA
ATOM     27  C   UNL     1      -2.006  -6.220  -1.990  0.00  0.00    +0.157 C 
ATOM     28  C   UNL     1       1.298  -4.538  -5.121  0.00  0.00    +0.155 C 
BRANCH  20  29
ATOM     29  N   UNL     1       0.406  -1.944  -4.631  0.00  0.00    -0.344 N 
ATOM     30  H   UNL     1       0.393  -1.052  -4.252  0.00  0.00    +0.144 HD
ATOM     31  H   UNL     1       0.850  -2.104  -5.479  0.00  0.00    +0.144 HD
ENDBRANCH  20  29
ENDBRANCH  17  19
ENDBRANCH   3  17
TORSDOF 8
