REMARK  Name = ZINC24756178
REMARK  11 active torsions:
REMARK  status: ('A' for Active; 'I' for Inactive)
REMARK    1  A    between atoms: C_1  and  C_2
REMARK    2  A    between atoms: C_3  and  N_9
REMARK    3  A    between atoms: C_13  and  S_15
REMARK    4  A    between atoms: S_15  and  C_16
REMARK    5  A    between atoms: C_16  and  C_17
REMARK    6  A    between atoms: N_22  and  C_25
REMARK    7  A    between atoms: C_25  and  C_26
REMARK    8  A    between atoms: N_28  and  C_29
REMARK    9  A    between atoms: C_29  and  C_30
REMARK   10  A    between atoms: C_29  and  C_31
REMARK   11  A    between atoms: C_29  and  C_32
REMARK                            x       y       z     vdW  Elec       q    Type
REMARK                         _______ _______ _______ _____ _____    ______ ____
ROOT
ATOM      1  C   UNL     1       5.576   3.590   9.148  0.00  0.00    +0.226 C 
ATOM      2  O   UNL     1       6.741   3.401   8.868  0.00  0.00    -0.275 OA
ATOM      3  N   UNL     1       5.241   4.041  10.373  0.00  0.00    -0.304 N 
ATOM      4  C   UNL     1       3.835   4.283  10.730  0.00  0.00    +0.089 C 
ATOM      5  C   UNL     1       3.542   3.557  12.052  0.00  0.00    -0.059 C 
ATOM      6  N   UNL     1       4.521   3.978  13.064  0.00  0.00    +0.387 N 
ATOM      7  C   UNL     1       5.884   3.589  12.680  0.00  0.00    -0.059 C 
ATOM      8  C   UNL     1       6.273   4.311  11.386  0.00  0.00    +0.089 C 
ATOM      9  H   UNL     1       4.490   5.076  13.122  0.00  0.00    -0.081 HD
ENDROOT
BRANCH   1  10
ATOM     10  C   UNL     1       4.503   3.320   8.125  0.00  0.00    +0.172 C 
BRANCH  10  11
ATOM     11  S   UNL     1       5.266   2.727   6.590  0.00  0.00    -0.088 S 
BRANCH  11  16
ATOM     12  N   UNL     1       1.384   1.594   2.435  0.00  0.00    -0.292 N 
ATOM     13  C   UNL     1       2.120   1.928   3.566  0.00  0.00    +0.187 A 
ATOM     14  N   UNL     1       1.701   2.372   4.734  0.00  0.00    -0.125 NA
ATOM     15  N   UNL     1       2.611   2.640   5.731  0.00  0.00    -0.133 NA
ATOM     16  C   UNL     1       3.899   2.461   5.510  0.00  0.00    +0.160 A 
ATOM     17  S   UNL     1       3.888   1.876   3.822  0.00  0.00    -0.024 S 
ATOM     18  H   UNL     1       1.901   1.331   1.500  0.00  0.00    +0.154 HD
BRANCH  12  21
ATOM     19  C   UNL     1      -0.048   1.262  -0.002  0.00  0.00    +0.047 C 
ATOM     20  C   UNL     1      -0.751   1.432   1.320  0.00  0.00    -0.011 A 
ATOM     21  C   UNL     1      -0.012   1.591   2.486  0.00  0.00    +0.037 A 
ATOM     22  C   UNL     1      -0.665   1.749   3.702  0.00  0.00    +0.023 A 
ATOM     23  C   UNL     1      -2.045   1.746   3.749  0.00  0.00    +0.003 A 
ATOM     24  C   UNL     1      -2.778   1.587   2.588  0.00  0.00    +0.020 A 
ATOM     25  C   UNL     1      -2.132   1.436   1.373  0.00  0.00    +0.046 A 
ATOM     26 CL   UNL     1      -3.057   1.244  -0.083  0.00  0.00    -0.083 Cl
ENDBRANCH  12  21
ENDBRANCH  11  16
ENDBRANCH  10  11
ENDBRANCH   1  10
BRANCH   6  27
ATOM     27  C   UNL     1       4.173   3.444  14.387  0.00  0.00    +0.019 C 
BRANCH  27  28
ATOM     28  C   UNL     1       2.878   4.058  14.853  0.00  0.00    +0.197 C 
ATOM     29  O   UNL     1       2.301   4.862  14.151  0.00  0.00    -0.278 OA
ATOM     30  N   UNL     1       2.361   3.714  16.049  0.00  0.00    -0.312 N 
ATOM     31  H   UNL     1       2.884   2.985  16.685  0.00  0.00    +0.149 HD
BRANCH  30  32
ATOM     32  C   UNL     1       1.102   4.311  16.501  0.00  0.00    +0.026 C 
ATOM     33  C   UNL     1      -0.010   3.973  15.506  0.00  0.00    +0.031 C 
ATOM     34  C   UNL     1       0.740   3.755  17.880  0.00  0.00    +0.031 C 
ATOM     35  C   UNL     1       1.261   5.831  16.590  0.00  0.00    +0.031 C 
ENDBRANCH  30  32
ENDBRANCH  27  28
ENDBRANCH   6  27
TORSDOF 7
