REMARK  Name = ZINC42036271
REMARK  5 active torsions:
REMARK  status: ('A' for Active; 'I' for Inactive)
REMARK    1  A    between atoms: C_1  and  C_2
REMARK    2  A    between atoms: C_2  and  C_3
REMARK    3  A    between atoms: C_2  and  N_4
REMARK    4  A    between atoms: C_5  and  C_8
REMARK    5  A    between atoms: N_6  and  N_7
REMARK                            x       y       z     vdW  Elec       q    Type
REMARK                         _______ _______ _______ _____ _____    ______ ____
ROOT
ATOM      1  N   UNL     1       0.711  -0.489   1.189  0.00  0.00    -0.369 N 
ATOM      2  C   UNL     1       0.071  -0.629   2.320  0.00  0.00    +0.120 C 
ATOM      3  N   UNL     1      -1.271  -0.319   2.396  0.00  0.00    -0.268 N 
ATOM      4  H   UNL     1      -1.741   0.002   1.610  0.00  0.00    +0.167 HD
ATOM      5  H   UNL     1       1.654  -0.707   1.135  0.00  0.00    +0.161 HD
ENDROOT
BRANCH   2   6
ATOM      6  C   UNL     1       0.783  -1.116   3.512  0.00  0.00    +0.051 A 
ATOM      7  C   UNL     1       0.299  -1.849   4.572  0.00  0.00    +0.022 A 
ATOM      8  C   UNL     1       1.211  -2.178   5.581  0.00  0.00    -0.036 A 
ATOM      9  C   UNL     1       2.484  -1.742   5.415  0.00  0.00    -0.006 A 
ATOM     10  S   UNL     1       2.497  -0.920   3.955  0.00  0.00    -0.090 S 
ATOM     11  C   UNL     1       3.369  -2.150   6.564  0.00  0.00    +0.043 C 
ATOM     12  C   UNL     1       2.390  -2.536   7.694  0.00  0.00    +0.010 C 
ATOM     13  C   UNL     1       1.137  -2.953   6.899  0.00  0.00    +0.036 C 
ENDBRANCH   2   6
BRANCH   1  15
ATOM     14  C   UNL     1      -0.019   1.526   0.010  0.00  0.00    +0.030 C 
ATOM     15  C   UNL     1       0.002  -0.004   0.002  0.00  0.00    +0.074 C 
ATOM     16  C   UNL     1       0.718  -0.497  -1.257  0.00  0.00    +0.030 C 
ENDBRANCH   1  15
BRANCH   3  17
ATOM     17  N   UNL     1      -1.940  -0.466   3.579  0.00  0.00    -0.255 NA
ATOM     18  H   UNL     1      -1.494   0.062   4.314  0.00  0.00    +0.140 HD
ATOM     19  H   UNL     1      -2.909  -0.202   3.481  0.00  0.00    +0.140 HD
ENDBRANCH   3  17
TORSDOF 3
