REMARK  Name = ZINC42036945
REMARK  7 active torsions:
REMARK  status: ('A' for Active; 'I' for Inactive)
REMARK    1  A    between atoms: C_1  and  C_2
REMARK    2  A    between atoms: C_5  and  C_8
REMARK    3  A    between atoms: N_9  and  N_10
REMARK    4  A    between atoms: N_11  and  C_12
REMARK    5  A    between atoms: C_12  and  C_13
REMARK    6  A    between atoms: C_12  and  C_14
REMARK    7  A    between atoms: C_12  and  C_15
REMARK                            x       y       z     vdW  Elec       q    Type
REMARK                         _______ _______ _______ _____ _____    ______ ____
ROOT
ATOM      1  C   UNL     1       0.317  -4.586  -0.475  0.00  0.00    +0.118 C 
ATOM      2  N   UNL     1       0.569  -5.400  -1.459  0.00  0.00    -0.300 N 
ATOM      3  N   UNL     1       0.545  -4.990   0.840  0.00  0.00    -0.324 N 
ATOM      4  H   UNL     1       0.430  -4.359   1.568  0.00  0.00    +0.148 HD
ATOM      5  H   UNL     1       0.835  -6.315  -1.276  0.00  0.00    +0.185 HD
ENDROOT
BRANCH   1  10
ATOM      6  C   UNL     1      -1.646   0.690  -1.430  0.00  0.00    +0.065 C 
ATOM      7  C   UNL     1      -1.141  -0.711  -1.198  0.00  0.00    +0.038 A 
ATOM      8  C   UNL     1      -1.544  -1.729  -2.045  0.00  0.00    +0.024 A 
ATOM      9  C   UNL     1      -1.078  -3.014  -1.829  0.00  0.00    +0.014 A 
ATOM     10  C   UNL     1      -0.210  -3.233  -0.752  0.00  0.00    +0.032 A 
ATOM     11  C   UNL     1       0.148  -2.153   0.055  0.00  0.00    +0.122 A 
ATOM     12  N   UNL     1      -0.318  -0.946  -0.194  0.00  0.00    -0.259 NA
ENDBRANCH   1  10
BRANCH   3  13
ATOM     13  C   UNL     1       0.958  -6.367   1.123  0.00  0.00    +0.025 C 
ATOM     14  C   UNL     1       2.313  -6.638   0.466  0.00  0.00    +0.031 C 
ATOM     15  C   UNL     1       1.075  -6.564   2.635  0.00  0.00    +0.031 C 
ATOM     16  C   UNL     1      -0.084  -7.337   0.561  0.00  0.00    +0.031 C 
ENDBRANCH   3  13
BRANCH   2  17
ATOM     17  N   UNL     1       0.455  -4.956  -2.783  0.00  0.00    -0.304 N 
ATOM     18  H   UNL     1       0.405  -4.006  -2.973  0.00  0.00    +0.162 HD
ATOM     19  H   UNL     1       0.426  -5.598  -3.509  0.00  0.00    +0.162 HD
ENDBRANCH   2  17
TORSDOF 3
