REMARK  Name = ZINC58131949
REMARK  6 active torsions:
REMARK  status: ('A' for Active; 'I' for Inactive)
REMARK    1  A    between atoms: C_4  and  C_6
REMARK    2  A    between atoms: C_4  and  N_18
REMARK    3  A    between atoms: C_6  and  N_7
REMARK    4  A    between atoms: C_8  and  C_10
REMARK    5  A    between atoms: C_10  and  N_11
REMARK    6  A    between atoms: N_14  and  C_15
REMARK                            x       y       z     vdW  Elec       q    Type
REMARK                         _______ _______ _______ _____ _____    ______ ____
ROOT
ATOM      1  N   UNL     1       3.152  -1.973  -0.020  0.00  0.00    -0.315 N 
ATOM      2  C   UNL     1       3.838  -2.825   0.767  0.00  0.00    +0.230 C 
ATOM      3  O   UNL     1       3.446  -3.062   1.890  0.00  0.00    -0.274 OA
ATOM      4  H   UNL     1       3.466  -1.782  -0.918  0.00  0.00    +0.149 HD
ENDROOT
BRANCH   1   5
ATOM      5  C   UNL     1       1.932  -1.334   0.480  0.00  0.00    +0.092 C 
BRANCH   5   9
ATOM      6  C   UNL     1       0.239   1.728  -0.115  0.00  0.00    -0.001 C 
ATOM      7  C   UNL     1       1.774   1.903   0.002  0.00  0.00    -0.001 C 
ATOM      8  C   UNL     1       2.317   0.751  -0.878  0.00  0.00    -0.010 C 
ATOM      9  C   UNL     1       1.353  -0.422  -0.604  0.00  0.00    -0.050 C 
ATOM     10  C   UNL     1       0.032   0.200  -0.119  0.00  0.00    -0.010 C 
BRANCH   9  11
ATOM     11  N   UNL     1       1.127  -1.186  -1.838  0.00  0.00    +0.386 N 
ATOM     12  C   UNL     1       0.477  -0.322  -2.825  0.00  0.00    -0.067 C 
ATOM     13  C   UNL     1       0.567  -0.961  -4.216  0.00  0.00    +0.050 C 
ATOM     14  S   UNL     1      -0.327  -2.546  -4.175  0.00  0.00    -0.164 S 
ATOM     15  C   UNL     1       0.361  -3.353  -2.696  0.00  0.00    +0.050 C 
ATOM     16  C   UNL     1       0.302  -2.357  -1.532  0.00  0.00    -0.067 C 
ATOM     17  H   UNL     1       2.015  -1.495  -2.203  0.00  0.00    -0.081 HD
ENDBRANCH   9  11
ENDBRANCH   5   9
ENDBRANCH   1   5
BRANCH   2  18
ATOM     18  C   UNL     1       5.093  -3.482   0.253  0.00  0.00    +0.201 C 
BRANCH  18  19
ATOM     19  N   UNL     1       5.648  -4.355   1.291  0.00  0.00    -0.291 N 
ATOM     20  C   UNL     1       6.777  -5.050   1.053  0.00  0.00    +0.300 C 
ATOM     21  O   UNL     1       7.337  -4.953  -0.022  0.00  0.00    -0.253 OA
ATOM     22  N   UNL     1       7.287  -5.854   2.008  0.00  0.00    -0.297 N 
ATOM     23  H   UNL     1       5.201  -4.433   2.148  0.00  0.00    +0.151 HD
ATOM     24  H   UNL     1       6.841  -5.931   2.865  0.00  0.00    +0.151 HD
BRANCH  22  25
ATOM     25  C   UNL     1       8.515  -6.610   1.750  0.00  0.00    +0.075 C 
ATOM     26  C   UNL     1       8.553  -8.072   2.199  0.00  0.00    +0.024 C 
ATOM     27  C   UNL     1       9.361  -7.017   2.958  0.00  0.00    +0.024 C 
ENDBRANCH  22  25
ENDBRANCH  18  19
ENDBRANCH   2  18
TORSDOF 6
