REMARK  Name = ZINC35000869
REMARK  12 active torsions:
REMARK  status: ('A' for Active; 'I' for Inactive)
REMARK    1  A    between atoms: C_1  and  C_2
REMARK    2  A    between atoms: C_2  and  C_41
REMARK    3  A    between atoms: C_7  and  C_11
REMARK    4  A    between atoms: C_11  and  N_12
REMARK    5  A    between atoms: N_12  and  C_13
REMARK    6  A    between atoms: C_13  and  C_14
REMARK    7  A    between atoms: C_14  and  N_15
REMARK    8  A    between atoms: N_23  and  C_24
REMARK    9  A    between atoms: N_36  and  C_37
REMARK   10  A    between atoms: C_37  and  C_38
REMARK   11  A    between atoms: C_37  and  C_39
REMARK   12  A    between atoms: C_37  and  C_40
REMARK                            x       y       z     vdW  Elec       q    Type
REMARK                         _______ _______ _______ _____ _____    ______ ____
ROOT
ATOM      1  C   UNL     1       4.324  -0.883   4.799  0.00  0.00    -0.059 C 
ENDROOT
BRANCH   1   2
ATOM      2  N   UNL     1       5.115  -2.088   4.515  0.00  0.00    +0.383 N 
ATOM      3  C   UNL     1       4.724  -3.158   5.442  0.00  0.00    -0.059 C 
ATOM      4  C   UNL     1       5.465  -4.447   5.074  0.00  0.00    +0.091 C 
ATOM      5  N   UNL     1       6.908  -4.165   5.047  0.00  0.00    -0.289 N 
ATOM      6  C   UNL     1       7.373  -3.005   4.271  0.00  0.00    +0.091 C 
ATOM      7  C   UNL     1       6.542  -1.783   4.677  0.00  0.00    -0.059 C 
ATOM      8  C   UNL     1       7.779  -4.946   5.716  0.00  0.00    +0.306 C 
ATOM      9  O   UNL     1       7.370  -5.843   6.427  0.00  0.00    -0.252 OA
ATOM     10  N   UNL     1       9.105  -4.732   5.596  0.00  0.00    -0.269 N 
ATOM     11  H   UNL     1       9.430  -3.977   5.081  0.00  0.00    +0.156 HD
ATOM     12  H   UNL     1       4.941  -2.387   3.567  0.00  0.00    -0.082 HD
BRANCH  10  13
ATOM     13  C   UNL     1      10.010  -5.598   6.213  0.00  0.00    +0.042 A 
ATOM     14  C   UNL     1       9.608  -6.853   6.615  0.00  0.00    +0.024 A 
ATOM     15  C   UNL     1      10.502  -7.724   7.232  0.00  0.00    +0.002 A 
ATOM     16  C   UNL     1      11.795  -7.361   7.455  0.00  0.00    +0.008 A 
ATOM     17  C   UNL     1      12.245  -6.090   7.060  0.00  0.00    -0.016 A 
ATOM     18  C   UNL     1      11.346  -5.198   6.426  0.00  0.00    +0.003 A 
ATOM     19  C   UNL     1      11.799  -3.930   6.027  0.00  0.00    +0.010 A 
ATOM     20  C   UNL     1      13.095  -3.577   6.248  0.00  0.00    +0.001 A 
ATOM     21  C   UNL     1      13.982  -4.457   6.866  0.00  0.00    +0.001 A 
ATOM     22  C   UNL     1      13.575  -5.689   7.277  0.00  0.00    +0.008 A 
ENDBRANCH  10  13
ENDBRANCH   1   2
BRANCH   1  23
ATOM     23  C   UNL     1       2.848  -1.163   4.511  0.00  0.00    +0.091 C 
BRANCH  23  24
ATOM     24  N   UNL     1       2.059   0.039   4.794  0.00  0.00    -0.283 N 
ATOM     25  C   UNL     1       1.548   0.235   6.026  0.00  0.00    +0.303 C 
ATOM     26  O   UNL     1       1.743  -0.585   6.902  0.00  0.00    -0.253 OA
ATOM     27  N   UNL     1       0.823   1.341   6.287  0.00  0.00    -0.294 N 
ATOM     28  H   UNL     1       0.668   1.995   5.588  0.00  0.00    +0.151 HD
BRANCH  27  29
ATOM     29  C   UNL     1       0.268   1.554   7.626  0.00  0.00    +0.028 C 
ATOM     30  C   UNL     1       1.407   1.610   8.646  0.00  0.00    +0.031 C 
ATOM     31  C   UNL     1      -0.507   2.873   7.653  0.00  0.00    +0.031 C 
ATOM     32  C   UNL     1      -0.675   0.402   7.977  0.00  0.00    +0.031 C 
ENDBRANCH  27  29
BRANCH  24  33
ATOM     33  C   UNL     1       1.825   1.027   3.739  0.00  0.00    +0.140 C 
BRANCH  33  39
ATOM     34  C   UNL     1      -0.149   1.708   0.450  0.00  0.00    +0.012 C 
ATOM     35  C   UNL     1      -0.268   0.197   0.660  0.00  0.00    -0.025 C 
ATOM     36  C   UNL     1      -1.491  -0.222   1.500  0.00  0.00    -0.000 C 
ATOM     37  C   UNL     1      -1.832   0.852   2.541  0.00  0.00    +0.031 C 
ATOM     38  C   UNL     1      -0.591   1.222   3.316  0.00  0.00    -0.025 C 
ATOM     39  C   UNL     1       0.561   0.679   2.996  0.00  0.00    -0.053 C 
ATOM     40  C   UNL     1       0.570  -0.336   1.837  0.00  0.00    +0.022 C 
ATOM     41  C   UNL     1      -0.588  -1.343   2.044  0.00  0.00    +0.012 C 
ATOM     42  C   UNL     1      -0.097  -0.602  -0.633  0.00  0.00    +0.012 C 
ENDBRANCH  33  39
ENDBRANCH  24  33
ENDBRANCH  23  24
ENDBRANCH   1  23
TORSDOF 7
