REMARK  Name = ZINC16284995
REMARK  12 active torsions:
REMARK  status: ('A' for Active; 'I' for Inactive)
REMARK    1  A    between atoms: C_1  and  C_2
REMARK    2  A    between atoms: C_5  and  O_9
REMARK    3  A    between atoms: C_6  and  C_8
REMARK    4  A    between atoms: O_9  and  C_10
REMARK    5  A    between atoms: C_10  and  C_11
REMARK    6  A    between atoms: N_13  and  C_14
REMARK    7  A    between atoms: C_14  and  N_16
REMARK    8  A    between atoms: N_16  and  C_17
REMARK    9  A    between atoms: C_22  and  C_23
REMARK   10  A    between atoms: N_25  and  C_27
REMARK   11  A    between atoms: C_30  and  O_34
REMARK   12  A    between atoms: O_34  and  C_35
REMARK                            x       y       z     vdW  Elec       q    Type
REMARK                         _______ _______ _______ _____ _____    ______ ____
ROOT
ATOM      1  C   UNL     1      -2.371   1.609  -0.071  0.00  0.00    +0.038 A 
ATOM      2  C   UNL     1      -2.286   0.247  -0.075  0.00  0.00    +0.055 A 
ATOM      3  C   UNL     1      -3.462  -0.518  -0.161  0.00  0.00    +0.115 A 
ATOM      4  C   UNL     1      -4.755   0.177  -0.257  0.00  0.00    +0.114 A 
ATOM      5  C   UNL     1      -4.772   1.583  -0.253  0.00  0.00    +0.037 A 
ATOM      6  C   UNL     1      -3.604   2.268  -0.161  0.00  0.00    -0.027 A 
ATOM      7  C   UNL     1      -3.634   3.774  -0.158  0.00  0.00    +0.046 C 
ATOM      8  N   UNL     1      -5.653  -0.793  -0.329  0.00  0.00    -0.147 NA
ATOM      9  N   UNL     1      -5.046  -1.927  -0.287  0.00  0.00    -0.149 N 
ATOM     10  N   UNL     1      -3.768  -1.806  -0.190  0.00  0.00    -0.147 NA
ENDROOT
BRANCH   9  11
ATOM     11  C   UNL     1      -5.705  -3.162  -0.342  0.00  0.00    +0.088 A 
ATOM     12  C   UNL     1      -7.090  -3.207  -0.443  0.00  0.00    +0.033 A 
ATOM     13  C   UNL     1      -7.739  -4.423  -0.501  0.00  0.00    +0.049 A 
ATOM     14  C   UNL     1      -7.010  -5.603  -0.450  0.00  0.00    +0.138 A 
ATOM     15  C   UNL     1      -5.626  -5.560  -0.345  0.00  0.00    +0.085 A 
ATOM     16  C   UNL     1      -4.975  -4.343  -0.291  0.00  0.00    +0.053 A 
ATOM     17 CL   UNL     1      -4.714  -7.035  -0.280  0.00  0.00    -0.080 Cl
BRANCH  14  18
ATOM     18  O   UNL     1      -7.650  -6.800  -0.503  0.00  0.00    -0.494 OA
ATOM     19  C   UNL     1      -9.075  -6.770  -0.612  0.00  0.00    +0.277 C 
ENDBRANCH  14  18
ENDBRANCH   9  11
BRANCH   1  20
ATOM     20  N   UNL     1      -1.197   2.366   0.021  0.00  0.00    -0.296 N 
ATOM     21  H   UNL     1      -1.067   3.130  -0.562  0.00  0.00    +0.154 HD
BRANCH  20  22
ATOM     22  C   UNL     1      -0.249   2.032   0.918  0.00  0.00    +0.141 C 
ATOM     23  S   UNL     1      -0.537   0.772   2.040  0.00  0.00    -0.018 S 
BRANCH  22  26
ATOM     24  C   UNL     1       1.880   2.350   1.822  0.00  0.00    +0.256 C 
ATOM     25  O   UNL     1       1.676   1.458   2.617  0.00  0.00    -0.272 OA
ATOM     26  N   UNL     1       0.929   2.687   0.928  0.00  0.00    -0.265 N 
ATOM     27  H   UNL     1       1.093   3.401   0.292  0.00  0.00    +0.157 HD
BRANCH  24  28
ATOM     28  C   UNL     1       3.197   3.083   1.833  0.00  0.00    +0.325 C 
BRANCH  28  29
ATOM     29  O   UNL     1       4.031   2.547   2.863  0.00  0.00    -0.483 OA
BRANCH  29  34
ATOM     30  C   UNL     1       9.139   4.841   3.468  0.00  0.00    +0.044 C 
ATOM     31  C   UNL     1       7.773   4.227   3.306  0.00  0.00    -0.050 A 
ATOM     32  C   UNL     1       6.916   4.699   2.328  0.00  0.00    +0.007 A 
ATOM     33  C   UNL     1       5.662   4.138   2.178  0.00  0.00    +0.046 A 
ATOM     34  C   UNL     1       5.263   3.100   3.009  0.00  0.00    +0.124 A 
ATOM     35  C   UNL     1       6.123   2.633   3.992  0.00  0.00    -0.009 A 
ATOM     36  C   UNL     1       7.378   3.194   4.135  0.00  0.00    +0.010 A 
ATOM     37  C   UNL     1       5.691   1.511   4.900  0.00  0.00    +0.047 C 
ENDBRANCH  29  34
ENDBRANCH  28  29
ENDBRANCH  24  28
ENDBRANCH  22  26
ENDBRANCH  20  22
ENDBRANCH   1  20
TORSDOF 8
