REMARK  Name = ZINC03244487
REMARK  10 active torsions:
REMARK  status: ('A' for Active; 'I' for Inactive)
REMARK    1  A    between atoms: C_1  and  C_2
REMARK    2  A    between atoms: C_5  and  O_36
REMARK    3  A    between atoms: C_6  and  N_8
REMARK    4  A    between atoms: C_9  and  C_11
REMARK    5  A    between atoms: C_11  and  C_13
REMARK    6  A    between atoms: C_11  and  O_19
REMARK    7  A    between atoms: O_19  and  C_20
REMARK    8  A    between atoms: C_20  and  C_22
REMARK    9  A    between atoms: C_35  and  N_66
REMARK   10  A    between atoms: O_36  and  C_37
REMARK                            x       y       z     vdW  Elec       q    Type
REMARK                         _______ _______ _______ _____ _____    ______ ____
ROOT
ATOM      1  C   UNL     1       4.126   5.602   1.087  0.00  0.00    +0.292 C 
ENDROOT
BRANCH   1   2
ATOM      2  C   UNL     1       5.320   4.685   1.032  0.00  0.00    +0.002 A 
ATOM      3  C   UNL     1       5.314   3.498   1.741  0.00  0.00    +0.008 A 
ATOM      4  C   UNL     1       6.408   2.655   1.686  0.00  0.00    +0.000 A 
ATOM      5  C   UNL     1       7.512   3.003   0.930  0.00  0.00    +0.000 A 
ATOM      6  C   UNL     1       7.520   4.192   0.225  0.00  0.00    +0.000 A 
ATOM      7  C   UNL     1       6.424   5.033   0.276  0.00  0.00    +0.008 A 
ENDBRANCH   1   2
BRANCH   1   9
ATOM      8  N   UNL     1       5.227   7.388   2.397  0.00  0.00    -0.279 N 
ATOM      9  C   UNL     1       4.229   6.488   2.302  0.00  0.00    +0.263 C 
ATOM     10  O   UNL     1       3.413   6.391   3.194  0.00  0.00    -0.271 OA
ATOM     11  H   UNL     1       5.925   7.411   1.724  0.00  0.00    +0.155 HD
BRANCH   8  17
ATOM     12  C   UNL     1       2.842   9.882   5.900  0.00  0.00    +0.044 C 
ATOM     13  C   UNL     1       4.118   9.517   5.185  0.00  0.00    -0.048 A 
ATOM     14  C   UNL     1       5.318  10.073   5.588  0.00  0.00    +0.007 A 
ATOM     15  C   UNL     1       6.491   9.742   4.936  0.00  0.00    +0.048 A 
ATOM     16  C   UNL     1       6.467   8.851   3.875  0.00  0.00    +0.141 A 
ATOM     17  C   UNL     1       5.258   8.290   3.469  0.00  0.00    +0.076 A 
ATOM     18  C   UNL     1       4.084   8.632   4.124  0.00  0.00    +0.030 A 
BRANCH  16  19
ATOM     19  O   UNL     1       7.620   8.525   3.233  0.00  0.00    -0.493 OA
ATOM     20  C   UNL     1       8.821   9.138   3.704  0.00  0.00    +0.277 C 
ENDBRANCH  16  19
ENDBRANCH   8  17
ENDBRANCH   1   9
BRANCH   1  21
ATOM     21  O   UNL     1       2.911   4.811   1.167  0.00  0.00    -0.444 OA
BRANCH  21  22
ATOM     22  C   UNL     1       2.331   4.461   0.002  0.00  0.00    +0.341 C 
ATOM     23  O   UNL     1       2.827   4.808  -1.051  0.00  0.00    -0.245 OA
BRANCH  22  24
ATOM     24  C   UNL     1       1.092   3.656   0.006  0.00  0.00    +0.071 A 
ATOM     25  C   UNL     1      -0.181   4.277   0.032  0.00  0.00    +0.015 A 
ATOM     26  C   UNL     1      -0.315   5.671   0.054  0.00  0.00    +0.011 A 
ATOM     27  C   UNL     1      -1.559   6.228   0.079  0.00  0.00    +0.001 A 
ATOM     28  C   UNL     1      -2.699   5.427   0.082  0.00  0.00    +0.002 A 
ATOM     29  C   UNL     1      -2.604   4.070   0.061  0.00  0.00    +0.028 A 
ATOM     30  C   UNL     1      -1.337   3.459   0.036  0.00  0.00    +0.072 A 
ATOM     31  N   UNL     1      -1.211   2.132   0.020  0.00  0.00    -0.251 NA
ATOM     32  C   UNL     1      -0.040   1.532  -0.009  0.00  0.00    +0.042 A 
ATOM     33  C   UNL     1       1.143   2.264  -0.016  0.00  0.00    -0.028 A 
ATOM     34  C   UNL     1       2.494   1.600  -0.048  0.00  0.00    -0.041 C 
ATOM     35  C   UNL     1       1.351  -0.478  -0.474  0.00  0.00    -0.073 C 
ATOM     36  C   UNL     1      -0.022   0.023  -0.027  0.00  0.00    +0.037 C 
ATOM     37  C   UNL     1       3.675  -0.495   0.212  0.00  0.00    -0.096 C 
ATOM     38  N   UNL     1       2.370   0.191   0.358  0.00  0.00    +0.381 N 
ATOM     39  H   UNL     1       2.080   0.149   1.342  0.00  0.00    -0.082 HD
ENDBRANCH  22  24
ENDBRANCH  21  22
ENDBRANCH   1  21
TORSDOF 7
