REMARK  Name = ZINC34685743
REMARK  10 active torsions:
REMARK  status: ('A' for Active; 'I' for Inactive)
REMARK    1  A    between atoms: C_1  and  C_2
REMARK    2  A    between atoms: C_9  and  C_11
REMARK    3  A    between atoms: C_14  and  C_16
REMARK    4  A    between atoms: C_16  and  O_17
REMARK    5  A    between atoms: O_17  and  C_18
REMARK    6  A    between atoms: C_24  and  C_35
REMARK    7  A    between atoms: C_29  and  C_31
REMARK    8  A    between atoms: C_31  and  C_32
REMARK    9  A    between atoms: C_32  and  C_33
REMARK   10  A    between atoms: C_32  and  C_34
REMARK                            x       y       z     vdW  Elec       q    Type
REMARK                         _______ _______ _______ _____ _____    ______ ____
ROOT
ATOM      1  C   UNL     1      -1.143  -8.762   2.656  0.00  0.00    +0.122 A 
ATOM      2  C   UNL     1       0.107  -9.331   2.461  0.00  0.00    +0.046 A 
ATOM      3  C   UNL     1       0.529 -10.354   3.282  0.00  0.00    +0.007 A 
ATOM      4  C   UNL     1      -0.285 -10.821   4.308  0.00  0.00    -0.040 A 
ATOM      5  C   UNL     1      -1.522 -10.251   4.508  0.00  0.00    -0.016 A 
ATOM      6  C   UNL     1      -1.951  -9.221   3.683  0.00  0.00    +0.051 A 
ATOM      7  C   UNL     1      -2.442 -10.689   5.620  0.00  0.00    +0.137 C 
ATOM      8  N   UNL     1      -1.944 -11.936   6.210  0.00  0.00    -0.290 N 
ATOM      9  C   UNL     1      -0.501 -12.023   6.488  0.00  0.00    +0.113 C 
ATOM     10  C   UNL     1       0.239 -11.953   5.153  0.00  0.00    +0.054 C 
ATOM     11  C   UNL     1      -2.774 -12.961   6.488  0.00  0.00    +0.217 C 
ATOM     12  O   UNL     1      -3.959 -12.863   6.249  0.00  0.00    -0.276 OA
ENDROOT
BRANCH   7  13
ATOM     13  C   UNL     1      -2.495  -9.619   6.679  0.00  0.00    -0.023 A 
ATOM     14  C   UNL     1      -3.712  -9.098   7.076  0.00  0.00    +0.006 A 
ATOM     15  C   UNL     1      -3.760  -8.117   8.049  0.00  0.00    +0.000 A 
ATOM     16  C   UNL     1      -2.591  -7.656   8.624  0.00  0.00    +0.000 A 
ATOM     17  C   UNL     1      -1.373  -8.178   8.228  0.00  0.00    +0.000 A 
ATOM     18  C   UNL     1      -1.325  -9.162   7.259  0.00  0.00    +0.006 A 
ENDBRANCH   7  13
BRANCH   1  19
ATOM     19  O   UNL     1      -1.570  -7.755   1.849  0.00  0.00    -0.483 OA
BRANCH  19  20
ATOM     20  C   UNL     1      -0.682  -7.335   0.812  0.00  0.00    +0.324 C 
BRANCH  20  24
ATOM     21  C   UNL     1      -1.922  -4.253  -0.635  0.00  0.00    +0.164 A 
ATOM     22  C   UNL     1      -2.477  -5.162  -1.482  0.00  0.00    +0.230 A 
ATOM     23  O   UNL     1      -2.094  -6.377  -1.058  0.00  0.00    -0.444 OA
ATOM     24  C   UNL     1      -1.320  -6.219   0.025  0.00  0.00    +0.234 A 
ATOM     25  N   UNL     1      -1.204  -4.952   0.287  0.00  0.00    -0.206 NA
BRANCH  21  33
ATOM     26  C   UNL     1      -0.013   1.538  -0.022  0.00  0.00    -0.012 C 
ATOM     27  C   UNL     1       0.021   0.009  -0.043  0.00  0.00    -0.057 C 
ATOM     28  C   UNL     1      -1.411  -0.534   0.010  0.00  0.00    +0.092 C 
ATOM     29  N   UNL     1      -1.350  -2.000   0.121  0.00  0.00    -0.300 N 
ATOM     30  C   UNL     1      -0.487  -2.581   1.161  0.00  0.00    +0.089 C 
ATOM     31  C   UNL     1       0.901  -1.941   1.054  0.00  0.00    -0.063 C 
ATOM     32  N   UNL     1       0.772  -0.480   1.120  0.00  0.00    +0.383 N 
ATOM     33  C   UNL     1      -2.065  -2.788  -0.706  0.00  0.00    +0.268 C 
ATOM     34  O   UNL     1      -2.828  -2.290  -1.512  0.00  0.00    -0.268 OA
ATOM     35  H   UNL     1       1.690  -0.062   1.126  0.00  0.00    -0.085 HD
ATOM     36  H   UNL     1       0.284  -0.225   1.966  0.00  0.00    -0.085 HD
ENDBRANCH  21  33
ENDBRANCH  20  24
ENDBRANCH  19  20
ENDBRANCH   1  19
BRANCH  11  37
ATOM     37  C   UNL     1      -2.230 -14.228   7.095  0.00  0.00    +0.099 C 
BRANCH  37  38
ATOM     38  C   UNL     1      -3.372 -15.223   7.308  0.00  0.00    -0.008 C 
ATOM     39  C   UNL     1      -3.947 -15.638   5.952  0.00  0.00    +0.008 C 
ATOM     40  C   UNL     1      -2.843 -16.460   8.037  0.00  0.00    +0.008 C 
ENDBRANCH  37  38
ENDBRANCH  11  37
TORSDOF 7
