REMARK  Name = ZINC67324818
REMARK  7 active torsions:
REMARK  status: ('A' for Active; 'I' for Inactive)
REMARK    1  A    between atoms: C_1  and  C_2
REMARK    2  A    between atoms: C_7  and  C_11
REMARK    3  A    between atoms: C_11  and  N_12
REMARK    4  A    between atoms: N_15  and  C_16
REMARK    5  A    between atoms: C_20  and  N_22
REMARK    6  A    between atoms: C_23  and  O_25
REMARK    7  A    between atoms: O_25  and  C_26
REMARK                            x       y       z     vdW  Elec       q    Type
REMARK                         _______ _______ _______ _____ _____    ______ ____
ROOT
ATOM      1  N   UNL     1       1.501  -5.873   2.628  0.00  0.00    -0.294 N 
ATOM      2  C   UNL     1       1.758  -7.004   3.316  0.00  0.00    +0.304 C 
ATOM      3  O   UNL     1       0.845  -7.735   3.646  0.00  0.00    -0.252 OA
ATOM      4  N   UNL     1       3.027  -7.323   3.638  0.00  0.00    -0.269 N 
ATOM      5  H   UNL     1       2.229  -5.290   2.365  0.00  0.00    +0.151 HD
ATOM      6  H   UNL     1       3.761  -6.775   3.318  0.00  0.00    +0.156 HD
ENDROOT
BRANCH   4   7
ATOM      7  C   UNL     1       3.287  -8.446   4.433  0.00  0.00    +0.037 A 
ATOM      8  C   UNL     1       2.500  -9.583   4.307  0.00  0.00    +0.026 A 
ATOM      9  C   UNL     1       2.754 -10.692   5.091  0.00  0.00    +0.042 A 
ATOM     10  C   UNL     1       3.794 -10.673   6.004  0.00  0.00    +0.145 A 
ATOM     11  C   UNL     1       4.585  -9.537   6.134  0.00  0.00    +0.073 A 
ATOM     12  C   UNL     1       4.334  -8.425   5.343  0.00  0.00    +0.049 A 
ATOM     13  F   UNL     1       4.041 -11.758   6.769  0.00  0.00    -0.204 F 
BRANCH  11  14
ATOM     14  N   UNL     1       5.637  -9.517   7.058  0.00  0.00    -0.248 N 
ATOM     15  C   UNL     1       5.948  -8.373   7.701  0.00  0.00    +0.404 C 
ATOM     16  O   UNL     1       5.370  -7.342   7.420  0.00  0.00    -0.226 OA
ATOM     17  H   UNL     1       6.142 -10.325   7.235  0.00  0.00    +0.158 HD
BRANCH  15  18
ATOM     18  O   UNL     1       6.898  -8.375   8.655  0.00  0.00    -0.453 OA
ATOM     19  C   UNL     1       7.176  -7.128   9.295  0.00  0.00    +0.282 C 
ENDBRANCH  15  18
ENDBRANCH  11  14
ENDBRANCH   4   7
BRANCH   1  20
ATOM     20  C   UNL     1       0.121  -5.526   2.279  0.00  0.00    +0.160 C 
BRANCH  20  27
ATOM     21  C   UNL     1       0.046   1.500  -0.064  0.00  0.00    +0.044 C 
ATOM     22  C   UNL     1       0.062  -0.007  -0.063  0.00  0.00    -0.046 A 
ATOM     23  C   UNL     1       0.068  -0.713  -1.278  0.00  0.00    +0.021 A 
ATOM     24  C   UNL     1       0.083  -2.063  -1.281  0.00  0.00    +0.093 A 
ATOM     25  N   UNL     1       0.091  -2.760  -0.108  0.00  0.00    -0.308 N 
ATOM     26  C   UNL     1       0.105  -4.100   0.172  0.00  0.00    +0.115 A 
ATOM     27  C   UNL     1       0.108  -4.226   1.518  0.00  0.00    +0.051 A 
ATOM     28  N   UNL     1       0.096  -3.006   2.060  0.00  0.00    -0.342 N 
ATOM     29  C   UNL     1       0.086  -2.099   1.093  0.00  0.00    +0.116 A 
ATOM     30  C   UNL     1       0.076  -0.690   1.113  0.00  0.00    +0.048 A 
ATOM     31  H   UNL     1       0.095  -2.813   3.011  0.00  0.00    +0.167 HD
ENDBRANCH  20  27
ENDBRANCH   1  20
TORSDOF 5
