REMARK  Name = ZINC27368674
REMARK  11 active torsions:
REMARK  status: ('A' for Active; 'I' for Inactive)
REMARK    1  A    between atoms: C_1  and  C_2
REMARK    2  A    between atoms: C_2  and  C_3
REMARK    3  A    between atoms: C_2  and  C_4
REMARK    4  A    between atoms: C_4  and  C_6
REMARK    5  A    between atoms: C_4  and  N_11
REMARK    6  A    between atoms: N_11  and  C_12
REMARK    7  A    between atoms: C_12  and  C_13
REMARK    8  A    between atoms: C_13  and  O_14
REMARK    9  A    between atoms: O_14  and  C_15
REMARK   10  A    between atoms: C_18  and  S_21
REMARK   11  A    between atoms: S_21  and  N_24
REMARK                            x       y       z     vdW  Elec       q    Type
REMARK                         _______ _______ _______ _____ _____    ______ ____
ROOT
ATOM      1  C   UNL     1      -0.341  -0.334   0.496  0.00  0.00    +0.210 C 
ENDROOT
BRANCH   1   2
ATOM      2  C   UNL     1      -1.836  -0.638   0.378  0.00  0.00    -0.040 C 
BRANCH   2   3
ATOM      3  N   UNL     1      -2.277  -0.394  -1.002  0.00  0.00    +0.386 N 
ATOM      4  H   UNL     1      -1.649  -0.987  -1.683  0.00  0.00    -0.085 HD
ATOM      5  H   UNL     1      -2.154   0.675  -1.228  0.00  0.00    -0.085 HD
BRANCH   3   6
ATOM      6  C   UNL     1      -3.685  -0.774  -1.179  0.00  0.00    -0.031 C 
BRANCH   6   7
ATOM      7  C   UNL     1      -3.771  -2.241  -1.512  0.00  0.00    -0.024 A 
ATOM      8  C   UNL     1      -4.663  -3.164  -1.078  0.00  0.00    +0.009 A 
ATOM      9  C   UNL     1      -4.551  -4.468  -1.524  0.00  0.00    +0.008 A 
ATOM     10  C   UNL     1      -3.545  -4.787  -2.375  0.00  0.00    +0.045 A 
ATOM     11  S   UNL     1      -2.720  -3.217  -2.576  0.00  0.00    -0.103 S 
ENDBRANCH   6   7
BRANCH   6  13
ATOM     12  C   UNL     1      -5.729  -0.424  -2.573  0.00  0.00    +0.006 C 
ATOM     13  C   UNL     1      -4.294   0.044  -2.319  0.00  0.00    -0.027 C 
ATOM     14  C   UNL     1      -4.302   1.526  -1.936  0.00  0.00    +0.006 C 
ENDBRANCH   6  13
ENDBRANCH   3   6
ENDBRANCH   2   3
ENDBRANCH   1   2
BRANCH   1  15
ATOM     15  O   UNL     1      -0.119   1.060   0.269  0.00  0.00    -0.494 OA
BRANCH  15  16
ATOM     16  C   UNL     1       1.165   1.499   0.338  0.00  0.00    +0.121 A 
ATOM     17  C   UNL     1       2.190   0.609   0.625  0.00  0.00    +0.047 A 
ATOM     18  C   UNL     1       3.495   1.057   0.689  0.00  0.00    +0.032 A 
ATOM     19  C   UNL     1       3.779   2.394   0.479  0.00  0.00    +0.105 A 
ATOM     20  C   UNL     1       2.759   3.284   0.199  0.00  0.00    +0.032 A 
ATOM     21  C   UNL     1       1.453   2.840   0.128  0.00  0.00    +0.047 A 
BRANCH  19  22
ATOM     22  S   UNL     1       5.444   2.964   0.569  0.00  0.00    +0.056 S 
ATOM     23  O   UNL     1       6.273   1.840   0.307  0.00  0.00    -0.153 OA
ATOM     24  O   UNL     1       5.508   4.154  -0.203  0.00  0.00    -0.153 OA
BRANCH  22  25
ATOM     25  N   UNL     1       5.727   3.404   2.141  0.00  0.00    -0.204 NA
ATOM     26  H   UNL     1       6.761   3.767   2.240  0.00  0.00    +0.144 HD
ATOM     27  H   UNL     1       5.580   2.533   2.797  0.00  0.00    +0.144 HD
ENDBRANCH  22  25
ENDBRANCH  19  22
ENDBRANCH  15  16
ENDBRANCH   1  15
TORSDOF 9
