REMARK  Name = ZINC05512914
REMARK  11 active torsions:
REMARK  status: ('A' for Active; 'I' for Inactive)
REMARK    1  A    between atoms: C_1  and  O_2
REMARK    2  A    between atoms: O_2  and  C_3
REMARK    3  A    between atoms: C_7  and  O_11
REMARK    4  A    between atoms: C_8  and  O_9
REMARK    5  A    between atoms: O_9  and  C_10
REMARK    6  A    between atoms: O_11  and  C_12
REMARK    7  A    between atoms: C_16  and  N_25
REMARK    8  A    between atoms: C_21  and  N_54
REMARK    9  A    between atoms: N_25  and  C_26
REMARK   10  A    between atoms: C_26  and  C_27
REMARK   11  A    between atoms: C_27  and  O_28
REMARK                            x       y       z     vdW  Elec       q    Type
REMARK                         _______ _______ _______ _____ _____    ______ ____
ROOT
ATOM      1  C   UNL     1       0.181  -8.985   0.189  0.00  0.00    +0.165 A 
ATOM      2  C   UNL     1      -0.162  -8.675   1.498  0.00  0.00    +0.054 A 
ATOM      3  C   UNL     1      -0.027  -7.382   1.959  0.00  0.00    -0.033 A 
ATOM      4  C   UNL     1       0.464  -6.391   1.115  0.00  0.00    +0.031 A 
ATOM      5  C   UNL     1       0.808  -6.696  -0.205  0.00  0.00    +0.173 A 
ATOM      6  C   UNL     1       0.663  -7.999  -0.664  0.00  0.00    +0.204 A 
ATOM      7  C   UNL     1       0.626  -4.994   1.618  0.00  0.00    -0.012 A 
ATOM      8  C   UNL     1       0.111  -3.993   0.835  0.00  0.00    +0.011 A 
ATOM      9  C   UNL     1       0.047  -2.658   0.985  0.00  0.00    +0.027 A 
ATOM     10  C   UNL     1       0.474  -1.895   2.031  0.00  0.00    +0.075 A 
ATOM     11  C   UNL     1       1.091  -2.378   3.182  0.00  0.00    +0.200 A 
ATOM     12  O   UNL     1       1.350  -1.542   4.037  0.00  0.00    -0.286 OA
ATOM     13  C   UNL     1       1.440  -3.662   3.485  0.00  0.00    +0.055 A 
ATOM     14  C   UNL     1       1.282  -4.831   2.838  0.00  0.00    -0.050 A 
ATOM     15  C   UNL     1       1.879  -6.053   3.506  0.00  0.00    -0.043 C 
ATOM     16  C   UNL     1       0.826  -6.868   4.230  0.00  0.00    -0.007 C 
ATOM     17  C   UNL     1      -0.424  -7.037   3.372  0.00  0.00    +0.035 C 
ENDROOT
BRANCH  15  20
ATOM     18  H   UNL     1       3.277  -6.408   4.974  0.00  0.00    -0.089 HD
ATOM     19  H   UNL     1       3.630  -5.097   4.014  0.00  0.00    -0.089 HD
ATOM     20  N   UNL     1       2.884  -5.606   4.486  0.00  0.00    +0.383 N 
ATOM     21  H   UNL     1       2.435  -4.985   5.170  0.00  0.00    -0.089 HD
ENDBRANCH  15  20
BRANCH   1  23
ATOM     22  C   UNL     1      -0.456 -11.226   0.665  0.00  0.00    +0.277 C 
ATOM     23  O   UNL     1       0.045 -10.261  -0.262  0.00  0.00    -0.491 OA
ENDBRANCH   1  23
BRANCH   6  24
ATOM     24  O   UNL     1       0.993  -8.309  -1.948  0.00  0.00    -0.488 OA
ATOM     25  C   UNL     1       2.300  -8.840  -2.172  0.00  0.00    +0.277 C 
ENDBRANCH   6  24
BRANCH   5  26
ATOM     26  O   UNL     1       1.280  -5.726  -1.031  0.00  0.00    -0.491 OA
ATOM     27  C   UNL     1       2.678  -5.441  -0.964  0.00  0.00    +0.277 C 
ENDBRANCH   5  26
BRANCH  10  28
ATOM     28  N   UNL     1       0.284  -0.527   1.939  0.00  0.00    -0.339 N 
ATOM     29  H   UNL     1       0.573   0.053   2.661  0.00  0.00    +0.146 HD
BRANCH  28  30
ATOM     30  C   UNL     1      -0.355   0.046   0.751  0.00  0.00    +0.129 C 
BRANCH  30  31
ATOM     31  C   UNL     1      -0.443   1.566   0.902  0.00  0.00    +0.174 C 
BRANCH  31  32
ATOM     32  O   UNL     1       0.874   2.119   0.927  0.00  0.00    -0.393 OA
ATOM     33  H   UNL     1       0.895   3.081   1.021  0.00  0.00    +0.209 HD
ENDBRANCH  31  32
ENDBRANCH  30  31
ENDBRANCH  28  30
ENDBRANCH  10  28
TORSDOF 8
