REMARK  Name = ZINC02927153
REMARK  9 active torsions:
REMARK  status: ('A' for Active; 'I' for Inactive)
REMARK    1  A    between atoms: C_1  and  C_2
REMARK    2  A    between atoms: C_2  and  C_3
REMARK    3  A    between atoms: C_6  and  N_9
REMARK    4  A    between atoms: C_13  and  C_32
REMARK    5  A    between atoms: C_19  and  S_20
REMARK    6  A    between atoms: S_20  and  C_21
REMARK    7  A    between atoms: C_21  and  C_22
REMARK    8  A    between atoms: N_24  and  C_25
REMARK    9  A    between atoms: C_25  and  C_26
REMARK                            x       y       z     vdW  Elec       q    Type
REMARK                         _______ _______ _______ _____ _____    ______ ____
ROOT
ATOM      1  N   UNL     1       1.240  -2.081  -0.022  0.00  0.00    -0.275 N 
ATOM      2  C   UNL     1       1.769  -2.775   1.055  0.00  0.00    +0.124 A 
ATOM      3  N   UNL     1       2.261  -2.148   2.095  0.00  0.00    -0.384 N 
ATOM      4  C   UNL     1       1.756  -4.242   0.983  0.00  0.00    +0.082 A 
ATOM      5  C   UNL     1       2.184  -5.271   1.839  0.00  0.00    +0.046 A 
ATOM      6  N   UNL     1       1.926  -6.416   1.268  0.00  0.00    -0.279 N 
ATOM      7  N   UNL     1       1.321  -6.191   0.025  0.00  0.00    -0.153 NA
ATOM      8  H   UNL     1       2.187  -7.356   1.776  0.00  0.00    +0.189 HD
ATOM      9  C   UNL     1       1.213  -4.846  -0.159  0.00  0.00    +0.187 A 
ATOM     10  N   UNL     1       0.724  -4.081  -1.146  0.00  0.00    -0.201 NA
ATOM     11  C   UNL     1       0.734  -2.772  -1.090  0.00  0.00    +0.177 A 
ATOM     12  C   UNL     1       2.826  -5.085   3.190  0.00  0.00    +0.066 C 
ATOM     13  H   UNL     1       2.675  -2.721   2.938  0.00  0.00    +0.157 HD
ATOM     14  H   UNL     1       2.259  -1.048   2.126  0.00  0.00    +0.157 HD
ENDROOT
BRANCH   1  18
ATOM     15  C   UNL     1       1.189   2.086  -0.007  0.00  0.00    -0.047 A 
ATOM     16  C   UNL     1      -0.001   1.382   0.006  0.00  0.00    +0.005 A 
ATOM     17  C   UNL     1       0.013   0.001   0.001  0.00  0.00    +0.026 A 
ATOM     18  C   UNL     1       1.223  -0.680  -0.017  0.00  0.00    +0.050 A 
ATOM     19  C   UNL     1       2.416   0.030  -0.031  0.00  0.00    +0.026 A 
ATOM     20  C   UNL     1       2.396   1.411  -0.025  0.00  0.00    +0.005 A 
BRANCH  15  22
ATOM     21  C   UNL     1       1.183   4.098   1.442  0.00  0.00    +0.009 C 
ATOM     22  C   UNL     1       1.171   3.593  -0.002  0.00  0.00    +0.032 C 
ENDBRANCH  15  22
ENDBRANCH   1  18
BRANCH  11  23
ATOM     23  S   UNL     1       0.068  -1.863  -2.444  0.00  0.00    -0.078 S 
BRANCH  23  24
ATOM     24  C   UNL     1      -0.433  -3.227  -3.522  0.00  0.00    +0.173 C 
BRANCH  24  25
ATOM     25  C   UNL     1      -1.048  -2.673  -4.781  0.00  0.00    +0.223 C 
ATOM     26  O   UNL     1      -1.139  -1.473  -4.935  0.00  0.00    -0.275 OA
ATOM     27  N   UNL     1      -1.498  -3.510  -5.737  0.00  0.00    -0.312 N 
ATOM     28  H   UNL     1      -1.416  -4.599  -5.597  0.00  0.00    +0.149 HD
BRANCH  27  29
ATOM     29  C   UNL     1      -2.096  -2.972  -6.961  0.00  0.00    +0.135 C 
BRANCH  29  30
ATOM     30  C   UNL     1      -2.520  -4.125  -7.872  0.00  0.00    +0.135 C 
ATOM     31  C   UNL     1      -3.151  -3.569  -9.163  0.00  0.00    +0.035 C 
ATOM     32  C   UNL     1      -2.268  -4.146 -10.296  0.00  0.00    +0.031 C 
ATOM     33  C   UNL     1      -1.603  -5.362  -9.601  0.00  0.00    +0.160 C 
ATOM     34  O   UNL     1      -1.368  -4.894  -8.256  0.00  0.00    -0.375 OA
ENDBRANCH  29  30
ENDBRANCH  27  29
ENDBRANCH  24  25
ENDBRANCH  23  24
ENDBRANCH  11  23
TORSDOF 7
