REMARK  Name = ZINC03111075
REMARK  6 active torsions:
REMARK  status: ('A' for Active; 'I' for Inactive)
REMARK    1  A    between atoms: C_3  and  C_11
REMARK    2  A    between atoms: C_5  and  C_7
REMARK    3  A    between atoms: N_12  and  N_13
REMARK    4  A    between atoms: C_14  and  C_16
REMARK    5  A    between atoms: N_19  and  C_22
REMARK    6  A    between atoms: C_25  and  C_27
REMARK                            x       y       z     vdW  Elec       q    Type
REMARK                         _______ _______ _______ _____ _____    ______ ____
ROOT
ATOM      1  C   UNL     1      -2.447   9.518   0.054  0.00  0.00    +0.080 C 
ATOM      2  C   UNL     1      -1.690  10.040   1.279  0.00  0.00    +0.032 C 
ATOM      3  C   UNL     1      -1.772  11.567   1.311  0.00  0.00    +0.107 C 
ATOM      4  N   UNL     1      -3.179  11.983   1.368  0.00  0.00    -0.315 N 
ATOM      5  C   UNL     1      -3.914  11.535   0.179  0.00  0.00    +0.107 C 
ATOM      6  C   UNL     1      -3.897  10.006   0.113  0.00  0.00    +0.032 C 
ENDROOT
BRANCH   4   7
ATOM      7  C   UNL     1      -3.286  13.360   1.530  0.00  0.00    +0.117 A 
ATOM      8  C   UNL     1      -3.388  13.899   2.810  0.00  0.00    +0.079 A 
ATOM      9  C   UNL     1      -3.488  15.271   2.956  0.00  0.00    +0.037 A 
ATOM     10  C   UNL     1      -3.494  16.061   1.813  0.00  0.00    +0.072 A 
ATOM     11  C   UNL     1      -3.394  15.459   0.575  0.00  0.00    +0.096 A 
ATOM     12 CL   UNL     1      -3.384  12.863   4.204  0.00  0.00    -0.080 Cl
ATOM     13  N   UNL     1      -3.289  14.115   0.394  0.00  0.00    -0.348 N 
ATOM     14  H   UNL     1      -3.217  13.695  -0.540  0.00  0.00    +0.167 HD
BRANCH  10  15
ATOM     15  C   UNL     1      -3.606  17.559   1.924  0.00  0.00    +0.419 C 
ATOM     16  F   UNL     1      -3.589  18.124   0.644  0.00  0.00    -0.166 F 
ATOM     17  F   UNL     1      -4.806  17.891   2.564  0.00  0.00    -0.166 F 
ATOM     18  F   UNL     1      -2.529  18.054   2.667  0.00  0.00    -0.166 F 
ENDBRANCH  10  15
ENDBRANCH   4   7
BRANCH   1  20
ATOM     19  N   UNL     1      -1.244   7.358   0.004  0.00  0.00    -0.207 N 
ATOM     20  C   UNL     1      -2.421   8.012   0.050  0.00  0.00    +0.235 C 
ATOM     21  O   UNL     1      -3.461   7.388   0.088  0.00  0.00    -0.274 OA
ATOM     22  H   UNL     1      -0.413   7.857  -0.027  0.00  0.00    +0.177 HD
BRANCH  19  24
ATOM     23  C   UNL     1      -0.087   5.327  -0.044  0.00  0.00    +0.138 C 
ATOM     24  N   UNL     1      -1.220   5.957  -0.000  0.00  0.00    -0.188 NA
BRANCH  23  27
ATOM     25  C   UNL     1      -1.226   1.751  -0.015  0.00  0.00    +0.001 A 
ATOM     26  C   UNL     1      -1.257   3.131  -0.005  0.00  0.00    +0.009 A 
ATOM     27  C   UNL     1      -0.062   3.852  -0.049  0.00  0.00    -0.005 A 
ATOM     28  C   UNL     1       1.157   3.171  -0.096  0.00  0.00    +0.021 A 
ATOM     29  C   UNL     1       1.172   1.792  -0.100  0.00  0.00    +0.055 A 
ATOM     30  C   UNL     1      -0.016   1.083  -0.058  0.00  0.00    +0.012 A 
BRANCH  29  31
ATOM     31  C   UNL     1       2.486   1.055  -0.151  0.00  0.00    +0.417 C 
ATOM     32  F   UNL     1       2.248  -0.323  -0.146  0.00  0.00    -0.166 F 
ATOM     33  F   UNL     1       3.172   1.406  -1.319  0.00  0.00    -0.166 F 
ATOM     34  F   UNL     1       3.257   1.399   0.964  0.00  0.00    -0.166 F 
ENDBRANCH  29  31
ENDBRANCH  23  27
ENDBRANCH  19  24
ENDBRANCH   1  20
TORSDOF 6
