REMARK  Name = ZINC12658912
REMARK  8 active torsions:
REMARK  status: ('A' for Active; 'I' for Inactive)
REMARK    1  A    between atoms: C_5  and  N_7
REMARK    2  A    between atoms: N_7  and  C_8
REMARK    3  A    between atoms: C_8  and  N_10
REMARK    4  A    between atoms: N_10  and  N_11
REMARK    5  A    between atoms: N_17  and  N_18
REMARK    6  A    between atoms: N_18  and  C_19
REMARK    7  A    between atoms: C_19  and  N_21
REMARK    8  A    between atoms: N_21  and  C_22
REMARK                            x       y       z     vdW  Elec       q    Type
REMARK                         _______ _______ _______ _____ _____    ______ ____
ROOT
ATOM      1  N   UNL     1       4.843   5.050  -0.144  0.00  0.00    -0.190 NA
ATOM      2  C   UNL     1       5.844   5.834   0.001  0.00  0.00    +0.042 C 
ATOM      3  C   UNL     1       7.234   5.287   0.231  0.00  0.00    +0.053 C 
ATOM      4  C   UNL     1       8.180   5.864  -0.826  0.00  0.00    +0.012 C 
ATOM      5  C   UNL     1       8.171   7.392  -0.744  0.00  0.00    +0.053 C 
ATOM      6  C   UNL     1       6.758   7.890  -0.950  0.00  0.00    +0.042 C 
ATOM      7  N   UNL     1       6.490   8.752  -1.858  0.00  0.00    -0.190 NA
ATOM      8  C   UNL     1       5.670   7.338  -0.059  0.00  0.00    +0.104 C 
ENDROOT
BRANCH   1   9
ATOM      9  N   UNL     1       5.042   3.664  -0.203  0.00  0.00    -0.218 N 
ATOM     10  H   UNL     1       5.927   3.295  -0.059  0.00  0.00    +0.176 HD
BRANCH   9  11
ATOM     11  C   UNL     1       4.003   2.845  -0.460  0.00  0.00    +0.154 C 
ATOM     12  S   UNL     1       4.246   1.152  -0.532  0.00  0.00    -0.017 S 
BRANCH  11  13
ATOM     13  N   UNL     1       2.773   3.358  -0.660  0.00  0.00    -0.294 N 
ATOM     14  H   UNL     1       2.644   4.319  -0.665  0.00  0.00    +0.154 HD
BRANCH  13  19
ATOM     15  C   UNL     1       0.506   0.481  -0.341  0.00  0.00    +0.002 A 
ATOM     16  C   UNL     1      -0.472   0.814  -1.260  0.00  0.00    +0.002 A 
ATOM     17  C   UNL     1      -0.380   1.994  -1.975  0.00  0.00    +0.022 A 
ATOM     18  C   UNL     1       0.696   2.839  -1.780  0.00  0.00    +0.062 A 
ATOM     19  C   UNL     1       1.683   2.505  -0.861  0.00  0.00    +0.051 A 
ATOM     20  C   UNL     1       1.584   1.321  -0.141  0.00  0.00    +0.025 A 
ATOM     21 CL   UNL     1       0.814   4.318  -2.682  0.00  0.00    -0.082 Cl
ENDBRANCH  13  19
ENDBRANCH  11  13
ENDBRANCH   9  11
ENDBRANCH   1   9
BRANCH   7  22
ATOM     22  N   UNL     1       5.201   9.292  -1.952  0.00  0.00    -0.218 N 
ATOM     23  H   UNL     1       4.533   9.073  -1.283  0.00  0.00    +0.176 HD
BRANCH  22  24
ATOM     24  C   UNL     1       4.888  10.117  -2.971  0.00  0.00    +0.154 C 
ATOM     25  S   UNL     1       3.313  10.777  -3.086  0.00  0.00    -0.017 S 
BRANCH  24  26
ATOM     26  N   UNL     1       5.816  10.422  -3.900  0.00  0.00    -0.294 N 
ATOM     27  H   UNL     1       6.686   9.992  -3.876  0.00  0.00    +0.154 HD
BRANCH  26  28
ATOM     28  C   UNL     1       5.525  11.358  -4.898  0.00  0.00    +0.051 A 
ATOM     29  C   UNL     1       4.874  12.541  -4.575  0.00  0.00    +0.025 A 
ATOM     30  C   UNL     1       4.589  13.463  -5.562  0.00  0.00    +0.002 A 
ATOM     31  C   UNL     1       4.950  13.210  -6.873  0.00  0.00    +0.002 A 
ATOM     32  C   UNL     1       5.599  12.034  -7.199  0.00  0.00    +0.022 A 
ATOM     33  C   UNL     1       5.892  11.108  -6.215  0.00  0.00    +0.062 A 
ATOM     34 CL   UNL     1       6.713   9.634  -6.624  0.00  0.00    -0.082 Cl
ENDBRANCH  26  28
ENDBRANCH  24  26
ENDBRANCH  22  24
ENDBRANCH   7  22
TORSDOF 8
