REMARK  Name = ZINC63141889
REMARK  6 active torsions:
REMARK  status: ('A' for Active; 'I' for Inactive)
REMARK    1  A    between atoms: C_4  and  C_7
REMARK    2  A    between atoms: C_7  and  C_8
REMARK    3  A    between atoms: C_8  and  C_9
REMARK    4  A    between atoms: C_9  and  N_10
REMARK    5  A    between atoms: C_30  and  C_32
REMARK    6  A    between atoms: C_36  and  N_38
REMARK                            x       y       z     vdW  Elec       q    Type
REMARK                         _______ _______ _______ _____ _____    ______ ____
ROOT
ATOM      1  N   UNL     1       5.602  -2.168   2.852  0.00  0.00    -0.291 N 
ATOM      2  C   UNL     1       6.483  -1.133   3.367  0.00  0.00    +0.203 C 
ATOM      3  C   UNL     1       6.985  -1.450   4.736  0.00  0.00    +0.234 C 
ATOM      4  O   UNL     1       7.731  -0.651   5.261  0.00  0.00    -0.274 OA
ATOM      5  N   UNL     1       6.670  -2.552   5.427  0.00  0.00    -0.279 N 
ATOM      6  C   UNL     1       5.768  -3.575   4.908  0.00  0.00    +0.167 C 
ATOM      7  C   UNL     1       5.271  -3.262   3.536  0.00  0.00    +0.237 C 
ATOM      8  O   UNL     1       4.521  -4.056   3.008  0.00  0.00    -0.274 OA
ATOM      9  C   UNL     1       4.570  -3.751   5.860  0.00  0.00    +0.065 C 
ATOM     10  C   UNL     1       5.138  -3.824   7.256  0.00  0.00    -0.034 C 
ATOM     11  C   UNL     1       4.958  -4.702   8.235  0.00  0.00    -0.001 A 
ATOM     12  C   UNL     1       4.057  -5.859   8.360  0.00  0.00    +0.010 A 
ATOM     13  C   UNL     1       4.150  -6.568   9.516  0.00  0.00    +0.001 A 
ATOM     14  C   UNL     1       5.037  -6.247  10.547  0.00  0.00    +0.002 A 
ATOM     15  C   UNL     1       5.894  -5.195  10.521  0.00  0.00    +0.026 A 
ATOM     16  C   UNL     1       5.884  -4.369   9.360  0.00  0.00    +0.043 A 
ATOM     17  N   UNL     1       6.571  -3.300   9.082  0.00  0.00    -0.375 N 
ATOM     18  C   UNL     1       6.127  -2.791   7.784  0.00  0.00    +0.131 C 
ATOM     19  C   UNL     1       7.271  -2.723   6.769  0.00  0.00    +0.133 C 
ATOM     20  H   UNL     1       7.260  -2.907   9.640  0.00  0.00    +0.160 HD
ENDROOT
BRANCH  19  21
ATOM     21  C   UNL     1       8.069  -4.000   6.812  0.00  0.00    -0.023 A 
ATOM     22  C   UNL     1       7.454  -5.210   6.550  0.00  0.00    +0.005 A 
ATOM     23  C   UNL     1       8.186  -6.381   6.590  0.00  0.00    +0.003 A 
ATOM     24  C   UNL     1       9.535  -6.343   6.892  0.00  0.00    +0.033 A 
ATOM     25  C   UNL     1      10.151  -5.134   7.154  0.00  0.00    +0.127 A 
ATOM     26  C   UNL     1       9.419  -3.962   7.109  0.00  0.00    +0.038 A 
BRANCH  25  27
ATOM     27  N   UNL     1      11.594  -5.093   7.478  0.00  0.00    +0.056 N 
ATOM     28  O   UNL     1      12.235  -6.118   7.514  0.00  0.00    -0.126 OA
ATOM     29  O   UNL     1      12.133  -4.035   7.707  0.00  0.00    -0.126 OA
ENDBRANCH  25  27
ENDBRANCH  19  21
BRANCH   1  30
ATOM     30  C   UNL     1       5.043  -1.996   1.508  0.00  0.00    +0.108 C 
BRANCH  30  31
ATOM     31  C   UNL     1       3.715  -1.242   1.602  0.00  0.00    +0.024 C 
BRANCH  31  32
ATOM     32  C   UNL     1       3.131  -1.062   0.199  0.00  0.00    +0.036 C 
BRANCH  32  36
ATOM     33  C   UNL     1      -0.577   1.043   0.457  0.00  0.00    +0.000 A 
ATOM     34  C   UNL     1       0.606   1.742   0.307  0.00  0.00    +0.000 A 
ATOM     35  C   UNL     1       1.806   1.061   0.224  0.00  0.00    +0.003 A 
ATOM     36  C   UNL     1       1.823  -0.319   0.291  0.00  0.00    -0.047 A 
ATOM     37  C   UNL     1       0.640  -1.019   0.442  0.00  0.00    +0.003 A 
ATOM     38  C   UNL     1      -0.560  -0.338   0.523  0.00  0.00    +0.000 A 
ENDBRANCH  32  36
ENDBRANCH  31  32
ENDBRANCH  30  31
ENDBRANCH   1  30
TORSDOF 6
