REMARK  Name = ZINC12158955
REMARK  5 active torsions:
REMARK  status: ('A' for Active; 'I' for Inactive)
REMARK    1  A    between atoms: C_13  and  N_61
REMARK    2  A    between atoms: C_14  and  N_61
REMARK    3  A    between atoms: N_25  and  C_28
REMARK    4  A    between atoms: C_28  and  C_29
REMARK    5  A    between atoms: C_29  and  C_30
REMARK                            x       y       z     vdW  Elec       q    Type
REMARK                         _______ _______ _______ _____ _____    ______ ____
ROOT
ATOM      1  C   UNL     1      -5.261  11.874   1.145  0.00  0.00    -0.065 C 
ATOM      2  C   UNL     1      -5.076  10.579   1.942  0.00  0.00    -0.011 C 
ATOM      3  C   UNL     1      -4.587   9.465   1.015  0.00  0.00    +0.035 C 
ATOM      4  C   UNL     1      -3.354   9.956   0.263  0.00  0.00    -0.023 A 
ATOM      5  C   UNL     1      -3.082  11.275   0.171  0.00  0.00    -0.006 A 
ATOM      6  S   UNL     1      -1.585  11.371  -0.773  0.00  0.00    -0.073 S 
ATOM      7  C   UNL     1      -1.328   9.636  -1.042  0.00  0.00    +0.116 A 
ATOM      8  C   UNL     1      -2.418   9.040  -0.387  0.00  0.00    +0.076 A 
ATOM      9  C   UNL     1      -2.471   7.609  -0.448  0.00  0.00    +0.262 A 
ATOM     10  O   UNL     1      -3.381   6.999   0.086  0.00  0.00    -0.267 OA
ATOM     11  N   UNL     1      -1.495   6.949  -1.100  0.00  0.00    -0.298 N 
ATOM     12  C   UNL     1      -0.476   7.612  -1.705  0.00  0.00    +0.203 A 
ATOM     13  N   UNL     1      -0.404   8.916  -1.671  0.00  0.00    -0.230 NA
ATOM     14  C   UNL     1      -3.878  12.408   0.745  0.00  0.00    +0.027 C 
ENDROOT
BRANCH   1  15
ATOM     15  N   UNL     1      -5.951  12.869   1.987  0.00  0.00    +0.388 N 
ATOM     16  H   UNL     1      -6.608  12.387   2.612  0.00  0.00    -0.084 HD
ATOM     17  H   UNL     1      -5.257  13.379   2.547  0.00  0.00    -0.084 HD
BRANCH  15  30
ATOM     18  C   UNL     1      -7.795  17.390   3.191  0.00  0.00    +0.001 A 
ATOM     19  C   UNL     1      -6.437  17.171   3.049  0.00  0.00    +0.000 A 
ATOM     20  C   UNL     1      -5.981  16.038   2.398  0.00  0.00    +0.003 A 
ATOM     21  C   UNL     1      -6.880  15.125   1.889  0.00  0.00    -0.049 A 
ATOM     22  C   UNL     1      -8.249  15.337   2.026  0.00  0.00    -0.016 A 
ATOM     23  C   UNL     1      -8.702  16.481   2.685  0.00  0.00    +0.009 A 
ATOM     24  C   UNL     1      -8.988  14.215   1.396  0.00  0.00    -0.016 A 
ATOM     25  C   UNL     1     -10.357  13.970   1.273  0.00  0.00    +0.009 A 
ATOM     26  C   UNL     1     -10.797  12.832   0.629  0.00  0.00    +0.001 A 
ATOM     27  C   UNL     1      -9.888  11.932   0.104  0.00  0.00    +0.000 A 
ATOM     28  C   UNL     1      -8.530  12.169   0.222  0.00  0.00    +0.003 A 
ATOM     29  C   UNL     1      -8.081  13.303   0.864  0.00  0.00    -0.049 A 
ATOM     30  C   UNL     1      -6.693  13.826   1.145  0.00  0.00    -0.008 C 
ENDBRANCH  15  30
ENDBRANCH   1  15
BRANCH  11  31
ATOM     31  C   UNL     1      -1.537   5.486  -1.163  0.00  0.00    +0.132 C 
BRANCH  31  32
ATOM     32  C   UNL     1      -0.780   4.902   0.032  0.00  0.00    +0.077 C 
BRANCH  32  33
ATOM     33  C   UNL     1      -0.823   3.397  -0.033  0.00  0.00    +0.043 A 
ATOM     34  C   UNL     1       0.358   2.679  -0.007  0.00  0.00    +0.023 A 
ATOM     35  C   UNL     1       0.307   1.294  -0.068  0.00  0.00    +0.003 A 
ATOM     36  C   UNL     1      -0.934   0.682  -0.152  0.00  0.00    +0.020 A 
ATOM     37  C   UNL     1      -2.071   1.467  -0.178  0.00  0.00    +0.111 A 
ATOM     38  N   UNL     1      -1.986   2.781  -0.113  0.00  0.00    -0.260 NA
ENDBRANCH  32  33
ENDBRANCH  31  32
ENDBRANCH  11  31
TORSDOF 5
