REMARK  Name = ZINC43190185
REMARK  8 active torsions:
REMARK  status: ('A' for Active; 'I' for Inactive)
REMARK    1  A    between atoms: C_1  and  C_2
REMARK    2  A    between atoms: C_2  and  C_3
REMARK    3  A    between atoms: C_2  and  C_4
REMARK    4  A    between atoms: C_2  and  N_19
REMARK    5  A    between atoms: C_4  and  N_5
REMARK    6  A    between atoms: N_8  and  N_9
REMARK    7  A    between atoms: N_19  and  C_20
REMARK    8  A    between atoms: N_19  and  C_21
REMARK                            x       y       z     vdW  Elec       q    Type
REMARK                         _______ _______ _______ _____ _____    ______ ____
ROOT
ATOM      1  N   UNL     1      -1.558  -1.740  -0.246  0.00  0.00    -0.300 N 
ATOM      2  C   UNL     1      -2.772  -2.267  -0.504  0.00  0.00    +0.316 C 
ATOM      3  O   UNL     1      -3.751  -1.547  -0.546  0.00  0.00    -0.251 OA
ATOM      4  N   UNL     1      -2.899  -3.592  -0.717  0.00  0.00    -0.219 N 
ATOM      5  H   UNL     1      -0.777  -2.314  -0.213  0.00  0.00    +0.150 HD
ATOM      6  H   UNL     1      -3.772  -3.971  -0.903  0.00  0.00    +0.174 HD
ENDROOT
BRANCH   4   7
ATOM      7  N   UNL     1      -1.771  -4.421  -0.669  0.00  0.00    -0.246 N 
ATOM      8  C   UNL     1      -1.903  -5.788  -0.888  0.00  0.00    +0.155 A 
ATOM      9  C   UNL     1      -0.779  -6.607  -0.834  0.00  0.00    +0.083 A 
ATOM     10  C   UNL     1      -0.924  -7.966  -1.053  0.00  0.00    +0.046 A 
ATOM     11  C   UNL     1      -2.193  -8.462  -1.321  0.00  0.00    +0.079 A 
ATOM     12  C   UNL     1      -3.266  -7.591  -1.360  0.00  0.00    +0.150 A 
ATOM     13  N   UNL     1      -3.098  -6.300  -1.141  0.00  0.00    -0.216 NA
ATOM     14 CL   UNL     1      -4.856  -8.204  -1.694  0.00  0.00    -0.060 Cl
ATOM     15 CL   UNL     1      -2.430 -10.159  -1.604  0.00  0.00    -0.080 Cl
ATOM     16 CL   UNL     1       0.785  -5.932  -0.496  0.00  0.00    -0.080 Cl
ATOM     17  H   UNL     1      -0.898  -4.041  -0.483  0.00  0.00    +0.172 HD
ENDBRANCH   4   7
BRANCH   1  18
ATOM     18  C   UNL     1      -1.419  -0.300  -0.016  0.00  0.00    +0.093 C 
BRANCH  18  20
ATOM     19  C   UNL     1       0.811  -0.220  -1.139  0.00  0.00    -0.008 C 
ATOM     20  C   UNL     1       0.060   0.047   0.167  0.00  0.00    -0.056 C 
ATOM     21  C   UNL     1       0.195   1.525   0.539  0.00  0.00    -0.008 C 
BRANCH  20  22
ATOM     22  N   UNL     1       0.629  -0.782   1.237  0.00  0.00    +0.380 N 
ATOM     23  C   UNL     1       2.043  -0.433   1.427  0.00  0.00    -0.096 C 
ATOM     24  C   UNL     1      -0.106  -0.541   2.486  0.00  0.00    -0.096 C 
ATOM     25  H   UNL     1       0.553  -1.756   0.985  0.00  0.00    -0.082 HD
ENDBRANCH  20  22
ENDBRANCH  18  20
ENDBRANCH   1  18
TORSDOF 4
