REMARK  Name = ZINC06544904
REMARK  9 active torsions:
REMARK  status: ('A' for Active; 'I' for Inactive)
REMARK    1  A    between atoms: C_1  and  C_2
REMARK    2  A    between atoms: C_2  and  O_3
REMARK    3  A    between atoms: O_3  and  C_4
REMARK    4  A    between atoms: C_4  and  C_6
REMARK    5  A    between atoms: C_7  and  C_28
REMARK    6  A    between atoms: N_8  and  C_24
REMARK    7  A    between atoms: C_19  and  N_23
REMARK    8  A    between atoms: C_20  and  C_21
REMARK    9  A    between atoms: C_24  and  C_25
REMARK                            x       y       z     vdW  Elec       q    Type
REMARK                         _______ _______ _______ _____ _____    ______ ____
ROOT
ATOM      1  C   UNL     1       2.312   4.408   0.113  0.00  0.00    +0.083 C 
ATOM      2  C   UNL     1       1.246   3.574  -0.049  0.00  0.00    +0.056 C 
ATOM      3  N   UNL     1       0.065   4.268  -0.119  0.00  0.00    -0.260 N 
ATOM      4  C   UNL     1       0.250   5.598  -0.017  0.00  0.00    +0.241 C 
ATOM      5  O   UNL     1      -0.606   6.457  -0.045  0.00  0.00    -0.274 OA
ATOM      6  C   UNL     1       1.739   5.807   0.141  0.00  0.00    +0.148 C 
ATOM      7  C   UNL     1       2.038   6.461   1.460  0.00  0.00    +0.020 A 
ATOM      8  C   UNL     1       1.352   6.067   2.594  0.00  0.00    +0.009 A 
ATOM      9  C   UNL     1       1.620   6.664   3.811  0.00  0.00    +0.001 A 
ATOM     10  C   UNL     1       2.578   7.658   3.898  0.00  0.00    +0.004 A 
ATOM     11  C   UNL     1       3.266   8.055   2.769  0.00  0.00    +0.046 A 
ATOM     12  C   UNL     1       2.998   7.458   1.543  0.00  0.00    +0.135 A 
ATOM     13  O   UNL     1       3.681   7.858   0.443  0.00  0.00    -0.441 OA
ATOM     14  C   UNL     1       3.206   7.588  -0.784  0.00  0.00    +0.199 C 
ATOM     15  C   UNL     1       2.279   6.621  -0.996  0.00  0.00    +0.110 C 
ENDROOT
BRANCH   2  16
ATOM     16  C   UNL     1       1.351   2.103  -0.131  0.00  0.00    -0.003 A 
ATOM     17  C   UNL     1       0.628   1.298   0.752  0.00  0.00    +0.010 A 
ATOM     18  C   UNL     1       0.730  -0.075   0.669  0.00  0.00    +0.001 A 
ATOM     19  C   UNL     1       1.545  -0.655  -0.287  0.00  0.00    +0.000 A 
ATOM     20  C   UNL     1       2.264   0.137  -1.166  0.00  0.00    +0.001 A 
ATOM     21  C   UNL     1       2.171   1.511  -1.094  0.00  0.00    +0.010 A 
ENDBRANCH   2  16
BRANCH  14  22
ATOM     22  N   UNL     1       3.672   8.311  -1.854  0.00  0.00    -0.328 N 
ATOM     23  H   UNL     1       4.335   9.005  -1.718  0.00  0.00    +0.145 HD
ATOM     24  H   UNL     1       3.338   8.127  -2.746  0.00  0.00    +0.145 HD
ENDBRANCH  14  22
BRANCH   1  25
ATOM     25  C   UNL     1       3.668   4.042   0.228  0.00  0.00    +0.339 C 
ATOM     26  O   UNL     1       3.991   2.871   0.150  0.00  0.00    -0.245 OA
BRANCH  25  27
ATOM     27  O   UNL     1       4.608   4.991   0.425  0.00  0.00    -0.462 OA
BRANCH  27  29
ATOM     28  C   UNL     1       6.878   5.755   0.752  0.00  0.00    +0.048 C 
ATOM     29  C   UNL     1       5.963   4.549   0.532  0.00  0.00    +0.229 C 
ENDBRANCH  27  29
ENDBRANCH  25  27
ENDBRANCH   1  25
BRANCH  15  30
ATOM     30  C   UNL     1       1.808   6.375  -2.326  0.00  0.00    +0.102 C 
ATOM     31  N   UNL     1       1.435   6.179  -3.381  0.00  0.00    -0.191 NA
ENDBRANCH  15  30
BRANCH   3  32
ATOM     32  C   UNL     1      -1.246   3.636  -0.286  0.00  0.00    +0.209 C 
BRANCH  32  33
ATOM     33  C   UNL     1      -1.889   3.446   1.063  0.00  0.00    +0.228 C 
ATOM     34  O   UNL     1      -1.309   3.804   2.067  0.00  0.00    -0.274 OA
ATOM     35  N   UNL     1      -3.108   2.879   1.156  0.00  0.00    -0.328 N 
ATOM     36  H   UNL     1      -3.572   2.593   0.354  0.00  0.00    +0.145 HD
ATOM     37  H   UNL     1      -3.522   2.757   2.025  0.00  0.00    +0.145 HD
ENDBRANCH  32  33
ENDBRANCH   3  32
TORSDOF 8
