REMARK  Name = ZINC31164431
REMARK  16 active torsions:
REMARK  status: ('A' for Active; 'I' for Inactive)
REMARK    1  A    between atoms: C_1  and  C_2
REMARK    2  A    between atoms: C_2  and  O_4
REMARK    3  A    between atoms: O_4  and  C_5
REMARK    4  A    between atoms: C_5  and  C_6
REMARK    5  A    between atoms: C_8  and  O_39
REMARK    6  A    between atoms: C_10  and  O_38
REMARK    7  A    between atoms: C_12  and  O_37
REMARK    8  A    between atoms: C_14  and  O_17
REMARK    9  A    between atoms: O_17  and  C_18
REMARK   10  A    between atoms: C_20  and  O_36
REMARK   11  A    between atoms: C_22  and  O_35
REMARK   12  A    between atoms: C_23  and  C_24
REMARK   13  A    between atoms: C_24  and  C_26
REMARK   14  A    between atoms: C_26  and  C_27
REMARK   15  A    between atoms: C_27  and  C_28
REMARK   16  A    between atoms: C_31  and  O_34
REMARK                            x       y       z     vdW  Elec       q    Type
REMARK                         _______ _______ _______ _____ _____    ______ ____
ROOT
ATOM      1  C   UNL     1       2.434   0.047  -0.021  0.00  0.00    +0.141 A 
ATOM      2  C   UNL     1       2.394   1.429  -0.013  0.00  0.00    +0.092 A 
ATOM      3  C   UNL     1       1.175   2.093   0.002  0.00  0.00    +0.124 A 
ATOM      4  C   UNL     1      -0.017   1.377   0.010  0.00  0.00    +0.091 A 
ATOM      5  C   UNL     1       0.002  -0.004   0.002  0.00  0.00    +0.134 A 
ATOM      6  C   UNL     1       1.233  -0.686  -0.013  0.00  0.00    +0.101 A 
ENDROOT
BRANCH   6   7
ATOM      7  C   UNL     1       1.264  -2.148  -0.021  0.00  0.00    +0.170 C 
ATOM      8  O   UNL     1       2.328  -2.732  -0.034  0.00  0.00    -0.292 OA
BRANCH   7   9
ATOM      9  C   UNL     1      -0.025  -2.929  -0.012  0.00  0.00    +0.084 C 
BRANCH   9  10
ATOM     10  C   UNL     1       0.287  -4.426  -0.023  0.00  0.00    +0.043 C 
BRANCH  10  11
ATOM     11  C   UNL     1      -1.002  -5.207  -0.014  0.00  0.00    -0.047 A 
ATOM     12  C   UNL     1      -1.578  -5.576   1.188  0.00  0.00    +0.007 A 
ATOM     13  C   UNL     1      -2.762  -6.287   1.198  0.00  0.00    +0.045 A 
ATOM     14  C   UNL     1      -3.368  -6.641   0.002  0.00  0.00    +0.117 A 
ATOM     15  C   UNL     1      -2.785  -6.275  -1.203  0.00  0.00    +0.045 A 
ATOM     16  C   UNL     1      -1.604  -5.559  -1.208  0.00  0.00    +0.007 A 
BRANCH  14  17
ATOM     17  O   UNL     1      -4.530  -7.347   0.009  0.00  0.00    -0.507 OA
ATOM     18  H   UNL     1      -5.009  -7.627  -0.940  0.00  0.00    +0.292 HD
ENDBRANCH  14  17
ENDBRANCH  10  11
ENDBRANCH   9  10
ENDBRANCH   7   9
ENDBRANCH   6   7
BRANCH   5  19
ATOM     19  O   UNL     1      -1.162  -0.700   0.010  0.00  0.00    -0.506 OA
ATOM     20  H   UNL     1      -1.145  -1.800   0.004  0.00  0.00    +0.292 HD
ENDBRANCH   5  19
BRANCH   3  21
ATOM     21  O   UNL     1       1.146   3.450   0.010  0.00  0.00    -0.507 OA
ATOM     22  H   UNL     1       0.182   3.979   0.022  0.00  0.00    +0.292 HD
ENDBRANCH   3  21
BRANCH   1  23
ATOM     23  O   UNL     1       3.626  -0.599  -0.035  0.00  0.00    -0.460 OA
BRANCH  23  28
ATOM     24  C   UNL     1       5.993   1.823  -1.360  0.00  0.00    +0.191 C 
ATOM     25  C   UNL     1       7.278   0.993  -1.304  0.00  0.00    +0.178 C 
ATOM     26  C   UNL     1       7.299   0.186  -0.002  0.00  0.00    +0.180 C 
ATOM     27  C   UNL     1       6.040  -0.684   0.067  0.00  0.00    +0.214 C 
ATOM     28  C   UNL     1       4.803   0.211  -0.042  0.00  0.00    +0.339 C 
ATOM     29  O   UNL     1       4.862   0.956  -1.260  0.00  0.00    -0.330 OA
BRANCH  27  30
ATOM     30  O   UNL     1       6.013  -1.387   1.311  0.00  0.00    -0.383 OA
ATOM     31  H   UNL     1       5.178  -2.066   1.541  0.00  0.00    +0.210 HD
ENDBRANCH  27  30
BRANCH  26  32
ATOM     32  O   UNL     1       8.460  -0.647   0.026  0.00  0.00    -0.386 OA
ATOM     33  H   UNL     1       8.646  -1.302   0.889  0.00  0.00    +0.210 HD
ENDBRANCH  26  32
BRANCH  25  34
ATOM     34  O   UNL     1       8.411   1.862  -1.345  0.00  0.00    -0.386 OA
ATOM     35  H   UNL     1       9.428   1.443  -1.315  0.00  0.00    +0.210 HD
ENDBRANCH  25  34
BRANCH  24  36
ATOM     36  C   UNL     1       5.936   2.586  -2.685  0.00  0.00    +0.266 C 
BRANCH  36  37
ATOM     37  O   UNL     1       4.779   3.463  -2.689  0.00  0.00    -0.462 OA
BRANCH  37  39
ATOM     38  C   UNL     1       3.402   5.142  -3.865  0.00  0.00    +0.136 C 
ATOM     39  C   UNL     1       4.583   4.208  -3.789  0.00  0.00    +0.304 C 
ATOM     40  O   UNL     1       5.353   4.130  -4.716  0.00  0.00    -0.251 OA
ENDBRANCH  37  39
ENDBRANCH  36  37
ENDBRANCH  24  36
ENDBRANCH  23  28
ENDBRANCH   1  23
TORSDOF 15
