REMARK  Name = ZINC48181303
REMARK  12 active torsions:
REMARK  status: ('A' for Active; 'I' for Inactive)
REMARK    1  A    between atoms: C_1  and  C_2
REMARK    2  A    between atoms: C_2  and  N_3
REMARK    3  A    between atoms: N_3  and  C_4
REMARK    4  A    between atoms: N_3  and  C_6
REMARK    5  A    between atoms: C_4  and  C_5
REMARK    6  A    between atoms: C_6  and  C_8
REMARK    7  A    between atoms: C_6  and  C_24
REMARK    8  A    between atoms: C_8  and  N_9
REMARK    9  A    between atoms: N_12  and  C_13
REMARK   10  A    between atoms: C_16  and  C_20
REMARK   11  A    between atoms: C_18  and  C_19
REMARK   12  A    between atoms: N_22  and  C_23
REMARK                            x       y       z     vdW  Elec       q    Type
REMARK                         _______ _______ _______ _____ _____    ______ ____
ROOT
ATOM      1  N   UNL     1      -1.894  -1.821  -0.869  0.00  0.00    -0.300 N 
ATOM      2  C   UNL     1      -3.200  -2.117  -1.023  0.00  0.00    +0.304 C 
ATOM      3  O   UNL     1      -3.552  -2.868  -1.912  0.00  0.00    -0.253 OA
ATOM      4  N   UNL     1      -4.115  -1.581  -0.191  0.00  0.00    -0.269 N 
ATOM      5  H   UNL     1      -1.613  -1.222  -0.160  0.00  0.00    +0.150 HD
ATOM      6  H   UNL     1      -3.842  -0.936   0.479  0.00  0.00    +0.156 HD
ENDROOT
BRANCH   4   7
ATOM      7  C   UNL     1      -5.454  -1.956  -0.294  0.00  0.00    +0.038 A 
ATOM      8  C   UNL     1      -5.968  -2.366  -1.520  0.00  0.00    +0.024 A 
ATOM      9  C   UNL     1      -7.289  -2.736  -1.625  0.00  0.00    +0.015 A 
ATOM     10  C   UNL     1      -8.115  -2.700  -0.498  0.00  0.00    +0.037 A 
ATOM     11  C   UNL     1      -7.596  -2.287   0.732  0.00  0.00    +0.018 A 
ATOM     12  C   UNL     1      -6.272  -1.923   0.831  0.00  0.00    -0.028 A 
ATOM     13  C   UNL     1      -5.710  -1.483   2.158  0.00  0.00    +0.045 C 
BRANCH  10  14
ATOM     14  C   UNL     1      -9.533  -3.095  -0.607  0.00  0.00    +0.244 C 
ATOM     15  O   UNL     1     -10.250  -3.063   0.374  0.00  0.00    -0.270 OA
ATOM     16  N   UNL     1     -10.032  -3.493  -1.794  0.00  0.00    -0.314 N 
ATOM     17  C   UNL     1     -11.440  -3.885  -1.902  0.00  0.00    +0.128 C 
ATOM     18  H   UNL     1      -9.460  -3.519  -2.577  0.00  0.00    +0.149 HD
ENDBRANCH  10  14
ENDBRANCH   4   7
BRANCH   1  19
ATOM     19  C   UNL     1      -0.899  -2.403  -1.774  0.00  0.00    +0.095 C 
BRANCH  19  20
ATOM     20  C   UNL     1       0.466  -1.764  -1.509  0.00  0.00    -0.020 C 
BRANCH  20  21
ATOM     21  C   UNL     1       1.556  -2.714  -1.936  0.00  0.00    -0.052 A 
ATOM     22  C   UNL     1       2.271  -3.430  -0.995  0.00  0.00    +0.009 A 
ATOM     23  C   UNL     1       3.244  -4.276  -1.412  0.00  0.00    +0.045 A 
ATOM     24  S   UNL     1       3.172  -4.076  -3.184  0.00  0.00    -0.105 S 
ATOM     25  C   UNL     1       1.846  -2.883  -3.249  0.00  0.00    +0.047 A 
ENDBRANCH  20  21
BRANCH  20  26
ATOM     26  N   UNL     1       0.579  -0.515  -2.273  0.00  0.00    +0.385 N 
ATOM     27  H   UNL     1       0.608  -0.725  -3.260  0.00  0.00    -0.081 HD
BRANCH  26  29
ATOM     28  C   UNL     1      -0.472   1.635  -2.795  0.00  0.00    -0.017 C 
ATOM     29  C   UNL     1      -0.582   0.339  -1.988  0.00  0.00    -0.081 C 
ENDBRANCH  26  29
BRANCH  26  30
ATOM     30  C   UNL     1       1.810   0.187  -1.886  0.00  0.00    -0.081 C 
ATOM     31  C   UNL     1       3.023  -0.599  -2.386  0.00  0.00    -0.017 C 
ENDBRANCH  26  30
ENDBRANCH  20  26
ENDBRANCH  19  20
ENDBRANCH   1  19
TORSDOF 8
