REMARK  Name = ZINC00838725
REMARK  12 active torsions:
REMARK  status: ('A' for Active; 'I' for Inactive)
REMARK    1  A    between atoms: C_1  and  C_2
REMARK    2  A    between atoms: C_3  and  C_33
REMARK    3  A    between atoms: C_4  and  C_25
REMARK    4  A    between atoms: C_10  and  C_15
REMARK    5  A    between atoms: C_18  and  O_23
REMARK    6  A    between atoms: C_19  and  O_21
REMARK    7  A    between atoms: O_21  and  C_22
REMARK    8  A    between atoms: O_23  and  C_24
REMARK    9  A    between atoms: C_33  and  O_35
REMARK   10  A    between atoms: O_35  and  C_36
REMARK   11  A    between atoms: C_36  and  C_37
REMARK   12  A    between atoms: C_36  and  C_38
REMARK                            x       y       z     vdW  Elec       q    Type
REMARK                         _______ _______ _______ _____ _____    ______ ____
ROOT
ATOM      1  C   UNL     1       4.632   4.332  -0.781  0.00  0.00    +0.061 C 
ATOM      2  C   UNL     1       3.507   3.410  -0.384  0.00  0.00    +0.016 C 
ATOM      3  C   UNL     1       3.677   2.079  -0.456  0.00  0.00    +0.065 C 
ATOM      4  C   UNL     1       2.583   1.131  -0.062  0.00  0.00    +0.096 C 
ATOM      5  C   UNL     1       1.248   1.832  -0.024  0.00  0.00    +0.024 C 
ATOM      6  C   UNL     1       1.178   3.179   0.029  0.00  0.00    +0.016 C 
ATOM      7  N   UNL     1       2.320   3.934   0.046  0.00  0.00    -0.321 N 
ATOM      8  C   UNL     1      -0.154   3.887   0.064  0.00  0.00    +0.059 C 
ATOM      9  C   UNL     1      -1.188   3.004   0.766  0.00  0.00    +0.032 C 
ATOM     10  C   UNL     1      -1.282   1.674   0.007  0.00  0.00    +0.088 C 
ATOM     11  C   UNL     1       0.083   1.045  -0.043  0.00  0.00    +0.162 C 
ATOM     12  O   UNL     1       0.181  -0.165  -0.105  0.00  0.00    -0.292 OA
ATOM     13  H   UNL     1       2.276   4.971   0.410  0.00  0.00    +0.152 HD
ENDROOT
BRANCH   4  14
ATOM     14  C   UNL     1       2.885   0.567   1.302  0.00  0.00    +0.018 A 
ATOM     15  C   UNL     1       2.982   1.411   2.395  0.00  0.00    +0.129 A 
ATOM     16  C   UNL     1       3.254   0.890   3.649  0.00  0.00    +0.039 A 
ATOM     17  C   UNL     1       3.439  -0.470   3.807  0.00  0.00    +0.004 A 
ATOM     18  C   UNL     1       3.347  -1.312   2.715  0.00  0.00    +0.020 A 
ATOM     19  C   UNL     1       3.070  -0.794   1.462  0.00  0.00    +0.048 A 
ATOM     20 CL   UNL     1       2.956  -1.853   0.091  0.00  0.00    -0.083 Cl
ATOM     21  F   UNL     1       2.806   2.741   2.239  0.00  0.00    -0.205 F 
ENDBRANCH   4  14
BRANCH   9  22
ATOM     22  C   UNL     1      -2.530   3.689   0.754  0.00  0.00    -0.040 A 
ATOM     23  C   UNL     1      -3.130   4.011  -0.449  0.00  0.00    +0.008 A 
ATOM     24  C   UNL     1      -4.361   4.639  -0.465  0.00  0.00    +0.049 A 
ATOM     25  C   UNL     1      -4.997   4.947   0.727  0.00  0.00    +0.161 A 
ATOM     26  C   UNL     1      -4.394   4.624   1.938  0.00  0.00    +0.162 A 
ATOM     27  C   UNL     1      -3.162   3.989   1.947  0.00  0.00    +0.053 A 
BRANCH  26  28
ATOM     28  O   UNL     1      -5.014   4.924   3.110  0.00  0.00    -0.491 OA
ATOM     29  C   UNL     1      -4.335   4.562   4.315  0.00  0.00    +0.277 C 
ENDBRANCH  26  28
BRANCH  25  30
ATOM     30  O   UNL     1      -6.209   5.564   0.713  0.00  0.00    -0.491 OA
ATOM     31  C   UNL     1      -6.769   5.866  -0.567  0.00  0.00    +0.277 C 
ENDBRANCH  25  30
ENDBRANCH   9  22
BRANCH   3  32
ATOM     32  C   UNL     1       4.912   1.561  -0.913  0.00  0.00    +0.338 C 
ATOM     33  O   UNL     1       5.769   2.315  -1.334  0.00  0.00    -0.245 OA
BRANCH  32  34
ATOM     34  O   UNL     1       5.139   0.231  -0.881  0.00  0.00    -0.459 OA
BRANCH  34  35
ATOM     35  C   UNL     1       6.408  -0.222  -1.357  0.00  0.00    +0.171 C 
ATOM     36  C   UNL     1       7.405  -0.258  -0.197  0.00  0.00    +0.052 C 
ATOM     37  C   UNL     1       6.260  -1.626  -1.947  0.00  0.00    +0.052 C 
ENDBRANCH  34  35
ENDBRANCH  32  34
ENDBRANCH   3  32
TORSDOF 7
