REMARK  Name = ZINC15033715
REMARK  6 active torsions:
REMARK  status: ('A' for Active; 'I' for Inactive)
REMARK    1  A    between atoms: C_4  and  C_7
REMARK    2  A    between atoms: C_16  and  C_17
REMARK    3  A    between atoms: C_16  and  N_52
REMARK    4  A    between atoms: N_19  and  C_20
REMARK    5  A    between atoms: C_20  and  C_21
REMARK    6  A    between atoms: N_23  and  C_24
REMARK                            x       y       z     vdW  Elec       q    Type
REMARK                         _______ _______ _______ _____ _____    ______ ____
ROOT
ATOM      1  C   UNL     1      -6.042  -0.387   0.478  0.00  0.00    +0.197 C 
ATOM      2  O   UNL     1      -6.242  -1.583   0.493  0.00  0.00    -0.278 OA
ATOM      3  N   UNL     1      -4.785   0.085   0.359  0.00  0.00    -0.308 N 
ATOM      4  H   UNL     1      -4.626   1.042   0.347  0.00  0.00    +0.149 HD
ENDROOT
BRANCH   1   5
ATOM      5  C   UNL     1      -7.199   0.572   0.594  0.00  0.00    +0.020 C 
BRANCH   5  14
ATOM      6  C   UNL     1      -9.571   0.699   1.063  0.00  0.00    -0.005 C 
ATOM      7  C   UNL     1     -10.845  -0.137   1.149  0.00  0.00    -0.047 A 
ATOM      8  C   UNL     1     -12.002   0.276   1.805  0.00  0.00    +0.010 A 
ATOM      9  C   UNL     1     -13.088  -0.530   1.833  0.00  0.00    +0.045 A 
ATOM     10  S   UNL     1     -12.518  -1.950   0.910  0.00  0.00    -0.101 S 
ATOM     11  C   UNL     1     -10.884  -1.364   0.559  0.00  0.00    -0.010 A 
ATOM     12  C   UNL     1      -9.781  -2.025  -0.201  0.00  0.00    +0.024 C 
ATOM     13  C   UNL     1      -8.720  -0.956  -0.511  0.00  0.00    -0.072 C 
ATOM     14  N   UNL     1      -8.444  -0.208   0.740  0.00  0.00    +0.393 N 
ATOM     15  H   UNL     1      -8.329  -0.879   1.508  0.00  0.00    -0.080 HD
BRANCH   6  19
ATOM     16  C   UNL     1      -8.810   2.543   4.840  0.00  0.00    +0.000 A 
ATOM     17  C   UNL     1      -9.382   3.275   3.816  0.00  0.00    +0.000 A 
ATOM     18  C   UNL     1      -9.628   2.678   2.594  0.00  0.00    +0.002 A 
ATOM     19  C   UNL     1      -9.302   1.349   2.396  0.00  0.00    -0.057 A 
ATOM     20  C   UNL     1      -8.736   0.616   3.421  0.00  0.00    +0.002 A 
ATOM     21  C   UNL     1      -8.485   1.214   4.642  0.00  0.00    +0.000 A 
ENDBRANCH   6  19
ENDBRANCH   5  14
ENDBRANCH   1   5
BRANCH   3  22
ATOM     22  C   UNL     1      -3.660  -0.846   0.246  0.00  0.00    +0.200 C 
BRANCH  22  23
ATOM     23  C   UNL     1      -2.375  -0.070   0.125  0.00  0.00    +0.234 C 
ATOM     24  O   UNL     1      -2.396   1.143   0.132  0.00  0.00    -0.274 OA
ATOM     25  N   UNL     1      -1.201  -0.722   0.009  0.00  0.00    -0.282 N 
ATOM     26  H   UNL     1      -1.190  -1.688  -0.077  0.00  0.00    +0.155 HD
BRANCH  25  27
ATOM     27  C   UNL     1       0.003  -0.005   0.013  0.00  0.00    +0.072 A 
ATOM     28  C   UNL     1       0.069   1.238   0.627  0.00  0.00    +0.029 A 
ATOM     29  C   UNL     1       1.256   1.945   0.630  0.00  0.00    +0.043 A 
ATOM     30  C   UNL     1       2.381   1.415   0.022  0.00  0.00    +0.161 A 
ATOM     31  C   UNL     1       2.320   0.174  -0.593  0.00  0.00    +0.195 A 
ATOM     32  C   UNL     1       1.132  -0.537  -0.598  0.00  0.00    +0.182 A 
ATOM     33  F   UNL     1       1.070  -1.747  -1.197  0.00  0.00    -0.200 F 
ATOM     34  F   UNL     1       3.418  -0.341  -1.187  0.00  0.00    -0.199 F 
ATOM     35  F   UNL     1       3.541   2.109   0.026  0.00  0.00    -0.202 F 
ENDBRANCH  25  27
ENDBRANCH  22  23
ENDBRANCH   3  22
TORSDOF 6
