REMARK  Name = ZINC16039183
REMARK  4 active torsions:
REMARK  status: ('A' for Active; 'I' for Inactive)
REMARK    1  A    between atoms: C_4  and  C_7
REMARK    2  A    between atoms: C_7  and  C_9
REMARK    3  A    between atoms: C_11  and  C_33
REMARK    4  A    between atoms: C_33  and  C_35
REMARK                            x       y       z     vdW  Elec       q    Type
REMARK                         _______ _______ _______ _____ _____    ______ ____
ROOT
ATOM      1  C   UNL     1       1.026   3.495   1.528  0.00  0.00    +0.108 C 
ATOM      2  C   UNL     1       2.239   4.447   1.692  0.00  0.00    +0.140 C 
ATOM      3  C   UNL     1       2.551   6.672   0.476  0.00  0.00    +0.054 C 
ATOM      4  C   UNL     1       2.023   7.446  -0.491  0.00  0.00    +0.022 C 
ATOM      5  C   UNL     1       1.050   6.866  -1.438  0.00  0.00    -0.019 A 
ATOM      6  C   UNL     1       0.317   7.712  -2.277  0.00  0.00    +0.008 A 
ATOM      7  C   UNL     1      -0.569   7.181  -3.189  0.00  0.00    +0.001 A 
ATOM      8  C   UNL     1      -0.737   5.809  -3.274  0.00  0.00    +0.000 A 
ATOM      9  C   UNL     1      -0.018   4.968  -2.443  0.00  0.00    +0.006 A 
ATOM     10  C   UNL     1       0.855   5.483  -1.507  0.00  0.00    -0.020 A 
ATOM     11  C   UNL     1       1.621   4.577  -0.591  0.00  0.00    +0.107 C 
ATOM     12  C   UNL     1       0.784   3.451   0.005  0.00  0.00    +0.107 C 
ATOM     13  C   UNL     1      -0.660   3.497  -0.342  0.00  0.00    -0.008 A 
ATOM     14  C   UNL     1      -1.606   4.501  -0.306  0.00  0.00    +0.006 A 
ATOM     15  C   UNL     1      -2.903   4.177  -0.689  0.00  0.00    +0.000 A 
ATOM     16  C   UNL     1      -3.235   2.903  -1.104  0.00  0.00    +0.002 A 
ATOM     17  C   UNL     1      -2.293   1.890  -1.163  0.00  0.00    +0.023 A 
ATOM     18  C   UNL     1      -0.986   2.207  -0.795  0.00  0.00    +0.038 A 
ATOM     19  N   UNL     1       0.140   1.399  -0.793  0.00  0.00    -0.284 N 
ATOM     20  C   UNL     1       1.254   2.111  -0.534  0.00  0.00    +0.231 C 
ATOM     21  O   UNL     1       2.403   1.769  -0.704  0.00  0.00    -0.274 OA
ATOM     22  H   UNL     1       0.130   0.453  -0.997  0.00  0.00    +0.155 HD
ATOM     23  N   UNL     1       1.802   5.355   0.603  0.00  0.00    -0.384 NA
ATOM     24  H   UNL     1       0.852   5.646   0.864  0.00  0.00    +0.127 HD
ENDROOT
BRANCH   1  25
ATOM     25  C   UNL     1      -0.170   4.031   2.277  0.00  0.00    +0.170 C 
ATOM     26  O   UNL     1      -0.266   5.220   2.495  0.00  0.00    -0.292 OA
BRANCH  25  30
ATOM     27  C   UNL     1      -3.196   1.377   3.618  0.00  0.00    +0.000 A 
ATOM     28  C   UNL     1      -3.361   2.743   3.769  0.00  0.00    +0.001 A 
ATOM     29  C   UNL     1      -2.383   3.612   3.336  0.00  0.00    +0.011 A 
ATOM     30  C   UNL     1      -1.220   3.110   2.743  0.00  0.00    +0.018 A 
ATOM     31  C   UNL     1      -1.062   1.729   2.589  0.00  0.00    +0.011 A 
ATOM     32  C   UNL     1      -2.047   0.873   3.032  0.00  0.00    +0.001 A 
ENDBRANCH  25  30
ENDBRANCH   1  25
BRANCH   2  33
ATOM     33  C   UNL     1       3.540   3.694   1.690  0.00  0.00    +0.183 C 
ATOM     34  O   UNL     1       4.219   3.658   0.686  0.00  0.00    -0.290 OA
BRANCH  33  35
ATOM     35  C   UNL     1       3.991   3.001   2.908  0.00  0.00    +0.019 A 
ATOM     36  C   UNL     1       3.272   3.136   4.100  0.00  0.00    +0.011 A 
ATOM     37  C   UNL     1       3.698   2.479   5.236  0.00  0.00    +0.001 A 
ATOM     38  C   UNL     1       4.839   1.698   5.200  0.00  0.00    +0.000 A 
ATOM     39  C   UNL     1       5.559   1.563   4.026  0.00  0.00    +0.001 A 
ATOM     40  C   UNL     1       5.143   2.209   2.881  0.00  0.00    +0.011 A 
ENDBRANCH  33  35
ENDBRANCH   2  33
TORSDOF 4
