REMARK  Name = ZINC22168959
REMARK  7 active torsions:
REMARK  status: ('A' for Active; 'I' for Inactive)
REMARK    1  A    between atoms: C_1  and  C_2
REMARK    2  A    between atoms: C_5  and  C_24
REMARK    3  A    between atoms: N_8  and  C_10
REMARK    4  A    between atoms: C_10  and  C_12
REMARK    5  A    between atoms: C_10  and  C_13
REMARK    6  A    between atoms: N_15  and  C_16
REMARK    7  A    between atoms: C_18  and  N_23
REMARK                            x       y       z     vdW  Elec       q    Type
REMARK                         _______ _______ _______ _____ _____    ______ ____
ROOT
ATOM      1  C   UNL     1       3.554   2.063  -0.143  0.00  0.00    +0.203 C 
ATOM      2  O   UNL     1       3.543   3.276  -0.137  0.00  0.00    -0.277 OA
ATOM      3  N   UNL     1       2.398   1.378  -0.052  0.00  0.00    -0.284 N 
ATOM      4  H   UNL     1       2.414   0.282   0.040  0.00  0.00    +0.155 HD
ENDROOT
BRANCH   3   5
ATOM      5  C   UNL     1       1.175   2.061  -0.076  0.00  0.00    +0.071 A 
ATOM      6  C   UNL     1       1.087   3.305  -0.682  0.00  0.00    +0.049 A 
ATOM      7  C   UNL     1      -0.126   3.979  -0.704  0.00  0.00    +0.026 A 
ATOM      8  C   UNL     1      -1.248   3.407  -0.119  0.00  0.00    +0.025 A 
ATOM      9  C   UNL     1      -1.160   2.164   0.480  0.00  0.00    +0.042 A 
ATOM     10  C   UNL     1       0.049   1.492   0.509  0.00  0.00    +0.145 A 
ATOM     11  F   UNL     1       0.134   0.280   1.099  0.00  0.00    -0.204 F 
BRANCH   7  12
ATOM     12  N   UNL     1      -0.219   5.233  -1.315  0.00  0.00    -0.358 N 
ATOM     13  H   UNL     1      -1.180   5.767  -1.332  0.00  0.00    +0.142 HD
ATOM     14  H   UNL     1       0.670   5.686  -1.778  0.00  0.00    +0.142 HD
ENDBRANCH   7  12
ENDBRANCH   3   5
BRANCH   1  15
ATOM     15  C   UNL     1       4.862   1.323  -0.253  0.00  0.00    +0.016 C 
ATOM     16  C   UNL     1       5.003   0.360   0.928  0.00  0.00    -0.004 C 
BRANCH  15  22
ATOM     17  C   UNL     1       9.673   1.998  -1.025  0.00  0.00    +0.005 C 
ATOM     18  C   UNL     1       8.346   2.683  -0.691  0.00  0.00    -0.031 C 
ATOM     19  C   UNL     1       8.476   3.426   0.642  0.00  0.00    +0.003 C 
ATOM     20  C   UNL     1       7.128   4.058   0.998  0.00  0.00    -0.031 C 
ATOM     21  C   UNL     1       6.059   2.965   1.064  0.00  0.00    -0.075 C 
ATOM     22  N   UNL     1       5.973   2.285  -0.235  0.00  0.00    +0.387 N 
ATOM     23  C   UNL     1       7.242   1.630  -0.577  0.00  0.00    -0.075 C 
ATOM     24  C   UNL     1       7.232   4.753   2.358  0.00  0.00    +0.005 C 
ATOM     25  H   UNL     1       5.773   3.048  -1.001  0.00  0.00    -0.081 HD
ENDBRANCH  15  22
ENDBRANCH   1  15
TORSDOF 4
