REMARK  Name = ZINC04856550
REMARK  6 active torsions:
REMARK  status: ('A' for Active; 'I' for Inactive)
REMARK    1  A    between atoms: C_4  and  O_27
REMARK    2  A    between atoms: C_5  and  C_7
REMARK    3  A    between atoms: N_9  and  N_10
REMARK    4  A    between atoms: N_10  and  C_11
REMARK    5  A    between atoms: N_18  and  C_21
REMARK    6  A    between atoms: C_21  and  C_22
REMARK                            x       y       z     vdW  Elec       q    Type
REMARK                         _______ _______ _______ _____ _____    ______ ____
ROOT
ATOM      1  C   UNL     1      -1.032  -4.950  -0.015  0.00  0.00    +0.106 C 
ATOM      2  C   UNL     1      -1.010  -6.332  -0.128  0.00  0.00    +0.116 C 
ATOM      3  C   UNL     1       0.254  -7.080  -0.142  0.00  0.00    +0.278 C 
ATOM      4  O   UNL     1       1.438  -6.439  -0.045  0.00  0.00    -0.268 OA
ATOM      5  N   UNL     1       0.206  -8.398  -0.252  0.00  0.00    -0.123 NA
ATOM      6  C   UNL     1      -0.945  -9.057  -0.349  0.00  0.00    +0.336 C 
ATOM      7  O   UNL     1      -0.908 -10.270  -0.448  0.00  0.00    -0.250 OA
ATOM      8  N   UNL     1      -2.145  -8.457  -0.344  0.00  0.00    -0.213 N 
ATOM      9  C   UNL     1      -2.253  -7.116  -0.232  0.00  0.00    +0.261 C 
ATOM     10  O   UNL     1      -3.342  -6.572  -0.223  0.00  0.00    -0.269 OA
ENDROOT
BRANCH   1  11
ATOM     11  N   UNL     1       0.115  -4.250  -0.095  0.00  0.00    -0.271 N 
ATOM     12  H   UNL     1       0.945  -4.701  -0.313  0.00  0.00    +0.169 HD
BRANCH  11  15
ATOM     13  C   UNL     1       1.258  -2.167   0.059  0.00  0.00    +0.264 C 
ATOM     14  O   UNL     1       2.298  -2.733  -0.216  0.00  0.00    -0.269 OA
ATOM     15  N   UNL     1       0.110  -2.868   0.138  0.00  0.00    -0.233 N 
ATOM     16  H   UNL     1      -0.720  -2.416   0.357  0.00  0.00    +0.173 HD
BRANCH  13  21
ATOM     17  C   UNL     1       0.061   1.302   0.846  0.00  0.00    +0.001 A 
ATOM     18  C   UNL     1       1.241   2.023   0.764  0.00  0.00    +0.004 A 
ATOM     19  C   UNL     1       2.427   1.388   0.454  0.00  0.00    +0.046 A 
ATOM     20  C   UNL     1       2.444   0.021   0.222  0.00  0.00    +0.129 A 
ATOM     21  C   UNL     1       1.252  -0.712   0.304  0.00  0.00    +0.079 A 
ATOM     22  C   UNL     1       0.059  -0.057   0.618  0.00  0.00    +0.017 A 
BRANCH  20  23
ATOM     23  O   UNL     1       3.609  -0.604  -0.084  0.00  0.00    -0.506 OA
ATOM     24  H   UNL     1       4.094  -0.929   0.687  0.00  0.00    +0.292 HD
ENDBRANCH  20  23
ENDBRANCH  13  21
ENDBRANCH  11  15
ENDBRANCH   1  11
BRANCH   8  25
ATOM     25  C   UNL     1      -3.358  -9.271  -0.456  0.00  0.00    +0.192 C 
BRANCH  25  26
ATOM     26  C   UNL     1      -3.826  -9.668   0.920  0.00  0.00    +0.123 A 
ATOM     27  C   UNL     1      -4.685  -8.974   1.688  0.00  0.00    +0.046 A 
ATOM     28  C   UNL     1      -4.842  -9.704   2.889  0.00  0.00    +0.041 A 
ATOM     29  C   UNL     1      -4.069 -10.800   2.783  0.00  0.00    +0.195 A 
ATOM     30  O   UNL     1      -3.460 -10.775   1.586  0.00  0.00    -0.466 OA
ENDBRANCH  25  26
ENDBRANCH   8  25
TORSDOF 6
