REMARK  Name = ZINC50989477
REMARK  8 active torsions:
REMARK  status: ('A' for Active; 'I' for Inactive)
REMARK    1  A    between atoms: C_1  and  N_2
REMARK    2  A    between atoms: N_2  and  C_3
REMARK    3  A    between atoms: N_2  and  C_19
REMARK    4  A    between atoms: C_3  and  C_4
REMARK    5  A    between atoms: N_6  and  C_7
REMARK    6  A    between atoms: C_8  and  C_16
REMARK    7  A    between atoms: C_19  and  C_20
REMARK    8  A    between atoms: C_19  and  C_23
REMARK                            x       y       z     vdW  Elec       q    Type
REMARK                         _______ _______ _______ _____ _____    ______ ____
ROOT
ATOM      1  C   UNL     1      -0.201  -0.087   2.387  0.00  0.00    +0.201 C 
ATOM      2  O   UNL     1      -1.321   0.357   2.249  0.00  0.00    -0.278 OA
ATOM      3  N   UNL     1       0.273  -0.349   3.622  0.00  0.00    -0.281 N 
ATOM      4  H   UNL     1       1.168  -0.705   3.732  0.00  0.00    +0.155 HD
ENDROOT
BRANCH   3   5
ATOM      5  C   UNL     1      -0.521  -0.110   4.734  0.00  0.00    +0.084 A 
ATOM      6  C   UNL     1      -0.202  -0.312   6.067  0.00  0.00    +0.068 A 
ATOM      7  C   UNL     1      -1.218   0.020   7.051  0.00  0.00    -0.023 A 
ATOM      8  C   UNL     1      -2.366   0.492   6.520  0.00  0.00    -0.004 A 
ATOM      9  S   UNL     1      -2.086   0.497   4.774  0.00  0.00    -0.077 S 
ATOM     10  C   UNL     1      -3.594   0.918   7.266  0.00  0.00    +0.043 C 
ATOM     11  C   UNL     1      -3.494   0.384   8.703  0.00  0.00    +0.005 C 
ATOM     12  C   UNL     1      -2.106   0.716   9.259  0.00  0.00    +0.005 C 
ATOM     13  C   UNL     1      -1.046  -0.134   8.555  0.00  0.00    +0.037 C 
BRANCH   6  14
ATOM     14  C   UNL     1       1.106  -0.839   6.468  0.00  0.00    +0.244 C 
ATOM     15  O   UNL     1       2.027  -0.075   6.694  0.00  0.00    -0.270 OA
ATOM     16  N   UNL     1       1.289  -2.169   6.588  0.00  0.00    -0.325 N 
ATOM     17  H   UNL     1       0.556  -2.777   6.408  0.00  0.00    +0.145 HD
ATOM     18  H   UNL     1       2.155  -2.518   6.853  0.00  0.00    +0.145 HD
ENDBRANCH   6  14
ENDBRANCH   3   5
BRANCH   1  19
ATOM     19  C   UNL     1       0.661  -0.347   1.179  0.00  0.00    +0.019 C 
BRANCH  19  21
ATOM     20  C   UNL     1      -0.377   1.455  -0.017  0.00  0.00    -0.095 C 
ATOM     21  N   UNL     1      -0.078   0.017  -0.037  0.00  0.00    +0.386 N 
ATOM     22  H   UNL     1      -0.940  -0.505  -0.076  0.00  0.00    -0.081 HD
BRANCH  21  23
ATOM     23  C   UNL     1       0.738  -0.297  -1.218  0.00  0.00    -0.062 C 
BRANCH  23  24
ATOM     24  C   UNL     1       0.888  -1.814  -1.346  0.00  0.00    -0.024 C 
ATOM     25  C   UNL     1       0.186  -2.684  -0.301  0.00  0.00    +0.002 C 
ATOM     26  C   UNL     1       1.709  -2.535  -0.275  0.00  0.00    +0.002 C 
ENDBRANCH  23  24
BRANCH  23  27
ATOM     27  C   UNL     1       0.055   0.255  -2.471  0.00  0.00    -0.024 C 
ATOM     28  C   UNL     1       0.933   0.981  -3.493  0.00  0.00    +0.002 C 
ATOM     29  C   UNL     1      -0.035   1.776  -2.615  0.00  0.00    +0.002 C 
ENDBRANCH  23  27
ENDBRANCH  21  23
ENDBRANCH  19  21
ENDBRANCH   1  19
TORSDOF 7
