REMARK  Name = ZINC38937592
REMARK  8 active torsions:
REMARK  status: ('A' for Active; 'I' for Inactive)
REMARK    1  A    between atoms: C_1  and  O_2
REMARK    2  A    between atoms: O_2  and  C_3
REMARK    3  A    between atoms: C_8  and  N_9
REMARK    4  A    between atoms: C_10  and  N_12
REMARK    5  A    between atoms: C_16  and  C_19
REMARK    6  A    between atoms: C_24  and  S_25
REMARK    7  A    between atoms: S_25  and  C_26
REMARK    8  A    between atoms: C_26  and  C_27
REMARK                            x       y       z     vdW  Elec       q    Type
REMARK                         _______ _______ _______ _____ _____    ______ ____
ROOT
ATOM      1  N   UNL     1      -0.570  -4.861   0.694  0.00  0.00    -0.136 NA
ATOM      2  C   UNL     1      -0.604  -6.175   0.576  0.00  0.00    +0.203 C 
ATOM      3  N   UNL     1      -0.058  -6.976  -0.404  0.00  0.00    -0.153 NA
ATOM      4  N   UNL     1      -0.140  -8.183  -0.430  0.00  0.00    -0.289 N 
ATOM      5  C   UNL     1      -0.877  -8.864   0.660  0.00  0.00    +0.194 C 
ATOM      6  S   UNL     1      -1.366  -7.388   1.653  0.00  0.00    -0.056 S 
ATOM      7  H   UNL     1       0.266  -8.692  -1.149  0.00  0.00    +0.184 HD
ENDROOT
BRANCH   5   8
ATOM      8  C   UNL     1       0.026  -9.778   1.448  0.00  0.00    -0.000 A 
ATOM      9  C   UNL     1       1.397  -9.665   1.329  0.00  0.00    +0.007 A 
ATOM     10  C   UNL     1       2.226 -10.503   2.052  0.00  0.00    +0.000 A 
ATOM     11  C   UNL     1       1.686 -11.457   2.896  0.00  0.00    +0.001 A 
ATOM     12  C   UNL     1       0.316 -11.576   3.019  0.00  0.00    +0.015 A 
ATOM     13  C   UNL     1      -0.520 -10.731   2.299  0.00  0.00    +0.014 A 
BRANCH  13  14
ATOM     14  S   UNL     1      -2.269 -10.874   2.458  0.00  0.00    -0.120 S 
BRANCH  14  15
ATOM     15  C   UNL     1      -2.493 -12.222   3.651  0.00  0.00    +0.109 C 
BRANCH  15  16
ATOM     16  C   UNL     1      -3.964 -12.451   3.880  0.00  0.00    -0.037 A 
ATOM     17  C   UNL     1      -4.623 -11.760   4.880  0.00  0.00    +0.006 A 
ATOM     18  C   UNL     1      -5.973 -11.970   5.091  0.00  0.00    +0.020 A 
ATOM     19  C   UNL     1      -6.665 -12.871   4.302  0.00  0.00    +0.041 A 
ATOM     20  C   UNL     1      -6.005 -13.562   3.301  0.00  0.00    +0.020 A 
ATOM     21  C   UNL     1      -4.656 -13.348   3.088  0.00  0.00    +0.006 A 
ATOM     22 CL   UNL     1      -8.360 -13.135   4.567  0.00  0.00    -0.084 Cl
ENDBRANCH  15  16
ENDBRANCH  14  15
ENDBRANCH  13  14
ENDBRANCH   5   8
BRANCH   1  24
ATOM     23  N   UNL     1       0.096  -2.777  -0.112  0.00  0.00    -0.265 N 
ATOM     24  C   UNL     1       0.061  -4.119  -0.233  0.00  0.00    +0.330 C 
ATOM     25  O   UNL     1       0.602  -4.660  -1.181  0.00  0.00    -0.250 OA
ATOM     26  H   UNL     1      -0.262  -2.352   0.682  0.00  0.00    +0.157 HD
BRANCH  23  32
ATOM     27  C   UNL     1       1.157  -0.731  -0.851  0.00  0.00    +0.141 A 
ATOM     28  C   UNL     1       1.709   0.034  -1.865  0.00  0.00    +0.047 A 
ATOM     29  C   UNL     1       1.750  -0.456  -3.157  0.00  0.00    +0.004 A 
ATOM     30  C   UNL     1       1.241  -1.710  -3.441  0.00  0.00    +0.002 A 
ATOM     31  C   UNL     1       0.690  -2.480  -2.435  0.00  0.00    +0.027 A 
ATOM     32  C   UNL     1       0.650  -1.997  -1.135  0.00  0.00    +0.077 A 
BRANCH  27  34
ATOM     33  C   UNL     1       1.655   1.056   0.637  0.00  0.00    +0.277 C 
ATOM     34  O   UNL     1       1.116  -0.250   0.420  0.00  0.00    -0.493 OA
ENDBRANCH  27  34
ENDBRANCH  23  32
ENDBRANCH   1  24
TORSDOF 7
