REMARK  Name = ZINC03722936
REMARK  4 active torsions:
REMARK  status: ('A' for Active; 'I' for Inactive)
REMARK    1  A    between atoms: C_4  and  C_19
REMARK    2  A    between atoms: C_5  and  C_7
REMARK    3  A    between atoms: C_11  and  O_18
REMARK    4  A    between atoms: C_12  and  O_17
REMARK                            x       y       z     vdW  Elec       q    Type
REMARK                         _______ _______ _______ _____ _____    ______ ____
ROOT
ATOM      1  C   UNL     1       3.665   2.193  -0.050  0.00  0.00    -0.009 C 
ATOM      2  C   UNL     1       3.993   2.654   1.346  0.00  0.00    -0.050 A 
ATOM      3  C   UNL     1       2.964   3.152   2.134  0.00  0.00    +0.051 A 
ATOM      4  C   UNL     1       3.217   3.591   3.420  0.00  0.00    +0.158 A 
ATOM      5  C   UNL     1       4.513   3.533   3.927  0.00  0.00    +0.158 A 
ATOM      6  C   UNL     1       5.534   3.034   3.139  0.00  0.00    +0.053 A 
ATOM      7  C   UNL     1       5.275   2.593   1.850  0.00  0.00    -0.044 A 
ATOM      8  C   UNL     1       6.420   2.050   1.034  0.00  0.00    +0.016 C 
ATOM      9  C   UNL     1       6.036   2.013  -0.446  0.00  0.00    -0.077 C 
ATOM     10  N   UNL     1       4.734   1.333  -0.576  0.00  0.00    +0.386 N 
ATOM     11  H   UNL     1       4.553   1.131  -1.566  0.00  0.00    -0.085 HD
ATOM     12  H   UNL     1       4.755   0.454  -0.045  0.00  0.00    -0.085 HD
ENDROOT
BRANCH   1  17
ATOM     13  C   UNL     1       1.173  -0.595   0.468  0.00  0.00    +0.000 A 
ATOM     14  C   UNL     1       0.005  -0.009   0.015  0.00  0.00    +0.001 A 
ATOM     15  C   UNL     1       0.022   1.289  -0.458  0.00  0.00    +0.012 A 
ATOM     16  C   UNL     1       1.207   2.002  -0.479  0.00  0.00    +0.057 A 
ATOM     17  C   UNL     1       2.374   1.416  -0.027  0.00  0.00    -0.046 A 
ATOM     18  C   UNL     1       2.357   0.117   0.447  0.00  0.00    +0.003 A 
BRANCH  16  19
ATOM     19  C   UNL     1       1.225   3.418  -0.996  0.00  0.00    +0.418 C 
ATOM     20  F   UNL     1      -0.080   3.821  -1.298  0.00  0.00    -0.166 F 
ATOM     21  F   UNL     1       1.759   4.264  -0.018  0.00  0.00    -0.166 F 
ATOM     22  F   UNL     1       2.013   3.483  -2.150  0.00  0.00    -0.166 F 
ENDBRANCH  16  19
ENDBRANCH   1  17
BRANCH   5  23
ATOM     23  O   UNL     1       4.772   3.964   5.190  0.00  0.00    -0.503 OA
ATOM     24  H   UNL     1       5.005   4.901   5.246  0.00  0.00    +0.292 HD
ENDBRANCH   5  23
BRANCH   4  25
ATOM     25  O   UNL     1       2.205   4.078   4.187  0.00  0.00    -0.503 OA
ATOM     26  H   UNL     1       2.070   5.032   4.100  0.00  0.00    +0.292 HD
ENDBRANCH   4  25
TORSDOF 4
