REMARK  Name = ZINC09293793
REMARK  12 active torsions:
REMARK  status: ('A' for Active; 'I' for Inactive)
REMARK    1  A    between atoms: C_1  and  C_2
REMARK    2  A    between atoms: C_2  and  O_3
REMARK    3  A    between atoms: O_3  and  C_4
REMARK    4  A    between atoms: C_4  and  C_6
REMARK    5  A    between atoms: C_6  and  N_7
REMARK    6  A    between atoms: C_10  and  C_36
REMARK    7  A    between atoms: C_11  and  C_35
REMARK    8  A    between atoms: N_16  and  C_17
REMARK    9  A    between atoms: C_17  and  C_19
REMARK   10  A    between atoms: C_23  and  N_25
REMARK   11  A    between atoms: N_25  and  S_26
REMARK   12  A    between atoms: S_26  and  C_29
REMARK                            x       y       z     vdW  Elec       q    Type
REMARK                         _______ _______ _______ _____ _____    ______ ____
ROOT
ATOM      1  C   UNL     1      -4.737   1.223   0.288  0.00  0.00    +0.269 C 
ATOM      2  O   UNL     1      -5.413   1.456   1.275  0.00  0.00    -0.268 OA
ENDROOT
BRANCH   1  12
ATOM      3  N   UNL     1      -1.537   2.226   1.618  0.00  0.00    -0.310 N 
ATOM      4  C   UNL     1      -1.123   2.718   2.842  0.00  0.00    +0.058 A 
ATOM      5  C   UNL     1       0.173   3.081   3.242  0.00  0.00    +0.030 A 
ATOM      6  C   UNL     1       0.408   3.564   4.507  0.00  0.00    -0.046 A 
ATOM      7  C   UNL     1      -0.620   3.712   5.422  0.00  0.00    -0.046 A 
ATOM      8  C   UNL     1      -1.908   3.367   5.053  0.00  0.00    +0.020 A 
ATOM      9  C   UNL     1      -2.145   2.884   3.788  0.00  0.00    +0.039 A 
ATOM     10  S   UNL     1      -3.595   2.337   2.921  0.00  0.00    -0.052 S 
ATOM     11  C   UNL     1      -2.848   1.933   1.409  0.00  0.00    +0.167 A 
ATOM     12  N   UNL     1      -3.420   1.451   0.311  0.00  0.00    -0.152 NA
ATOM     13  C   UNL     1      -0.340   4.244   6.804  0.00  0.00    +0.044 C 
ATOM     14  C   UNL     1       1.813   3.939   4.906  0.00  0.00    +0.044 C 
BRANCH   3  15
ATOM     15  C   UNL     1      -0.560   2.013   0.547  0.00  0.00    +0.244 C 
BRANCH  15  16
ATOM     16  C   UNL     1      -0.925   2.864  -0.642  0.00  0.00    +0.327 C 
ATOM     17  O   UNL     1      -1.835   3.656  -0.561  0.00  0.00    -0.249 OA
BRANCH  16  18
ATOM     18  O   UNL     1      -0.240   2.743  -1.790  0.00  0.00    -0.464 OA
BRANCH  18  20
ATOM     19  C   UNL     1       0.242   3.315  -4.107  0.00  0.00    +0.048 C 
ATOM     20  C   UNL     1      -0.647   3.594  -2.893  0.00  0.00    +0.229 C 
ENDBRANCH  18  20
ENDBRANCH  16  18
ENDBRANCH  15  16
ENDBRANCH   3  15
ENDBRANCH   1  12
BRANCH   1  21
ATOM     21  C   UNL     1      -5.375   0.686  -0.937  0.00  0.00    +0.041 A 
ATOM     22  C   UNL     1      -4.604   0.424  -2.070  0.00  0.00    +0.013 A 
ATOM     23  C   UNL     1      -5.199  -0.080  -3.208  0.00  0.00    +0.003 A 
ATOM     24  C   UNL     1      -6.561  -0.318  -3.235  0.00  0.00    +0.024 A 
ATOM     25  C   UNL     1      -7.338  -0.055  -2.113  0.00  0.00    +0.049 A 
ATOM     26  C   UNL     1      -6.747   0.447  -0.963  0.00  0.00    +0.037 A 
BRANCH  25  27
ATOM     27  N   UNL     1      -8.714  -0.295  -2.144  0.00  0.00    -0.216 N 
ATOM     28  H   UNL     1      -9.146  -0.739  -1.397  0.00  0.00    +0.174 HD
BRANCH  27  29
ATOM     29  S   UNL     1      -9.607   0.176  -3.457  0.00  0.00    +0.072 S 
ATOM     30  O   UNL     1      -8.967  -0.370  -4.601  0.00  0.00    -0.150 OA
ATOM     31  O   UNL     1     -10.966  -0.095  -3.141  0.00  0.00    -0.150 OA
BRANCH  29  32
ATOM     32  C   UNL     1      -9.460   1.927  -3.585  0.00  0.00    +0.108 A 
ATOM     33  C   UNL     1     -10.290   2.747  -2.843  0.00  0.00    +0.029 A 
ATOM     34  C   UNL     1     -10.171   4.121  -2.940  0.00  0.00    +0.002 A 
ATOM     35  C   UNL     1      -9.229   4.675  -3.787  0.00  0.00    +0.000 A 
ATOM     36  C   UNL     1      -8.403   3.855  -4.533  0.00  0.00    +0.002 A 
ATOM     37  C   UNL     1      -8.518   2.481  -4.432  0.00  0.00    +0.029 A 
ENDBRANCH  29  32
ENDBRANCH  27  29
ENDBRANCH  25  27
ENDBRANCH   1  21
TORSDOF 9
