REMARK  Name = ZINC40453587
REMARK  6 active torsions:
REMARK  status: ('A' for Active; 'I' for Inactive)
REMARK    1  A    between atoms: C_1  and  C_2
REMARK    2  A    between atoms: C_11  and  N_13
REMARK    3  A    between atoms: N_13  and  CA_14
REMARK    4  A    between atoms: CA_14  and  CB_16
REMARK    5  A    between atoms: CA_14  and  C_17
REMARK    6  A    between atoms: C_17  and  O_18
REMARK                            x       y       z     vdW  Elec       q    Type
REMARK                         _______ _______ _______ _____ _____    ______ ____
ROOT
ATOM      1  C   UNL     1       0.283   1.429  -0.198  0.00  0.00    +0.045 C 
ATOM      2  C   UNL     1       0.232  -0.076  -0.146  0.00  0.00    -0.029 A 
ATOM      3  C   UNL     1       0.230  -0.806  -1.317  0.00  0.00    +0.005 A 
ATOM      4  C   UNL     1       0.182  -2.187  -1.280  0.00  0.00    +0.001 A 
ATOM      5  C   UNL     1       0.138  -2.842  -0.061  0.00  0.00    +0.004 A 
ATOM      6  C   UNL     1       0.141  -2.116   1.109  0.00  0.00    -0.031 A 
ATOM      7  C   UNL     1       0.194  -0.728   1.085  0.00  0.00    +0.038 A 
ATOM      8  N   UNL     1       0.193  -0.223   2.385  0.00  0.00    -0.286 N 
ATOM      9  C   UNL     1       0.148  -1.197   3.309  0.00  0.00    +0.208 C 
ATOM     10  O   UNL     1       0.137  -1.048   4.513  0.00  0.00    -0.277 OA
ATOM     11  C   ACE A   0       0.101  -2.515   2.566  0.00  0.00    +0.049 C 
ATOM     12  H   UNL     1       0.222   0.723   2.598  0.00  0.00    +0.155 HD
ENDROOT
BRANCH  11  13
ATOM     13  N   UNL     1       1.276  -3.327   2.910  0.00  0.00    +0.393 N 
ATOM     14  H1  UNL     1       2.115  -2.838   2.636  0.00  0.00    -0.084 HD
ATOM     15  H2  UNL     1       1.292  -3.491   3.905  0.00  0.00    -0.084 HD
BRANCH  13  16
ATOM     16  CA  UNL     1       1.206  -4.613   2.204  0.00  0.00    -0.048 C 
ATOM     17  CB  UNL     1      -0.016  -5.396   2.689  0.00  0.00    -0.011 C 
BRANCH  16  18
ATOM     18  C   UNL     1       2.474  -5.420   2.487  0.00  0.00    +0.140 C 
BRANCH  18  19
ATOM     19  O   UNL     1       2.527  -5.754   3.875  0.00  0.00    -0.397 OA
ATOM     20  H   UNL     1       3.306  -6.267   4.128  0.00  0.00    +0.209 HD
ENDBRANCH  18  19
ENDBRANCH  16  18
ENDBRANCH  13  16
ENDBRANCH  11  13
TORSDOF 4
