REMARK  Name = ZINC44713649
REMARK  10 active torsions:
REMARK  status: ('A' for Active; 'I' for Inactive)
REMARK    1  A    between atoms: C_1  and  C_2
REMARK    2  A    between atoms: C_3  and  C_9
REMARK    3  A    between atoms: C_4  and  C_8
REMARK    4  A    between atoms: C_9  and  C_11
REMARK    5  A    between atoms: C_9  and  N_12
REMARK    6  A    between atoms: C_13  and  C_15
REMARK    7  A    between atoms: C_26  and  C_28
REMARK    8  A    between atoms: C_33  and  O_34
REMARK    9  A    between atoms: O_34  and  C_35
REMARK   10  A    between atoms: C_35  and  C_37
REMARK                            x       y       z     vdW  Elec       q    Type
REMARK                         _______ _______ _______ _____ _____    ______ ____
ROOT
ATOM      1  C   UNL     1      -2.730  -1.510  -5.472  0.00  0.00    +0.100 C 
ATOM      2  C   UNL     1      -1.988  -2.822  -5.811  0.00  0.00    +0.121 C 
ATOM      3  N   UNL     1      -2.502  -3.208  -7.147  0.00  0.00    -0.296 N 
ATOM      4  C   UNL     1      -2.617  -1.926  -7.882  0.00  0.00    +0.115 C 
ATOM      5  C   UNL     1      -3.141  -0.925  -6.833  0.00  0.00    -0.004 C 
ATOM      6  C   UNL     1      -2.492   0.441  -7.038  0.00  0.00    -0.010 C 
ATOM      7  C   UNL     1      -2.961   1.029  -8.372  0.00  0.00    -0.082 C 
ATOM      8  N   UNL     1      -4.423   1.155  -8.366  0.00  0.00    +0.379 N 
ATOM      9  C   UNL     1      -5.040  -0.172  -8.262  0.00  0.00    -0.082 C 
ATOM     10  C   UNL     1      -4.660  -0.811  -6.923  0.00  0.00    -0.010 C 
ATOM     11  C   UNL     1      -2.799  -4.445  -7.592  0.00  0.00    +0.250 C 
ATOM     12  O   UNL     1      -3.118  -4.613  -8.753  0.00  0.00    -0.270 OA
ATOM     13  H   UNL     1      -4.707   1.720  -7.579  0.00  0.00    -0.086 HD
ATOM     14  H   UNL     1      -4.725   1.599  -9.221  0.00  0.00    -0.086 HD
ENDROOT
BRANCH  11  15
ATOM     15  C   UNL     1      -2.736  -5.596  -6.670  0.00  0.00    +0.079 A 
ATOM     16  C   UNL     1      -1.749  -5.653  -5.684  0.00  0.00    +0.017 A 
ATOM     17  C   UNL     1      -1.696  -6.730  -4.826  0.00  0.00    +0.001 A 
ATOM     18  C   UNL     1      -2.618  -7.758  -4.936  0.00  0.00    +0.004 A 
ATOM     19  C   UNL     1      -3.600  -7.713  -5.907  0.00  0.00    +0.047 A 
ATOM     20  C   UNL     1      -3.671  -6.635  -6.775  0.00  0.00    +0.144 A 
BRANCH  20  21
ATOM     21  O   UNL     1      -4.638  -6.588  -7.726  0.00  0.00    -0.425 OA
BRANCH  21  22
ATOM     22  C   UNL     1      -5.758  -5.898  -7.453  0.00  0.00    +0.309 C 
ATOM     23  O   UNL     1      -5.848  -5.277  -6.420  0.00  0.00    -0.251 OA
ATOM     24  C   UNL     1      -6.901  -5.897  -8.434  0.00  0.00    +0.136 C 
ENDBRANCH  21  22
ENDBRANCH  20  21
ENDBRANCH  11  15
BRANCH   1  26
ATOM     25  N   UNL     1      -2.325   0.401  -3.954  0.00  0.00    -0.308 N 
ATOM     26  C   UNL     1      -1.812  -0.560  -4.747  0.00  0.00    +0.219 C 
ATOM     27  O   UNL     1      -0.610  -0.661  -4.878  0.00  0.00    -0.275 OA
ATOM     28  H   UNL     1      -3.286   0.481  -3.850  0.00  0.00    +0.149 HD
BRANCH  25  29
ATOM     29  C   UNL     1      -1.432   1.324  -3.250  0.00  0.00    +0.104 C 
ATOM     30  C   UNL     1      -0.921   0.662  -1.969  0.00  0.00    +0.033 C 
BRANCH  29  33
ATOM     31  C   UNL     1      -4.325   1.472  -2.069  0.00  0.00    +0.065 C 
ATOM     32  C   UNL     1      -3.436   2.645  -2.389  0.00  0.00    +0.038 A 
ATOM     33  C   UNL     1      -2.184   2.582  -2.901  0.00  0.00    +0.015 A 
ATOM     34  C   UNL     1      -1.713   3.891  -3.047  0.00  0.00    +0.065 A 
ATOM     35  N   UNL     1      -2.647   4.710  -2.638  0.00  0.00    -0.179 NA
ATOM     36  N   UNL     1      -3.747   3.948  -2.223  0.00  0.00    -0.281 N 
ATOM     37  H   UNL     1      -4.583   4.295  -1.875  0.00  0.00    +0.189 HD
ATOM     38  C   UNL     1      -0.361   4.288  -3.582  0.00  0.00    +0.068 C 
ENDBRANCH  29  33
ENDBRANCH  25  29
ENDBRANCH   1  26
TORSDOF 6
