REMARK  Name = ZINC34757707
REMARK  6 active torsions:
REMARK  status: ('A' for Active; 'I' for Inactive)
REMARK    1  A    between atoms: C_4  and  N_7
REMARK    2  A    between atoms: C_8  and  C_10
REMARK    3  A    between atoms: C_10  and  N_11
REMARK    4  A    between atoms: C_24  and  S_26
REMARK    5  A    between atoms: S_26  and  C_27
REMARK    6  A    between atoms: C_27  and  C_28
REMARK                            x       y       z     vdW  Elec       q    Type
REMARK                         _______ _______ _______ _____ _____    ______ ____
ROOT
ATOM      1  N   UNL     1       4.646  -3.528  -3.618  0.00  0.00    +0.387 N 
ATOM      2  C   UNL     1       5.746  -3.302  -2.671  0.00  0.00    -0.059 C 
ATOM      3  C   UNL     1       6.280  -4.651  -2.178  0.00  0.00    +0.088 C 
ATOM      4  N   UNL     1       6.644  -5.464  -3.349  0.00  0.00    -0.318 N 
ATOM      5  C   UNL     1       5.654  -5.609  -4.427  0.00  0.00    +0.088 C 
ATOM      6  C   UNL     1       5.150  -4.214  -4.814  0.00  0.00    -0.059 C 
ATOM      7  C   UNL     1       7.882  -6.075  -3.433  0.00  0.00    +0.134 A 
ATOM      8  C   UNL     1       8.053  -7.420  -3.002  0.00  0.00    +0.051 A 
ATOM      9  C   UNL     1       7.045  -8.333  -2.437  0.00  0.00    -0.025 A 
ATOM     10  C   UNL     1       7.461  -9.565  -2.104  0.00  0.00    -0.004 A 
ATOM     11  S   UNL     1       9.191  -9.595  -2.514  0.00  0.00    -0.073 S 
ATOM     12  C   UNL     1       9.352  -7.942  -3.132  0.00  0.00    +0.115 A 
ATOM     13  N   UNL     1      10.341  -7.221  -3.624  0.00  0.00    -0.214 NA
ATOM     14  C   UNL     1      10.126  -5.971  -4.012  0.00  0.00    +0.191 A 
ATOM     15  N   UNL     1       8.922  -5.418  -3.920  0.00  0.00    -0.206 NA
ATOM     16  C   UNL     1       6.350 -10.406  -1.535  0.00  0.00    +0.043 C 
ATOM     17  C   UNL     1       5.252  -9.390  -1.151  0.00  0.00    +0.010 C 
ATOM     18  C   UNL     1       5.551  -8.227  -2.118  0.00  0.00    +0.037 C 
ATOM     19  H   UNL     1       3.939  -4.097  -3.178  0.00  0.00    -0.081 HD
ENDROOT
BRANCH   1  20
ATOM     20  C   UNL     1       4.063  -2.237  -4.005  0.00  0.00    +0.019 C 
BRANCH  20  22
ATOM     21  N   UNL     1       2.836  -0.385  -2.916  0.00  0.00    -0.314 N 
ATOM     22  C   UNL     1       3.437  -1.586  -2.799  0.00  0.00    +0.197 C 
ATOM     23  O   UNL     1       3.473  -2.143  -1.722  0.00  0.00    -0.278 OA
ATOM     24  H   UNL     1       2.808   0.060  -3.777  0.00  0.00    +0.149 HD
BRANCH  21  28
ATOM     25  C   UNL     1       0.126   1.894  -0.537  0.00  0.00    +0.000 C 
ATOM     26  C   UNL     1       1.550   2.424  -0.721  0.00  0.00    +0.002 C 
ATOM     27  C   UNL     1       2.186   1.763  -1.946  0.00  0.00    +0.022 C 
ATOM     28  C   UNL     1       2.227   0.247  -1.744  0.00  0.00    +0.073 C 
ATOM     29  C   UNL     1       0.804  -0.282  -1.560  0.00  0.00    +0.022 C 
ATOM     30  C   UNL     1       0.168   0.378  -0.335  0.00  0.00    +0.002 C 
ENDBRANCH  21  28
ENDBRANCH  20  22
ENDBRANCH   1  20
BRANCH  14  31
ATOM     31  S   UNL     1      11.462  -5.027  -4.666  0.00  0.00    -0.077 S 
BRANCH  31  32
ATOM     32  C   UNL     1      12.873  -6.165  -4.606  0.00  0.00    +0.172 C 
BRANCH  32  33
ATOM     33  C   UNL     1      14.099  -5.473  -5.145  0.00  0.00    +0.221 C 
ATOM     34  O   UNL     1      14.028  -4.325  -5.531  0.00  0.00    -0.275 OA
ATOM     35  N   UNL     1      15.275  -6.130  -5.198  0.00  0.00    -0.329 N 
ATOM     36  H   UNL     1      15.332  -7.047  -4.889  0.00  0.00    +0.145 HD
ATOM     37  H   UNL     1      16.064  -5.684  -5.545  0.00  0.00    +0.145 HD
ENDBRANCH  32  33
ENDBRANCH  31  32
ENDBRANCH  14  31
TORSDOF 6
