REMARK  Name = ZINC12858054
REMARK  11 active torsions:
REMARK  status: ('A' for Active; 'I' for Inactive)
REMARK    1  A    between atoms: C_1  and  C_2
REMARK    2  A    between atoms: C_5  and  C_8
REMARK    3  A    between atoms: C_8  and  C_10
REMARK    4  A    between atoms: C_8  and  N_15
REMARK    5  A    between atoms: C_16  and  C_18
REMARK    6  A    between atoms: C_18  and  N_50
REMARK    7  A    between atoms: C_19  and  C_20
REMARK    8  A    between atoms: C_19  and  N_50
REMARK    9  A    between atoms: C_23  and  C_24
REMARK   10  A    between atoms: C_23  and  C_25
REMARK   11  A    between atoms: C_23  and  N_50
REMARK                            x       y       z     vdW  Elec       q    Type
REMARK                         _______ _______ _______ _____ _____    ______ ____
ROOT
ATOM      1  N   UNL     1       1.970   5.508   0.887  0.00  0.00    -0.306 N 
ATOM      2  C   UNL     1       1.846   5.610   2.226  0.00  0.00    +0.197 C 
ATOM      3  O   UNL     1       0.744   5.636   2.732  0.00  0.00    -0.278 OA
ATOM      4  H   UNL     1       2.851   5.488   0.482  0.00  0.00    +0.150 HD
ENDROOT
BRANCH   1   5
ATOM      5  C   UNL     1       0.775   5.429   0.045  0.00  0.00    +0.140 C 
BRANCH   5  10
ATOM      6  C   UNL     1       2.028   7.346  -5.261  0.00  0.00    +0.044 C 
ATOM      7  C   UNL     1       1.701   6.846  -3.877  0.00  0.00    -0.050 A 
ATOM      8  C   UNL     1       0.491   7.170  -3.293  0.00  0.00    +0.004 A 
ATOM      9  C   UNL     1       0.191   6.712  -2.024  0.00  0.00    +0.006 A 
ATOM     10  C   UNL     1       1.101   5.929  -1.339  0.00  0.00    -0.022 A 
ATOM     11  C   UNL     1       2.314   5.609  -1.921  0.00  0.00    +0.006 A 
ATOM     12  C   UNL     1       2.612   6.064  -3.192  0.00  0.00    +0.004 A 
ENDBRANCH   5  10
BRANCH   5  13
ATOM     13  C   UNL     1       0.310   3.998  -0.035  0.00  0.00    +0.014 A 
ATOM     14  C   UNL     1      -0.954   3.509  -0.013  0.00  0.00    +0.013 A 
ATOM     15  C   UNL     1      -1.145   2.143  -0.106  0.00  0.00    +0.008 A 
ATOM     16  C   UNL     1      -0.063   1.333  -0.206  0.00  0.00    +0.045 A 
ATOM     17  S   UNL     1       1.281   2.507  -0.183  0.00  0.00    -0.099 S 
ENDBRANCH   5  13
ENDBRANCH   1   5
BRANCH   2  18
ATOM     18  C   UNL     1       3.076   5.691   3.093  0.00  0.00    +0.020 C 
BRANCH  18  19
ATOM     19  N   UNL     1       2.655   5.917   4.491  0.00  0.00    +0.393 N 
ATOM     20  H   UNL     1       1.891   6.603   4.503  0.00  0.00    -0.080 HD
BRANCH  19  21
ATOM     21  C   UNL     1       3.787   6.447   5.280  0.00  0.00    -0.074 C 
ATOM     22  C   UNL     1       5.042   5.601   5.052  0.00  0.00    -0.013 C 
ATOM     23  C   UNL     1       4.059   7.888   4.846  0.00  0.00    -0.013 C 
ENDBRANCH  19  21
BRANCH  19  24
ATOM     24  C   UNL     1       2.174   4.652   5.085  0.00  0.00    +0.019 C 
BRANCH  24  25
ATOM     25  C   UNL     1       1.550   4.949   6.424  0.00  0.00    +0.194 C 
ATOM     26  O   UNL     1       1.526   6.087   6.842  0.00  0.00    -0.278 OA
ATOM     27  N   UNL     1       1.018   3.951   7.156  0.00  0.00    -0.331 N 
ATOM     28  H   UNL     1       1.037   3.041   6.821  0.00  0.00    +0.145 HD
ATOM     29  H   UNL     1       0.616   4.142   8.018  0.00  0.00    +0.145 HD
ENDBRANCH  24  25
ENDBRANCH  19  24
ENDBRANCH  18  19
ENDBRANCH   2  18
TORSDOF 8
