REMARK  Name = ZINC51717585
REMARK  9 active torsions:
REMARK  status: ('A' for Active; 'I' for Inactive)
REMARK    1  A    between atoms: C_1  and  C_2
REMARK    2  A    between atoms: C_2  and  C_3
REMARK    3  A    between atoms: C_6  and  C_8
REMARK    4  A    between atoms: C_8  and  N_9
REMARK    5  A    between atoms: N_9  and  C_10
REMARK    6  A    between atoms: C_10  and  C_12
REMARK    7  A    between atoms: C_10  and  C_13
REMARK    8  A    between atoms: C_16  and  S_19
REMARK    9  A    between atoms: S_19  and  N_22
REMARK                            x       y       z     vdW  Elec       q    Type
REMARK                         _______ _______ _______ _____ _____    ______ ____
ROOT
ATOM      1  C   UNL     1      -6.464  -3.875   1.707  0.00  0.00    -0.044 C 
ATOM      2  C   UNL     1      -7.553  -3.624   0.662  0.00  0.00    -0.009 C 
ENDROOT
BRANCH   1   3
ATOM      3  C   UNL     1      -6.374  -5.352   1.994  0.00  0.00    -0.062 A 
ATOM      4  C   UNL     1      -5.683  -6.182   1.131  0.00  0.00    +0.004 A 
ATOM      5  C   UNL     1      -5.600  -7.537   1.394  0.00  0.00    +0.029 A 
ATOM      6  C   UNL     1      -6.208  -8.061   2.520  0.00  0.00    +0.105 A 
ATOM      7  C   UNL     1      -6.899  -7.230   3.382  0.00  0.00    +0.029 A 
ATOM      8  C   UNL     1      -6.977  -5.875   3.122  0.00  0.00    +0.004 A 
BRANCH   6   9
ATOM      9  S   UNL     1      -6.104  -9.788   2.854  0.00  0.00    +0.056 S 
ATOM     10  O   UNL     1      -7.217 -10.110   3.677  0.00  0.00    -0.153 OA
ATOM     11  O   UNL     1      -5.867 -10.429   1.609  0.00  0.00    -0.153 OA
BRANCH   9  12
ATOM     12  N   UNL     1      -4.749 -10.027   3.776  0.00  0.00    -0.204 NA
ATOM     13  H   UNL     1      -4.719 -10.757   4.414  0.00  0.00    +0.144 HD
ATOM     14  H   UNL     1      -3.985  -9.437   3.678  0.00  0.00    +0.144 HD
ENDBRANCH   9  12
ENDBRANCH   6   9
ENDBRANCH   1   3
BRANCH   1  15
ATOM     15  N   UNL     1      -5.173  -3.396   1.194  0.00  0.00    +0.386 N 
ATOM     16  H   UNL     1      -4.984  -3.830   0.303  0.00  0.00    -0.085 HD
ATOM     17  H   UNL     1      -4.442  -3.636   1.847  0.00  0.00    -0.085 HD
BRANCH  15  18
ATOM     18  C   UNL     1      -5.223  -1.938   1.027  0.00  0.00    -0.039 C 
BRANCH  18  22
ATOM     19  C   UNL     1      -1.412  -0.526   0.013  0.00  0.00    -0.010 A 
ATOM     20  C   UNL     1      -2.221  -0.821  -1.034  0.00  0.00    +0.011 A 
ATOM     21  C   UNL     1      -3.495  -1.293  -0.784  0.00  0.00    +0.009 A 
ATOM     22  C   UNL     1      -3.899  -1.446   0.501  0.00  0.00    -0.027 A 
ATOM     23  S   UNL     1      -2.453  -0.923   1.407  0.00  0.00    -0.100 S 
BRANCH  19  25
ATOM     24  C   UNL     1      -0.019   1.526   0.010  0.00  0.00    +0.009 C 
ATOM     25  C   UNL     1       0.002  -0.004   0.002  0.00  0.00    +0.039 C 
ENDBRANCH  19  25
ENDBRANCH  18  22
ENDBRANCH  15  18
ENDBRANCH   1  15
TORSDOF 7
