REMARK  Name = ZINC16890428
REMARK  9 active torsions:
REMARK  status: ('A' for Active; 'I' for Inactive)
REMARK    1  A    between atoms: C_1  and  C_2
REMARK    2  A    between atoms: N_4  and  C_5
REMARK    3  A    between atoms: C_7  and  O_37
REMARK    4  A    between atoms: C_9  and  O_36
REMARK    5  A    between atoms: C_11  and  C_34
REMARK    6  A    between atoms: C_14  and  N_16
REMARK    7  A    between atoms: N_19  and  C_28
REMARK    8  A    between atoms: C_20  and  C_22
REMARK    9  A    between atoms: C_34  and  O_35
REMARK                            x       y       z     vdW  Elec       q    Type
REMARK                         _______ _______ _______ _____ _____    ______ ____
ROOT
ATOM      1  C   UNL     1       1.603   3.706  -0.170  0.00  0.00    +0.155 C 
ATOM      2  C   UNL     1       2.164   2.318   0.154  0.00  0.00    +0.170 C 
ATOM      3  C   UNL     1       1.004   1.376   0.489  0.00  0.00    +0.176 C 
ATOM      4  C   UNL     1       0.024   1.347  -0.686  0.00  0.00    +0.177 C 
ATOM      5  O   UNL     1      -0.436   2.673  -0.954  0.00  0.00    -0.345 OA
ATOM      6  C   UNL     1       0.600   3.587  -1.320  0.00  0.00    +0.262 C 
ENDROOT
BRANCH   6   7
ATOM      7  N   UNL     1       1.286   3.095  -2.517  0.00  0.00    -0.209 N 
ATOM      8  C   UNL     1       2.139   3.795  -3.292  0.00  0.00    +0.185 A 
ATOM      9  S   UNL     1       2.618   5.422  -3.053  0.00  0.00    -0.011 S 
ATOM     10  N   UNL     1       2.550   2.983  -4.286  0.00  0.00    -0.271 N 
ATOM     11  C   UNL     1       1.930   1.757  -4.127  0.00  0.00    +0.167 A 
ATOM     12  N   UNL     1       1.169   1.812  -3.070  0.00  0.00    -0.148 NA
BRANCH  11  13
ATOM     13  C   UNL     1       2.101   0.581  -5.008  0.00  0.00    +0.020 A 
ATOM     14  C   UNL     1       2.618   0.739  -6.295  0.00  0.00    +0.011 A 
ATOM     15  C   UNL     1       2.780  -0.362  -7.110  0.00  0.00    +0.001 A 
ATOM     16  C   UNL     1       2.422  -1.619  -6.658  0.00  0.00    +0.000 A 
ATOM     17  C   UNL     1       1.904  -1.782  -5.386  0.00  0.00    +0.001 A 
ATOM     18  C   UNL     1       1.742  -0.690  -4.559  0.00  0.00    +0.011 A 
ENDBRANCH  11  13
BRANCH  10  19
ATOM     19  C   UNL     1       3.446   3.324  -5.308  0.00  0.00    +0.050 A 
ATOM     20  C   UNL     1       4.704   2.739  -5.353  0.00  0.00    +0.026 A 
ATOM     21  C   UNL     1       5.583   3.073  -6.364  0.00  0.00    +0.002 A 
ATOM     22  C   UNL     1       5.215   3.997  -7.325  0.00  0.00    +0.000 A 
ATOM     23  C   UNL     1       3.964   4.585  -7.280  0.00  0.00    +0.002 A 
ATOM     24  C   UNL     1       3.079   4.251  -6.274  0.00  0.00    +0.026 A 
ENDBRANCH  10  19
ENDBRANCH   6   7
BRANCH   1  28
ATOM     25  C   UNL     1       0.953   5.461   3.170  0.00  0.00    +0.109 C 
ATOM     26  C   UNL     1       1.644   4.901   1.954  0.00  0.00    +0.210 C 
ATOM     27  O   UNL     1       2.842   5.035   1.821  0.00  0.00    -0.276 OA
ATOM     28  N   UNL     1       0.931   4.251   1.013  0.00  0.00    -0.306 N 
ATOM     29  H   UNL     1      -0.027   4.143   1.119  0.00  0.00    +0.149 HD
ENDBRANCH   1  28
BRANCH   3  30
ATOM     30  O   UNL     1       0.332   1.844   1.661  0.00  0.00    -0.387 OA
ATOM     31  H   UNL     1      -0.416   1.295   1.931  0.00  0.00    +0.210 HD
ENDBRANCH   3  30
BRANCH   2  32
ATOM     32  O   UNL     1       2.878   1.814  -0.977  0.00  0.00    -0.387 OA
ATOM     33  H   UNL     1       3.255   0.934  -0.843  0.00  0.00    +0.210 HD
ENDBRANCH   2  32
BRANCH   4  34
ATOM     34  C   UNL     1      -1.168   0.455  -0.335  0.00  0.00    +0.190 C 
BRANCH  34  35
ATOM     35  O   UNL     1      -2.025   0.334  -1.473  0.00  0.00    -0.392 OA
ATOM     36  H   UNL     1      -2.803  -0.219  -1.322  0.00  0.00    +0.210 HD
ENDBRANCH  34  35
ENDBRANCH   4  34
TORSDOF 8
