REMARK  Name = ZINC37619914
REMARK  11 active torsions:
REMARK  status: ('A' for Active; 'I' for Inactive)
REMARK    1  A    between atoms: C_1  and  C_2
REMARK    2  A    between atoms: C_2  and  C_3
REMARK    3  A    between atoms: C_3  and  C_4
REMARK    4  A    between atoms: C_4  and  C_5
REMARK    5  A    between atoms: C_5  and  C_7
REMARK    6  A    between atoms: C_5  and  N_22
REMARK    7  A    between atoms: N_9  and  C_10
REMARK    8  A    between atoms: C_13  and  C_17
REMARK    9  A    between atoms: C_17  and  O_19
REMARK   10  A    between atoms: O_19  and  C_20
REMARK   11  A    between atoms: C_20  and  C_21
REMARK                            x       y       z     vdW  Elec       q    Type
REMARK                         _______ _______ _______ _____ _____    ______ ____
ROOT
ATOM      1  C   UNL     1       1.583  -4.021  -2.471  0.00  0.00    +0.203 C 
ATOM      2  O   UNL     1       0.814  -4.718  -3.099  0.00  0.00    -0.277 OA
ATOM      3  N   UNL     1       2.559  -4.589  -1.736  0.00  0.00    -0.286 N 
ATOM      4  H   UNL     1       3.223  -4.033  -1.299  0.00  0.00    +0.155 HD
ENDROOT
BRANCH   3   5
ATOM      5  C   UNL     1       2.616  -5.976  -1.605  0.00  0.00    +0.047 A 
ATOM      6  C   UNL     1       1.460  -6.735  -1.756  0.00  0.00    +0.025 A 
ATOM      7  C   UNL     1       1.512  -8.105  -1.626  0.00  0.00    +0.017 A 
ATOM      8  C   UNL     1       2.728  -8.733  -1.343  0.00  0.00    +0.060 A 
ATOM      9  C   UNL     1       3.888  -7.968  -1.192  0.00  0.00    +0.032 A 
ATOM     10  C   UNL     1       3.830  -6.599  -1.328  0.00  0.00    +0.040 A 
ATOM     11 BR   UNL     1       5.400  -5.562  -1.132  0.00  0.00    -0.048 Br
BRANCH   8  12
ATOM     12  C   UNL     1       2.787 -10.200  -1.203  0.00  0.00    +0.339 C 
ATOM     13  O   UNL     1       1.778 -10.864  -1.335  0.00  0.00    -0.245 OA
BRANCH  12  14
ATOM     14  O   UNL     1       3.960 -10.804  -0.930  0.00  0.00    -0.461 OA
BRANCH  14  15
ATOM     15  C   UNL     1       3.943 -12.228  -0.808  0.00  0.00    +0.229 C 
ATOM     16  C   UNL     1       5.356 -12.730  -0.499  0.00  0.00    +0.048 C 
ENDBRANCH  14  15
ENDBRANCH  12  14
ENDBRANCH   8  12
ENDBRANCH   3   5
BRANCH   1  17
ATOM     17  C   UNL     1       1.447  -2.521  -2.513  0.00  0.00    +0.013 C 
BRANCH  17  18
ATOM     18  N   UNL     1       0.672  -2.132  -3.699  0.00  0.00    +0.386 N 
ATOM     19  H   UNL     1       1.148  -2.450  -4.530  0.00  0.00    -0.089 HD
ATOM     20  H   UNL     1      -0.244  -2.552  -3.655  0.00  0.00    -0.089 HD
ATOM     21  H   UNL     1       0.581  -1.128  -3.727  0.00  0.00    -0.089 HD
ENDBRANCH  17  18
BRANCH  17  22
ATOM     22  C   UNL     1       0.726  -2.039  -1.252  0.00  0.00    -0.007 C 
BRANCH  22  23
ATOM     23  C   UNL     1       0.698  -0.509  -1.234  0.00  0.00    -0.001 C 
BRANCH  23  25
ATOM     24  C   UNL     1      -0.051   1.502   0.045  0.00  0.00    +0.004 C 
ATOM     25  C   UNL     1      -0.023  -0.028   0.026  0.00  0.00    -0.003 C 
ENDBRANCH  23  25
ENDBRANCH  22  23
ENDBRANCH  17  22
ENDBRANCH   1  17
TORSDOF 9
