REMARK  Name = ZINC36256136
REMARK  7 active torsions:
REMARK  status: ('A' for Active; 'I' for Inactive)
REMARK    1  A    between atoms: C_1  and  C_2
REMARK    2  A    between atoms: C_2  and  C_3
REMARK    3  A    between atoms: C_2  and  C_4
REMARK    4  A    between atoms: C_5  and  C_19
REMARK    5  A    between atoms: C_7  and  C_12
REMARK    6  A    between atoms: C_19  and  C_20
REMARK    7  A    between atoms: C_20  and  N_21
REMARK                            x       y       z     vdW  Elec       q    Type
REMARK                         _______ _______ _______ _____ _____    ______ ____
ROOT
ATOM      1  C   UNL     1      -1.412  -0.526   0.013  0.00  0.00    +0.066 A 
ATOM      2  C   UNL     1      -1.968  -1.308  -0.927  0.00  0.00    +0.046 A 
ATOM      3  N   UNL     1      -3.281  -1.564  -0.542  0.00  0.00    -0.290 N 
ATOM      4  C   UNL     1      -4.377  -2.264  -1.016  0.00  0.00    +0.062 A 
ATOM      5  C   UNL     1      -5.530  -2.270  -0.321  0.00  0.00    +0.075 A 
ATOM      6  S   UNL     1      -5.118  -1.254   1.089  0.00  0.00    -0.057 S 
ATOM      7  C   UNL     1      -3.435  -0.897   0.643  0.00  0.00    +0.178 A 
ATOM      8  N   UNL     1      -2.327  -0.292   0.966  0.00  0.00    -0.226 NA
ENDROOT
BRANCH   4   9
ATOM      9  C   UNL     1      -4.281  -3.006  -2.291  0.00  0.00    -0.000 A 
ATOM     10  C   UNL     1      -3.422  -4.101  -2.401  0.00  0.00    +0.013 A 
ATOM     11  C   UNL     1      -3.337  -4.791  -3.593  0.00  0.00    +0.039 A 
ATOM     12  C   UNL     1      -4.102  -4.398  -4.680  0.00  0.00    +0.123 A 
ATOM     13  C   UNL     1      -4.955  -3.312  -4.576  0.00  0.00    +0.039 A 
ATOM     14  C   UNL     1      -5.053  -2.619  -3.387  0.00  0.00    +0.013 A 
ATOM     15  F   UNL     1      -4.014  -5.077  -5.845  0.00  0.00    -0.205 F 
ENDBRANCH   4   9
BRANCH   1  17
ATOM     16  C   UNL     1      -0.019   1.526   0.010  0.00  0.00    +0.014 C 
ATOM     17  C   UNL     1       0.002  -0.004   0.002  0.00  0.00    +0.033 C 
ATOM     18  C   UNL     1       0.742  -0.511   1.242  0.00  0.00    +0.014 C 
ENDBRANCH   1  17
BRANCH   2  19
ATOM     19  C   UNL     1      -1.292  -1.817  -2.174  0.00  0.00    +0.036 C 
BRANCH  19  20
ATOM     20  C   UNL     1      -1.502  -0.817  -3.312  0.00  0.00    -0.080 C 
BRANCH  20  21
ATOM     21  N   UNL     1      -0.843  -1.313  -4.528  0.00  0.00    +0.378 N 
ATOM     22  H   UNL     1       0.145  -1.422  -4.354  0.00  0.00    -0.090 HD
ATOM     23  H   UNL     1      -1.240  -2.204  -4.786  0.00  0.00    -0.090 HD
ATOM     24  H   UNL     1      -0.981  -0.653  -5.279  0.00  0.00    -0.090 HD
ENDBRANCH  20  21
ENDBRANCH  19  20
ENDBRANCH   2  19
TORSDOF 5
