REMARK  Name = ZINC09329481
REMARK  6 active torsions:
REMARK  status: ('A' for Active; 'I' for Inactive)
REMARK    1  A    between atoms: C_1  and  O_2
REMARK    2  A    between atoms: O_2  and  C_3
REMARK    3  A    between atoms: C_5  and  N_34
REMARK    4  A    between atoms: C_8  and  N_9
REMARK    5  A    between atoms: C_14  and  C_30
REMARK    6  A    between atoms: C_30  and  C_31
REMARK                            x       y       z     vdW  Elec       q    Type
REMARK                         _______ _______ _______ _____ _____    ______ ____
ROOT
ATOM      1  N   UNL     1      -2.229   0.943   0.192  0.00  0.00    -0.206 N 
ATOM      2  C   UNL     1      -1.739   0.679   1.444  0.00  0.00    +0.229 C 
ATOM      3  O   UNL     1      -2.252   0.008   2.314  0.00  0.00    -0.275 OA
ATOM      4  C   UNL     1      -0.419   1.409   1.502  0.00  0.00    +0.074 C 
ATOM      5  C   UNL     1       0.769   0.782   2.226  0.00  0.00    -0.049 C 
ATOM      6  C   UNL     1       1.417   1.391  -0.004  0.00  0.00    +0.050 C 
ATOM      7  C   UNL     1      -0.013   1.086   0.008  0.00  0.00    +0.088 C 
ATOM      8  C   UNL     1      -1.258   1.353  -0.667  0.00  0.00    +0.229 C 
ATOM      9  O   UNL     1      -1.415   1.832  -1.770  0.00  0.00    -0.275 OA
ATOM     10  C   UNL     1       1.781   2.846   0.079  0.00  0.00    -0.028 A 
ATOM     11  C   UNL     1       1.428   3.868   0.932  0.00  0.00    +0.004 A 
ATOM     12  C   UNL     1       1.943   5.138   0.747  0.00  0.00    +0.000 A 
ATOM     13  C   UNL     1       2.816   5.381  -0.298  0.00  0.00    +0.002 A 
ATOM     14  C   UNL     1       3.173   4.362  -1.156  0.00  0.00    +0.023 A 
ATOM     15  C   UNL     1       2.658   3.080  -0.977  0.00  0.00    +0.036 A 
ATOM     16  N   UNL     1       2.867   1.905  -1.701  0.00  0.00    -0.286 N 
ATOM     17  C   UNL     1       2.175   0.867  -1.196  0.00  0.00    +0.211 C 
ATOM     18  O   UNL     1       2.162  -0.270  -1.619  0.00  0.00    -0.277 OA
ATOM     19  H   UNL     1       3.444   1.843  -2.479  0.00  0.00    +0.155 HD
ATOM     20  N   UNL     1       1.859   0.683   1.229  0.00  0.00    +0.394 N 
ATOM     21  H   UNL     1       2.049  -0.304   1.016  0.00  0.00    -0.083 HD
ATOM     22  H   UNL     1       2.711   1.123   1.597  0.00  0.00    -0.083 HD
ENDROOT
BRANCH   1  28
ATOM     23  C   UNL     1      -4.056  -0.401  -0.659  0.00  0.00    +0.144 A 
ATOM     24  C   UNL     1      -5.394  -0.528  -1.001  0.00  0.00    +0.080 A 
ATOM     25  C   UNL     1      -6.250   0.547  -0.856  0.00  0.00    +0.130 A 
ATOM     26  C   UNL     1      -5.777   1.751  -0.365  0.00  0.00    +0.035 A 
ATOM     27  C   UNL     1      -4.446   1.884  -0.018  0.00  0.00    +0.030 A 
ATOM     28  C   UNL     1      -3.581   0.810  -0.160  0.00  0.00    +0.086 A 
BRANCH  25  29
ATOM     29  N   UNL     1      -7.676   0.410  -1.227  0.00  0.00    +0.057 N 
ATOM     30  O   UNL     1      -8.432   1.357  -1.100  0.00  0.00    -0.126 OA
ATOM     31  O   UNL     1      -8.094  -0.649  -1.659  0.00  0.00    -0.126 OA
ENDBRANCH  25  29
BRANCH  23  33
ATOM     32  C   UNL     1      -3.769  -2.666  -1.324  0.00  0.00    +0.277 C 
ATOM     33  O   UNL     1      -3.212  -1.456  -0.807  0.00  0.00    -0.493 OA
ENDBRANCH  23  33
ENDBRANCH   1  28
BRANCH   5  34
ATOM     34  C   UNL     1       1.199   1.673   3.393  0.00  0.00    +0.080 C 
BRANCH  34  35
ATOM     35  C   UNL     1       2.308   0.998   4.158  0.00  0.00    +0.209 C 
ATOM     36  O   UNL     1       2.713  -0.089   3.805  0.00  0.00    -0.276 OA
ATOM     37  N   UNL     1       2.848   1.602   5.235  0.00  0.00    -0.329 N 
ATOM     38  H   UNL     1       2.524   2.471   5.517  0.00  0.00    +0.145 HD
ATOM     39  H   UNL     1       3.562   1.167   5.728  0.00  0.00    +0.145 HD
ENDBRANCH  34  35
ENDBRANCH   5  34
TORSDOF 5
