REMARK  Name = ZINC20504571
REMARK  15 active torsions:
REMARK  status: ('A' for Active; 'I' for Inactive)
REMARK    1  A    between atoms: C_1  and  C_2
REMARK    2  A    between atoms: N_9  and  C_10
REMARK    3  A    between atoms: C_10  and  C_12
REMARK    4  A    between atoms: C_12  and  N_13
REMARK    5  A    between atoms: N_13  and  C_14
REMARK    6  A    between atoms: N_13  and  C_15
REMARK    7  A    between atoms: C_17  and  C_37
REMARK    8  A    between atoms: C_20  and  O_36
REMARK    9  A    between atoms: C_22  and  C_26
REMARK   10  A    between atoms: C_26  and  C_28
REMARK   11  A    between atoms: C_26  and  C_29
REMARK   12  A    between atoms: N_31  and  C_32
REMARK   13  A    between atoms: C_32  and  C_33
REMARK   14  A    between atoms: C_33  and  O_34
REMARK   15  A    between atoms: O_34  and  C_35
REMARK                            x       y       z     vdW  Elec       q    Type
REMARK                         _______ _______ _______ _____ _____    ______ ____
ROOT
ATOM      1  C   UNL     1      -1.449   3.105   0.396  0.00  0.00    +0.014 C 
ATOM      2  C   UNL     1      -0.098   3.647   0.869  0.00  0.00    +0.039 C 
ATOM      3  C   UNL     1      -0.218   5.139   1.141  0.00  0.00    +0.031 A 
ATOM      4  C   UNL     1       0.776   5.982   0.762  0.00  0.00    +0.013 A 
ATOM      5  S   UNL     1       0.171   7.561   1.294  0.00  0.00    -0.057 S 
ATOM      6  C   UNL     1      -1.329   6.998   1.967  0.00  0.00    +0.163 A 
ATOM      7  N   UNL     1      -1.261   5.701   1.746  0.00  0.00    -0.339 N 
ATOM      8  N   UNL     1      -2.340   7.728   2.581  0.00  0.00    -0.158 NA
ATOM      9  C   UNL     1       2.048   5.637   0.070  0.00  0.00    +0.051 C 
ATOM     10  C   UNL     1       2.264   4.113   0.148  0.00  0.00    -0.022 C 
ATOM     11  C   UNL     1       0.957   3.406  -0.219  0.00  0.00    +0.033 C 
ATOM     12  C   UNL     1       1.185   1.894  -0.311  0.00  0.00    +0.123 C 
ATOM     13  C   UNL     1       2.263   1.584  -1.347  0.00  0.00    +0.029 C 
ATOM     14  C   UNL     1       3.572   2.248  -0.909  0.00  0.00    +0.007 C 
ATOM     15  C   UNL     1       3.359   3.760  -0.864  0.00  0.00    +0.008 C 
ATOM     16  C   UNL     1       2.693   3.718   1.562  0.00  0.00    +0.012 C 
ATOM     17  H   UNL     1      -2.104   5.079   2.081  0.00  0.00    +0.167 HD
ENDROOT
BRANCH   8  18
ATOM     18  C   UNL     1      -2.222   9.063   2.714  0.00  0.00    +0.222 C 
ATOM     19  O   UNL     1      -1.232   9.629   2.299  0.00  0.00    -0.276 OA
BRANCH  18  20
ATOM     20  C   UNL     1      -3.318   9.855   3.380  0.00  0.00    +0.020 C 
BRANCH  20  21
ATOM     21  N   UNL     1      -2.952  11.277   3.401  0.00  0.00    +0.382 N 
ATOM     22  C   UNL     1      -2.900  11.828   2.040  0.00  0.00    -0.096 C 
ATOM     23  C   UNL     1      -3.876  12.046   4.245  0.00  0.00    -0.096 C 
ATOM     24  H   UNL     1      -1.946  11.360   3.838  0.00  0.00    -0.082 HD
ENDBRANCH  20  21
ENDBRANCH  18  20
ENDBRANCH   8  18
BRANCH  13  25
ATOM     25  C   UNL     1       2.466   0.070  -1.439  0.00  0.00    +0.077 C 
ATOM     26  C   UNL     1       3.034  -0.450  -0.117  0.00  0.00    +0.017 C 
BRANCH  25  27
ATOM     27  C   UNL     1       3.429  -0.240  -2.556  0.00  0.00    +0.216 C 
ATOM     28  O   UNL     1       3.832   0.650  -3.275  0.00  0.00    -0.276 OA
ATOM     29  N   UNL     1       3.843  -1.507  -2.756  0.00  0.00    -0.313 N 
ATOM     30  H   UNL     1       3.479  -2.314  -2.104  0.00  0.00    +0.149 HD
BRANCH  29  31
ATOM     31  C   UNL     1       4.780  -1.809  -3.842  0.00  0.00    +0.132 C 
BRANCH  31  32
ATOM     32  C   UNL     1       5.085  -3.308  -3.849  0.00  0.00    +0.178 C 
BRANCH  32  33
ATOM     33  O   UNL     1       3.896  -4.035  -4.163  0.00  0.00    -0.381 OA
ATOM     34  C   UNL     1       4.073  -5.453  -4.196  0.00  0.00    +0.194 C 
ENDBRANCH  32  33
ENDBRANCH  31  32
ENDBRANCH  29  31
ENDBRANCH  25  27
ENDBRANCH  13  25
BRANCH  12  35
ATOM     35  O   UNL     1      -0.035   1.255  -0.694  0.00  0.00    -0.391 OA
ATOM     36  H   UNL     1      -0.070   0.162  -0.812  0.00  0.00    +0.210 HD
ENDBRANCH  12  35
TORSDOF 9
