REMARK  Name = ZINC47958857
REMARK  5 active torsions:
REMARK  status: ('A' for Active; 'I' for Inactive)
REMARK    1  A    between atoms: C_1  and  C_2
REMARK    2  A    between atoms: C_2  and  C_4
REMARK    3  A    between atoms: C_2  and  N_7
REMARK    4  A    between atoms: C_10  and  C_13
REMARK    5  A    between atoms: C_13  and  O_14
REMARK                            x       y       z     vdW  Elec       q    Type
REMARK                         _______ _______ _______ _____ _____    ______ ____
ROOT
ATOM      1  N   UNL     1      -1.094  -0.938  -0.287  0.00  0.00    +0.387 N 
ATOM      2  C   UNL     1      -0.559  -2.300  -0.395  0.00  0.00    -0.077 C 
ATOM      3  C   UNL     1      -1.707  -3.288  -0.616  0.00  0.00    -0.013 C 
ATOM      4  C   UNL     1      -2.445  -2.924  -1.907  0.00  0.00    +0.011 C 
ATOM      5  C   UNL     1      -2.934  -1.476  -1.813  0.00  0.00    -0.013 C 
ATOM      6  C   UNL     1      -1.741  -0.556  -1.548  0.00  0.00    -0.077 C 
ATOM      7  H   UNL     1      -1.771  -0.903   0.461  0.00  0.00    -0.081 HD
ENDROOT
BRANCH   1   9
ATOM      8  C   UNL     1      -0.557   1.414   0.134  0.00  0.00    -0.004 C 
ATOM      9  C   UNL     1       0.002  -0.004   0.002  0.00  0.00    +0.016 C 
BRANCH   9  10
ATOM     10  C   UNL     1       0.673  -0.401   1.292  0.00  0.00    +0.197 C 
ATOM     11  O   UNL     1       0.040  -0.974   2.153  0.00  0.00    -0.278 OA
ATOM     12  N   UNL     1       1.977  -0.120   1.487  0.00  0.00    -0.331 N 
ATOM     13  H   UNL     1       2.483   0.338   0.798  0.00  0.00    +0.145 HD
ATOM     14  H   UNL     1       2.409  -0.376   2.317  0.00  0.00    +0.145 HD
ENDBRANCH   9  10
ENDBRANCH   1   9
BRANCH   4  15
ATOM     15  C   UNL     1      -3.642  -3.858  -2.093  0.00  0.00    +0.159 C 
BRANCH  15  16
ATOM     16  O   UNL     1      -4.261  -3.595  -3.354  0.00  0.00    -0.395 OA
ATOM     17  H   UNL     1      -5.029  -4.152  -3.539  0.00  0.00    +0.209 HD
ENDBRANCH  15  16
ENDBRANCH   4  15
TORSDOF 4
