REMARK  Name = ZINC03978067
REMARK  15 active torsions:
REMARK  status: ('A' for Active; 'I' for Inactive)
REMARK    1  A    between atoms: C_1  and  C_2
REMARK    2  A    between atoms: C_2  and  C_3
REMARK    3  A    between atoms: C_3  and  O_46
REMARK    4  A    between atoms: C_5  and  O_31
REMARK    5  A    between atoms: C_12  and  O_13
REMARK    6  A    between atoms: C_21  and  O_22
REMARK    7  A    between atoms: C_25  and  C_27
REMARK    8  A    between atoms: C_27  and  O_29
REMARK    9  A    between atoms: O_29  and  C_30
REMARK   10  A    between atoms: O_31  and  C_32
REMARK   11  A    between atoms: C_35  and  N_76
REMARK   12  A    between atoms: C_37  and  O_43
REMARK   13  A    between atoms: C_39  and  C_42
REMARK   14  A    between atoms: C_44  and  N_76
REMARK   15  A    between atoms: C_45  and  N_76
REMARK                            x       y       z     vdW  Elec       q    Type
REMARK                         _______ _______ _______ _____ _____    ______ ____
ROOT
ATOM      1  C   UNL     1      -1.258  -4.530  -0.559  0.00  0.00    +0.085 C 
ATOM      2  C   UNL     1      -2.528  -3.693  -0.366  0.00  0.00    +0.072 C 
ATOM      3  C   UNL     1      -2.350  -2.370  -1.107  0.00  0.00    +0.158 C 
ATOM      4  C   UNL     1      -1.048  -1.716  -0.723  0.00  0.00    +0.028 A 
ATOM      5  C   UNL     1      -0.022  -2.407  -0.122  0.00  0.00    -0.021 A 
ATOM      6  C   UNL     1       1.167  -1.755   0.198  0.00  0.00    +0.017 A 
ATOM      7  C   UNL     1       1.331  -0.407  -0.080  0.00  0.00    +0.037 A 
ATOM      8  C   UNL     1       0.282   0.308  -0.691  0.00  0.00    +0.075 A 
ATOM      9  C   UNL     1      -0.903  -0.354  -1.007  0.00  0.00    +0.134 A 
ATOM     10  C   UNL     1       0.450   1.744  -0.988  0.00  0.00    +0.202 C 
ATOM     11  O   UNL     1      -0.511   2.428  -1.281  0.00  0.00    -0.286 OA
ATOM     12  C   UNL     1       1.800   2.338  -0.931  0.00  0.00    +0.075 A 
ATOM     13  C   UNL     1       2.851   1.626  -0.321  0.00  0.00    +0.037 A 
ATOM     14  C   UNL     1       4.122   2.185  -0.266  0.00  0.00    +0.012 A 
ATOM     15  C   UNL     1       4.352   3.439  -0.813  0.00  0.00    +0.004 A 
ATOM     16  C   UNL     1       3.327   4.141  -1.412  0.00  0.00    +0.046 A 
ATOM     17  C   UNL     1       2.045   3.600  -1.477  0.00  0.00    +0.128 A 
ATOM     18  C   UNL     1       2.592   0.289   0.255  0.00  0.00    +0.195 C 
ATOM     19  O   UNL     1       3.404  -0.231   0.994  0.00  0.00    -0.287 OA
ATOM     20  C   UNL     1      -0.125  -3.870   0.224  0.00  0.00    +0.160 C 
ENDROOT
BRANCH   1  22
ATOM     21  C   UNL     1      -2.612  -6.611  -0.836  0.00  0.00    +0.007 C 
ATOM     22  C   UNL     1      -1.490  -5.948  -0.035  0.00  0.00    +0.032 C 
ENDBRANCH   1  22
BRANCH   9  23
ATOM     23  O   UNL     1      -1.920   0.326  -1.593  0.00  0.00    -0.506 OA
ATOM     24  H   UNL     1      -1.852   0.381  -2.557  0.00  0.00    +0.292 HD
ENDBRANCH   9  23
BRANCH  17  25
ATOM     25  O   UNL     1       1.041   4.294  -2.067  0.00  0.00    -0.506 OA
ATOM     26  H   UNL     1       0.552   4.869  -1.463  0.00  0.00    +0.292 HD
ENDBRANCH  17  25
BRANCH  20  27
ATOM     27  C   UNL     1      -0.392  -4.015   1.700  0.00  0.00    +0.317 C 
ATOM     28  O   UNL     1      -1.064  -3.193   2.276  0.00  0.00    -0.250 OA
BRANCH  27  29
ATOM     29  O   UNL     1       0.118  -5.057   2.375  0.00  0.00    -0.467 OA
ATOM     30  C   UNL     1      -0.180  -5.132   3.794  0.00  0.00    +0.280 C 
ENDBRANCH  27  29
ENDBRANCH  20  27
BRANCH   1  31
ATOM     31  O   UNL     1      -0.919  -4.578  -1.947  0.00  0.00    -0.387 OA
ATOM     32  H   UNL     1      -1.604  -4.970  -2.505  0.00  0.00    +0.210 HD
ENDBRANCH   1  31
BRANCH   3  33
ATOM     33  O   UNL     1      -3.432  -1.497  -0.777  0.00  0.00    -0.343 OA
BRANCH  33  34
ATOM     34  C   UNL     1      -4.545  -1.586  -1.669  0.00  0.00    +0.250 C 
ATOM     35  C   UNL     1      -5.518  -0.438  -1.388  0.00  0.00    +0.049 C 
ATOM     36  C   UNL     1      -6.736  -0.576  -2.307  0.00  0.00    -0.033 C 
ATOM     37  C   UNL     1      -7.377  -1.949  -2.084  0.00  0.00    +0.130 C 
ATOM     38  C   UNL     1      -6.332  -3.039  -2.338  0.00  0.00    +0.145 C 
ATOM     39  O   UNL     1      -5.213  -2.834  -1.473  0.00  0.00    -0.346 OA
ATOM     40  C   UNL     1      -5.870  -2.973  -3.795  0.00  0.00    +0.040 C 
BRANCH  36  43
ATOM     41  C   UNL     1      -7.128   1.811  -2.197  0.00  0.00    -0.096 C 
ATOM     42  C   UNL     1      -8.937   0.313  -2.787  0.00  0.00    -0.096 C 
ATOM     43  N   UNL     1      -7.718   0.475  -1.966  0.00  0.00    +0.380 N 
ATOM     44  H   UNL     1      -7.969   0.389  -0.975  0.00  0.00    -0.082 HD
ENDBRANCH  36  43
BRANCH  37  45
ATOM     45  O   UNL     1      -7.848  -2.044  -0.738  0.00  0.00    -0.391 OA
ATOM     46  H   UNL     1      -8.263  -2.891  -0.525  0.00  0.00    +0.210 HD
ENDBRANCH  37  45
ENDBRANCH  33  34
ENDBRANCH   3  33
TORSDOF 10
