REMARK  Name = ZINC35359632
REMARK  3 active torsions:
REMARK  status: ('A' for Active; 'I' for Inactive)
REMARK    1  A    between atoms: C_2  and  C_8
REMARK    2  A    between atoms: C_8  and  C_10
REMARK    3  A    between atoms: C_8  and  N_22
REMARK                            x       y       z     vdW  Elec       q    Type
REMARK                         _______ _______ _______ _____ _____    ______ ____
ROOT
ATOM      1  C   UNL     1       1.496   4.056   1.408  0.00  0.00    -0.022 A 
ATOM      2  C   UNL     1       2.770   4.458   1.764  0.00  0.00    +0.010 A 
ATOM      3  C   UNL     1       3.021   4.908   3.045  0.00  0.00    -0.025 A 
ATOM      4  C   UNL     1       1.993   4.957   3.978  0.00  0.00    +0.039 A 
ATOM      5  C   UNL     1       0.715   4.552   3.620  0.00  0.00    +0.062 A 
ATOM      6  C   UNL     1       0.467   4.107   2.334  0.00  0.00    +0.127 A 
ATOM      7  F   UNL     1      -0.777   3.718   1.981  0.00  0.00    -0.205 F 
ATOM      8  N   UNL     1       2.248   5.413   5.275  0.00  0.00    -0.285 N 
ATOM      9  C   UNL     1       3.349   6.141   5.537  0.00  0.00    +0.218 C 
ATOM     10  O   UNL     1       3.563   6.517   6.671  0.00  0.00    -0.275 OA
ATOM     11  C   UNL     1       4.317   6.496   4.441  0.00  0.00    +0.101 C 
ATOM     12  C   UNL     1       4.408   5.348   3.435  0.00  0.00    +0.046 C 
ATOM     13  H   UNL     1       1.628   5.202   5.990  0.00  0.00    +0.155 HD
ENDROOT
BRANCH   1  14
ATOM     14  C   UNL     1       1.226   3.566   0.009  0.00  0.00    -0.009 C 
BRANCH  14  16
ATOM     15  C   UNL     1      -0.017   1.383   0.010  0.00  0.00    +0.020 A 
ATOM     16  C   UNL     1       1.194   2.059   0.002  0.00  0.00    -0.038 A 
ATOM     17  C   UNL     1       2.370   1.334  -0.013  0.00  0.00    +0.113 A 
ATOM     18  N   UNL     1       2.351   0.016  -0.020  0.00  0.00    -0.262 NA
ATOM     19  C   UNL     1       1.219  -0.661  -0.013  0.00  0.00    +0.126 A 
ATOM     20  C   UNL     1       0.002  -0.004   0.002  0.00  0.00    +0.036 A 
ATOM     21 BR   UNL     1      -1.615  -0.984   0.013  0.00  0.00    -0.049 Br
ENDBRANCH  14  16
BRANCH  14  22
ATOM     22  N   UNL     1       2.289   4.037  -0.889  0.00  0.00    +0.385 N 
ATOM     23  H   UNL     1       2.310   5.046  -0.884  0.00  0.00    -0.089 HD
ATOM     24  H   UNL     1       3.178   3.680  -0.574  0.00  0.00    -0.089 HD
ATOM     25  H   UNL     1       2.107   3.709  -1.826  0.00  0.00    -0.089 HD
ENDBRANCH  14  22
ENDBRANCH   1  14
TORSDOF 3
