REMARK  Name = ZINC31154833
REMARK  12 active torsions:
REMARK  status: ('A' for Active; 'I' for Inactive)
REMARK    1  A    between atoms: C_3  and  O_37
REMARK    2  A    between atoms: C_6  and  C_7
REMARK    3  A    between atoms: C_7  and  C_8
REMARK    4  A    between atoms: C_8  and  O_36
REMARK    5  A    between atoms: C_14  and  O_34
REMARK    6  A    between atoms: C_16  and  O_17
REMARK    7  A    between atoms: O_17  and  C_18
REMARK    8  A    between atoms: C_20  and  O_33
REMARK    9  A    between atoms: C_22  and  O_32
REMARK   10  A    between atoms: C_24  and  O_31
REMARK   11  A    between atoms: C_26  and  C_29
REMARK   12  A    between atoms: C_29  and  O_30
REMARK                            x       y       z     vdW  Elec       q    Type
REMARK                         _______ _______ _______ _____ _____    ______ ____
ROOT
ATOM      1  C   UNL     1      -1.746  -1.027  -1.429  0.00  0.00    +0.278 C 
ATOM      2  C   UNL     1      -3.020  -1.845  -1.439  0.00  0.00    +0.241 C 
ATOM      3  O   UNL     1      -4.095  -1.550  -0.959  0.00  0.00    -0.285 OA
ATOM      4  C   UNL     1      -2.666  -3.071  -2.159  0.00  0.00    +0.108 A 
ATOM      5  C   UNL     1      -1.315  -2.981  -2.534  0.00  0.00    +0.142 A 
ATOM      6  C   UNL     1      -0.739  -4.032  -3.234  0.00  0.00    +0.092 A 
ATOM      7  C   UNL     1      -1.488  -5.154  -3.559  0.00  0.00    +0.124 A 
ATOM      8  C   UNL     1      -2.824  -5.246  -3.189  0.00  0.00    +0.092 A 
ATOM      9  C   UNL     1      -3.418  -4.212  -2.491  0.00  0.00    +0.142 A 
ATOM     10  O   UNL     1      -0.773  -1.811  -2.121  0.00  0.00    -0.452 OA
ENDROOT
BRANCH   7  11
ATOM     11  O   UNL     1      -0.909  -6.172  -4.245  0.00  0.00    -0.507 OA
ATOM     12  H   UNL     1      -0.504  -6.846  -3.681  0.00  0.00    +0.292 HD
ENDBRANCH   7  11
BRANCH   1  13
ATOM     13  O   UNL     1      -1.950   0.215  -2.106  0.00  0.00    -0.349 OA
ATOM     14  H   UNL     1      -2.239   0.120  -3.024  0.00  0.00    +0.214 HD
ENDBRANCH   1  13
BRANCH   1  15
ATOM     15  C   UNL     1      -1.293  -0.774   0.011  0.00  0.00    +0.122 C 
BRANCH  15  21
ATOM     16  C   UNL     1      -0.017   1.378   0.010  0.00  0.00    +0.007 A 
ATOM     17  C   UNL     1       1.169   2.087   0.002  0.00  0.00    +0.045 A 
ATOM     18  C   UNL     1       2.380   1.409  -0.013  0.00  0.00    +0.117 A 
ATOM     19  C   UNL     1       2.396   0.022  -0.021  0.00  0.00    +0.045 A 
ATOM     20  C   UNL     1       1.207  -0.681  -0.013  0.00  0.00    +0.007 A 
ATOM     21  C   UNL     1       0.002  -0.004   0.002  0.00  0.00    -0.040 A 
BRANCH  18  22
ATOM     22  O   UNL     1       3.548   2.104  -0.021  0.00  0.00    -0.507 OA
ATOM     23  H   UNL     1       3.895   2.300   0.860  0.00  0.00    +0.292 HD
ENDBRANCH  18  22
ENDBRANCH  15  21
ENDBRANCH   1  15
BRANCH   9  24
ATOM     24  O   UNL     1      -4.722  -4.297  -2.128  0.00  0.00    -0.460 OA
BRANCH  24  25
ATOM     25  C   UNL     1      -5.423  -5.485  -2.500  0.00  0.00    +0.339 C 
ATOM     26  C   UNL     1      -6.832  -5.455  -1.902  0.00  0.00    +0.214 C 
ATOM     27  C   UNL     1      -7.597  -6.703  -2.355  0.00  0.00    +0.180 C 
ATOM     28  C   UNL     1      -7.616  -6.749  -3.886  0.00  0.00    +0.177 C 
ATOM     29  C   UNL     1      -6.177  -6.729  -4.407  0.00  0.00    +0.179 C 
ATOM     30  O   UNL     1      -5.513  -5.559  -3.925  0.00  0.00    -0.331 OA
BRANCH  28  31
ATOM     31  O   UNL     1      -8.266  -7.946  -4.320  0.00  0.00    -0.386 OA
ATOM     32  H   UNL     1      -9.182  -8.026  -4.021  0.00  0.00    +0.210 HD
ENDBRANCH  28  31
BRANCH  27  33
ATOM     33  O   UNL     1      -8.936  -6.648  -1.860  0.00  0.00    -0.386 OA
ATOM     34  H   UNL     1      -8.998  -6.611  -0.896  0.00  0.00    +0.210 HD
ENDBRANCH  27  33
BRANCH  26  35
ATOM     35  O   UNL     1      -6.745  -5.439  -0.476  0.00  0.00    -0.383 OA
ATOM     36  H   UNL     1      -6.269  -4.676  -0.120  0.00  0.00    +0.210 HD
ENDBRANCH  26  35
BRANCH  29  37
ATOM     37  C   UNL     1      -6.189  -6.714  -5.937  0.00  0.00    +0.190 C 
BRANCH  37  38
ATOM     38  O   UNL     1      -4.849  -6.813  -6.425  0.00  0.00    -0.392 OA
ATOM     39  H   UNL     1      -4.780  -6.809  -7.389  0.00  0.00    +0.210 HD
ENDBRANCH  37  38
ENDBRANCH  29  37
ENDBRANCH  24  25
ENDBRANCH   9  24
TORSDOF 12
