REMARK  Name = ZINC61857006
REMARK  3 active torsions:
REMARK  status: ('A' for Active; 'I' for Inactive)
REMARK    1  A    between atoms: C_8  and  S_10
REMARK    2  A    between atoms: S_10  and  C_11
REMARK    3  A    between atoms: C_14  and  C_18
REMARK                            x       y       z     vdW  Elec       q    Type
REMARK                         _______ _______ _______ _____ _____    ______ ____
ROOT
ATOM      1  C   UNL     1       5.542  -3.385   0.013  0.00  0.00    +0.019 A 
ATOM      2  C   UNL     1       5.923  -2.050   0.135  0.00  0.00    +0.016 A 
ATOM      3  C   UNL     1       7.255  -1.707   0.100  0.00  0.00    +0.014 A 
ATOM      4  C   UNL     1       8.227  -2.698  -0.060  0.00  0.00    +0.030 A 
ATOM      5  C   UNL     1       7.843  -4.037  -0.182  0.00  0.00    +0.052 A 
ATOM      6  C   UNL     1       6.507  -4.375  -0.141  0.00  0.00    +0.036 A 
ATOM      7 CL   UNL     1       9.046  -5.272  -0.381  0.00  0.00    -0.083 Cl
ENDROOT
BRANCH   4   8
ATOM      8  C   UNL     1       9.657  -2.332  -0.099  0.00  0.00    +0.096 C 
ATOM      9  N   UNL     1      10.405  -2.680  -1.145  0.00  0.00    -0.387 N 
ATOM     10  N   UNL     1      10.199  -1.653   0.912  0.00  0.00    -0.345 N 
ATOM     11  H   UNL     1      10.019  -3.201  -1.867  0.00  0.00    +0.157 HD
ATOM     12  H   UNL     1       9.654  -1.400   1.674  0.00  0.00    +0.144 HD
ATOM     13  H   UNL     1      11.138  -1.413   0.887  0.00  0.00    +0.144 HD
ATOM     14  H   UNL     1      11.337  -2.412  -1.186  0.00  0.00    +0.157 HD
ENDBRANCH   4   8
BRANCH   1  15
ATOM     15  S   UNL     1       3.836  -3.820   0.059  0.00  0.00    -0.031 S 
BRANCH  15  23
ATOM     16  C   UNL     1       1.538  -4.244  -5.744  0.00  0.00    +0.002 A 
ATOM     17  C   UNL     1       2.788  -3.772  -6.112  0.00  0.00    +0.004 A 
ATOM     18  C   UNL     1       3.742  -3.496  -5.154  0.00  0.00    +0.048 A 
ATOM     19  C   UNL     1       3.451  -3.692  -3.813  0.00  0.00    +0.156 A 
ATOM     20  C   UNL     1       2.187  -4.170  -3.437  0.00  0.00    +0.110 A 
ATOM     21  C   UNL     1       1.231  -4.444  -4.416  0.00  0.00    +0.031 A 
ATOM     22  N   UNL     1       2.193  -4.261  -2.079  0.00  0.00    -0.203 NA
ATOM     23  C   UNL     1       3.363  -3.873  -1.638  0.00  0.00    +0.263 A 
ATOM     24  O   UNL     1       4.151  -3.520  -2.669  0.00  0.00    -0.430 OA
ENDBRANCH  15  23
ENDBRANCH   1  15
TORSDOF 3
