REMARK  Name = ZINC12489742
REMARK  10 active torsions:
REMARK  status: ('A' for Active; 'I' for Inactive)
REMARK    1  A    between atoms: C_1  and  N_63
REMARK    2  A    between atoms: C_12  and  O_16
REMARK    3  A    between atoms: O_16  and  C_17
REMARK    4  A    between atoms: C_17  and  C_19
REMARK    5  A    between atoms: C_22  and  S_25
REMARK    6  A    between atoms: S_25  and  N_28
REMARK    7  A    between atoms: N_28  and  C_29
REMARK    8  A    between atoms: N_28  and  C_32
REMARK    9  A    between atoms: C_29  and  C_30
REMARK   10  A    between atoms: C_32  and  C_33
REMARK                            x       y       z     vdW  Elec       q    Type
REMARK                         _______ _______ _______ _____ _____    ______ ____
ROOT
ATOM      1  O   UNL     1      -4.112   5.866  -7.471  0.00  0.00    -0.422 OA
ENDROOT
BRANCH   1  13
ATOM      2  C   UNL     1      -1.432  -1.030   1.642  0.00  0.00    -0.096 C 
ATOM      3  C   UNL     1      -0.707   0.673   0.081  0.00  0.00    -0.060 C 
ATOM      4  C   UNL     1      -1.048   1.361  -1.244  0.00  0.00    +0.088 C 
ATOM      5  N   UNL     1      -2.352   2.028  -1.124  0.00  0.00    -0.313 N 
ATOM      6  C   UNL     1      -3.407   1.061  -0.791  0.00  0.00    +0.088 C 
ATOM      7  C   UNL     1      -3.065   0.373   0.533  0.00  0.00    -0.060 C 
ATOM      8  C   UNL     1      -2.661   2.720  -2.278  0.00  0.00    +0.162 A 
ATOM      9  N   UNL     1      -1.961   2.832  -3.384  0.00  0.00    -0.225 NA
ATOM     10  C   UNL     1      -2.392   3.549  -4.446  0.00  0.00    +0.081 A 
ATOM     11  C   UNL     1      -1.741   3.748  -5.685  0.00  0.00    +0.032 A 
ATOM     12  C   UNL     1      -2.318   4.510  -6.667  0.00  0.00    +0.048 A 
ATOM     13  C   UNL     1      -3.559   5.113  -6.482  0.00  0.00    +0.133 A 
ATOM     14  C   UNL     1      -4.224   4.939  -5.277  0.00  0.00    +0.063 A 
ATOM     15  C   UNL     1      -3.649   4.176  -4.292  0.00  0.00    +0.044 A 
ATOM     16  S   UNL     1      -4.118   3.686  -2.649  0.00  0.00    -0.052 S 
ATOM     17  N   UNL     1      -1.763  -0.312   0.392  0.00  0.00    +0.380 N 
ATOM     18  H   UNL     1      -1.824  -0.990  -0.376  0.00  0.00    -0.082 HD
ENDBRANCH   1  13
BRANCH   1  19
ATOM     19  C   UNL     1      -4.525   5.216  -8.576  0.00  0.00    +0.344 C 
ATOM     20  O   UNL     1      -4.492   4.002  -8.614  0.00  0.00    -0.245 OA
BRANCH  19  21
ATOM     21  C   UNL     1      -5.017   5.979  -9.741  0.00  0.00    +0.060 A 
ATOM     22  C   UNL     1      -5.062   7.373  -9.697  0.00  0.00    +0.017 A 
ATOM     23  C   UNL     1      -5.518   8.080 -10.791  0.00  0.00    +0.029 A 
ATOM     24  C   UNL     1      -5.942   7.409 -11.924  0.00  0.00    +0.106 A 
ATOM     25  C   UNL     1      -5.906   6.027 -11.972  0.00  0.00    +0.029 A 
ATOM     26  C   UNL     1      -5.446   5.308 -10.888  0.00  0.00    +0.017 A 
BRANCH  24  27
ATOM     27  S   UNL     1      -6.530   8.319 -13.314  0.00  0.00    +0.061 S 
ATOM     28  O   UNL     1      -5.953   9.614 -13.225  0.00  0.00    -0.153 OA
ATOM     29  O   UNL     1      -6.355   7.484 -14.450  0.00  0.00    -0.153 OA
BRANCH  27  30
ATOM     30  N   UNL     1      -8.163   8.513 -13.116  0.00  0.00    -0.169 NA
BRANCH  30  31
ATOM     31  C   UNL     1      -8.680   9.685 -12.405  0.00  0.00    +0.136 C 
BRANCH  31  32
ATOM     32  C   UNL     1      -9.036  10.760 -13.399  0.00  0.00    -0.018 C 
ATOM     33  C   UNL     1     -10.242  11.272 -13.406  0.00  0.00    +0.005 C 
ENDBRANCH  31  32
ENDBRANCH  30  31
BRANCH  30  34
ATOM     34  C   UNL     1      -9.090   7.514 -13.653  0.00  0.00    +0.136 C 
BRANCH  34  35
ATOM     35  C   UNL     1      -9.441   6.523 -12.573  0.00  0.00    -0.018 C 
ATOM     36  C   UNL     1     -10.695   6.303 -12.268  0.00  0.00    +0.005 C 
ENDBRANCH  34  35
ENDBRANCH  30  34
ENDBRANCH  27  30
ENDBRANCH  24  27
ENDBRANCH  19  21
ENDBRANCH   1  19
TORSDOF 9
