REMARK  Name = ZINC32747329
REMARK  8 active torsions:
REMARK  status: ('A' for Active; 'I' for Inactive)
REMARK    1  A    between atoms: C_1  and  C_2
REMARK    2  A    between atoms: C_4  and  C_35
REMARK    3  A    between atoms: C_5  and  N_9
REMARK    4  A    between atoms: C_10  and  C_12
REMARK    5  A    between atoms: C_12  and  N_13
REMARK    6  A    between atoms: C_14  and  C_29
REMARK    7  A    between atoms: C_24  and  C_28
REMARK    8  A    between atoms: C_29  and  N_30
REMARK                            x       y       z     vdW  Elec       q    Type
REMARK                         _______ _______ _______ _____ _____    ______ ____
ROOT
ATOM      1  N   UNL     1       2.279   4.508   0.399  0.00  0.00    -0.289 N 
ATOM      2  C   UNL     1       2.480   5.727   0.961  0.00  0.00    +0.097 A 
ATOM      3  N   UNL     1       1.481   6.532   1.206  0.00  0.00    -0.228 NA
ATOM      4  C   UNL     1       0.232   6.182   0.911  0.00  0.00    +0.116 A 
ATOM      5  C   UNL     1      -0.075   4.942   0.328  0.00  0.00    +0.076 A 
ATOM      6  C   UNL     1       1.044   4.083   0.072  0.00  0.00    +0.263 A 
ATOM      7  O   UNL     1       0.879   2.985  -0.432  0.00  0.00    -0.267 OA
ATOM      8  C   UNL     1      -1.490   4.694   0.061  0.00  0.00    -0.023 A 
ATOM      9  C   UNL     1      -2.358   5.671   0.397  0.00  0.00    -0.004 A 
ATOM     10  S   UNL     1      -1.353   6.962   1.080  0.00  0.00    -0.073 S 
ATOM     11  C   UNL     1      -3.846   5.662   0.227  0.00  0.00    +0.046 C 
ATOM     12  C   UNL     1      -4.218   4.521  -0.731  0.00  0.00    -0.009 C 
ATOM     13  C   UNL     1      -3.483   3.251  -0.291  0.00  0.00    +0.008 C 
ATOM     14  C   UNL     1      -1.986   3.395  -0.570  0.00  0.00    +0.037 C 
ATOM     15  C   UNL     1      -5.729   4.284  -0.686  0.00  0.00    +0.008 C 
ENDROOT
BRANCH   1  16
ATOM     16  C   UNL     1       3.429   3.637   0.142  0.00  0.00    +0.222 C 
BRANCH  16  18
ATOM     17  N   UNL     1       5.032   3.222  -1.694  0.00  0.00    -0.283 N 
ATOM     18  C   UNL     1       3.967   3.910  -1.238  0.00  0.00    +0.237 C 
ATOM     19  O   UNL     1       3.443   4.750  -1.939  0.00  0.00    -0.274 OA
ATOM     20  H   UNL     1       5.559   2.521  -1.031  0.00  0.00    +0.155 HD
BRANCH  17  25
ATOM     21  C   UNL     1       6.801   3.942  -7.038  0.00  0.00    +0.044 C 
ATOM     22  C   UNL     1       6.331   3.750  -5.619  0.00  0.00    -0.049 A 
ATOM     23  C   UNL     1       6.900   4.489  -4.598  0.00  0.00    +0.008 A 
ATOM     24  C   UNL     1       6.472   4.317  -3.296  0.00  0.00    -0.028 A 
ATOM     25  C   UNL     1       5.468   3.400  -3.013  0.00  0.00    +0.055 A 
ATOM     26  C   UNL     1       4.902   2.655  -4.040  0.00  0.00    +0.063 A 
ATOM     27  C   UNL     1       5.332   2.836  -5.341  0.00  0.00    +0.025 A 
ATOM     28 CL   UNL     1       3.652   1.502  -3.690  0.00  0.00    -0.082 Cl
ATOM     29  C   UNL     1       7.093   5.123  -2.185  0.00  0.00    +0.046 C 
ENDBRANCH  17  25
ENDBRANCH  16  18
ENDBRANCH   1  16
BRANCH   2  30
ATOM     30  C   UNL     1       3.881   6.160   1.309  0.00  0.00    -0.003 C 
BRANCH  30  31
ATOM     31  N   UNL     1       3.846   7.504   1.900  0.00  0.00    +0.384 N 
ATOM     32  C   UNL     1       2.885   7.563   3.030  0.00  0.00    -0.078 C 
ATOM     33  C   UNL     1       3.352   8.807   3.828  0.00  0.00    -0.020 C 
ATOM     34  C   UNL     1       4.892   8.731   3.716  0.00  0.00    -0.020 C 
ATOM     35  C   UNL     1       5.162   7.866   2.471  0.00  0.00    -0.078 C 
ATOM     36  H   UNL     1       3.561   8.183   1.083  0.00  0.00    -0.081 HD
ENDBRANCH  30  31
ENDBRANCH   2  30
TORSDOF 5
