REMARK  Name = ZINC09147246
REMARK  12 active torsions:
REMARK  status: ('A' for Active; 'I' for Inactive)
REMARK    1  A    between atoms: C_1  and  C_2
REMARK    2  A    between atoms: C_5  and  S_8
REMARK    3  A    between atoms: S_8  and  N_11
REMARK    4  A    between atoms: N_11  and  C_12
REMARK    5  A    between atoms: C_17  and  C_18
REMARK    6  A    between atoms: C_18  and  N_20
REMARK    7  A    between atoms: N_22  and  C_34
REMARK    8  A    between atoms: C_25  and  O_32
REMARK    9  A    between atoms: C_26  and  O_30
REMARK   10  A    between atoms: O_30  and  C_31
REMARK   11  A    between atoms: O_32  and  C_33
REMARK   12  A    between atoms: C_34  and  C_35
REMARK                            x       y       z     vdW  Elec       q    Type
REMARK                         _______ _______ _______ _____ _____    ______ ____
ROOT
ATOM      1  C   UNL     1      -1.403   2.329  -0.172  0.00  0.00    +0.271 C 
ATOM      2  O   UNL     1      -1.321   3.536  -0.020  0.00  0.00    -0.268 OA
ENDROOT
BRANCH   1   3
ATOM      3  N   UNL     1      -2.604   1.748  -0.265  0.00  0.00    -0.152 NA
ATOM      4  C   UNL     1      -3.707   2.485  -0.190  0.00  0.00    +0.167 A 
ATOM      5  N   UNL     1      -5.002   2.075  -0.263  0.00  0.00    -0.317 N 
ATOM      6  C   UNL     1      -6.028   2.999  -0.164  0.00  0.00    +0.062 A 
ATOM      7  C   UNL     1      -7.413   2.769  -0.214  0.00  0.00    +0.076 A 
ATOM      8  C   UNL     1      -8.306   3.811  -0.098  0.00  0.00    +0.164 A 
ATOM      9  C   UNL     1      -7.862   5.121   0.074  0.00  0.00    +0.163 A 
ATOM     10  C   UNL     1      -6.499   5.371   0.128  0.00  0.00    +0.066 A 
ATOM     11  C   UNL     1      -5.612   4.326   0.010  0.00  0.00    +0.043 A 
ATOM     12  S   UNL     1      -3.842   4.199   0.030  0.00  0.00    -0.052 S 
BRANCH   9  13
ATOM     13  O   UNL     1      -8.755   6.142   0.189  0.00  0.00    -0.491 OA
ATOM     14  C   UNL     1      -8.220   7.455   0.363  0.00  0.00    +0.277 C 
ENDBRANCH   9  13
BRANCH   8  15
ATOM     15  O   UNL     1      -9.641   3.558  -0.151  0.00  0.00    -0.491 OA
ATOM     16  C   UNL     1     -10.037   2.196  -0.329  0.00  0.00    +0.277 C 
ENDBRANCH   8  15
BRANCH   5  17
ATOM     17  C   UNL     1      -5.311   0.654  -0.446  0.00  0.00    +0.151 C 
BRANCH  17  18
ATOM     18  C   UNL     1      -4.204  -0.004  -1.227  0.00  0.00    -0.013 C 
ATOM     19  C   UNL     1      -3.595  -1.057  -0.740  0.00  0.00    +0.005 C 
ENDBRANCH  17  18
ENDBRANCH   5  17
ENDBRANCH   1   3
BRANCH   1  25
ATOM     20  C   UNL     1       1.084   2.116  -0.165  0.00  0.00    +0.060 A 
ATOM     21  C   UNL     1       2.231   1.336  -0.251  0.00  0.00    +0.025 A 
ATOM     22  C   UNL     1       2.126  -0.029  -0.424  0.00  0.00    +0.002 A 
ATOM     23  C   UNL     1       0.881  -0.631  -0.513  0.00  0.00    +0.001 A 
ATOM     24  C   UNL     1      -0.267   0.128  -0.431  0.00  0.00    +0.015 A 
ATOM     25  C   UNL     1      -0.177   1.510  -0.256  0.00  0.00    +0.061 A 
BRANCH  20  26
ATOM     26  N   UNL     1       1.187   3.491   0.009  0.00  0.00    -0.216 N 
ATOM     27  H   UNL     1       0.537   3.961   0.556  0.00  0.00    +0.174 HD
BRANCH  26  28
ATOM     28  S   UNL     1       2.419   4.328  -0.715  0.00  0.00    +0.072 S 
ATOM     29  O   UNL     1       2.178   5.705  -0.462  0.00  0.00    -0.150 OA
ATOM     30  O   UNL     1       3.627   3.683  -0.335  0.00  0.00    -0.150 OA
BRANCH  28  35
ATOM     31  C   UNL     1       1.848   3.544  -6.671  0.00  0.00    +0.044 C 
ATOM     32  C   UNL     1       1.990   3.739  -5.183  0.00  0.00    -0.050 A 
ATOM     33  C   UNL     1       1.359   4.801  -4.562  0.00  0.00    +0.005 A 
ATOM     34  C   UNL     1       1.490   4.981  -3.198  0.00  0.00    +0.029 A 
ATOM     35  C   UNL     1       2.252   4.099  -2.454  0.00  0.00    +0.109 A 
ATOM     36  C   UNL     1       2.887   3.040  -3.076  0.00  0.00    +0.029 A 
ATOM     37  C   UNL     1       2.752   2.857  -4.440  0.00  0.00    +0.005 A 
ENDBRANCH  28  35
ENDBRANCH  26  28
ENDBRANCH  20  26
ENDBRANCH   1  25
TORSDOF 9
