REMARK  Name = ZINC39695948
REMARK  8 active torsions:
REMARK  status: ('A' for Active; 'I' for Inactive)
REMARK    1  A    between atoms: C_1  and  C_2
REMARK    2  A    between atoms: C_2  and  C_3
REMARK    3  A    between atoms: C_6  and  C_9
REMARK    4  A    between atoms: C_9  and  C_11
REMARK    5  A    between atoms: C_9  and  N_12
REMARK    6  A    between atoms: C_13  and  C_15
REMARK    7  A    between atoms: C_26  and  C_28
REMARK    8  A    between atoms: C_33  and  C_34
REMARK                            x       y       z     vdW  Elec       q    Type
REMARK                         _______ _______ _______ _____ _____    ______ ____
ROOT
ATOM      1  C   UNL     1       4.633  -4.653  -5.351  0.00  0.00    +0.100 C 
ATOM      2  C   UNL     1       4.389  -5.383  -4.011  0.00  0.00    +0.121 C 
ATOM      3  N   UNL     1       3.918  -6.733  -4.401  0.00  0.00    -0.296 N 
ATOM      4  C   UNL     1       4.748  -7.088  -5.577  0.00  0.00    +0.115 C 
ATOM      5  C   UNL     1       4.871  -5.775  -6.375  0.00  0.00    -0.004 C 
ATOM      6  C   UNL     1       6.268  -5.652  -6.978  0.00  0.00    -0.010 C 
ATOM      7  C   UNL     1       6.460  -6.743  -8.035  0.00  0.00    -0.082 C 
ATOM      8  N   UNL     1       5.440  -6.599  -9.081  0.00  0.00    +0.379 N 
ATOM      9  C   UNL     1       4.104  -6.811  -8.509  0.00  0.00    -0.082 C 
ATOM     10  C   UNL     1       3.812  -5.723  -7.472  0.00  0.00    -0.010 C 
ATOM     11  C   UNL     1       2.953  -7.471  -3.818  0.00  0.00    +0.247 C 
ATOM     12  O   UNL     1       2.747  -8.608  -4.194  0.00  0.00    -0.270 OA
ATOM     13  H   UNL     1       5.492  -5.672  -9.475  0.00  0.00    -0.086 HD
ATOM     14  H   UNL     1       5.605  -7.280  -9.806  0.00  0.00    -0.086 HD
ENDROOT
BRANCH  11  15
ATOM     15  C   UNL     1       2.144  -6.897  -2.722  0.00  0.00    +0.049 A 
ATOM     16  C   UNL     1       2.734  -6.044  -1.788  0.00  0.00    +0.013 A 
ATOM     17  C   UNL     1       1.974  -5.511  -0.767  0.00  0.00    +0.001 A 
ATOM     18  C   UNL     1       0.629  -5.822  -0.668  0.00  0.00    +0.001 A 
ATOM     19  C   UNL     1       0.038  -6.666  -1.590  0.00  0.00    +0.013 A 
ATOM     20  C   UNL     1       0.786  -7.201  -2.619  0.00  0.00    +0.067 A 
BRANCH  20  21
ATOM     21  C   UNL     1       0.139  -8.117  -3.626  0.00  0.00    +0.418 C 
ATOM     22  F   UNL     1      -1.217  -8.268  -3.316  0.00  0.00    -0.166 F 
ATOM     23  F   UNL     1       0.265  -7.566  -4.906  0.00  0.00    -0.166 F 
ATOM     24  F   UNL     1       0.768  -9.366  -3.592  0.00  0.00    -0.166 F 
ENDBRANCH  20  21
ENDBRANCH  11  15
BRANCH   1  26
ATOM     25  N   UNL     1       3.558  -2.760  -6.526  0.00  0.00    -0.308 N 
ATOM     26  C   UNL     1       3.422  -3.842  -5.734  0.00  0.00    +0.219 C 
ATOM     27  O   UNL     1       2.324  -4.162  -5.330  0.00  0.00    -0.275 OA
ATOM     28  H   UNL     1       4.436  -2.503  -6.850  0.00  0.00    +0.149 HD
BRANCH  25  29
ATOM     29  C   UNL     1       2.381  -1.971  -6.899  0.00  0.00    +0.100 C 
ATOM     30  C   UNL     1       1.712  -2.601  -8.122  0.00  0.00    +0.033 C 
BRANCH  29  34
ATOM     31  C   UNL     1       3.578   2.023  -7.825  0.00  0.00    -0.048 A 
ATOM     32  C   UNL     1       2.413   1.798  -7.116  0.00  0.00    +0.004 A 
ATOM     33  C   UNL     1       2.025   0.505  -6.817  0.00  0.00    +0.006 A 
ATOM     34  C   UNL     1       2.803  -0.562  -7.226  0.00  0.00    -0.027 A 
ATOM     35  C   UNL     1       3.968  -0.337  -7.936  0.00  0.00    +0.006 A 
ATOM     36  C   UNL     1       4.353   0.956  -8.239  0.00  0.00    +0.004 A 
BRANCH  31  38
ATOM     37  C   UNL     1       3.399   3.846  -9.496  0.00  0.00    +0.009 C 
ATOM     38  C   UNL     1       4.001   3.432  -8.152  0.00  0.00    +0.032 C 
ENDBRANCH  31  38
ENDBRANCH  29  34
ENDBRANCH  25  29
ENDBRANCH   1  26
TORSDOF 6
