REMARK  Name = ZINC63572431
REMARK  4 active torsions:
REMARK  status: ('A' for Active; 'I' for Inactive)
REMARK    1  A    between atoms: C_1  and  O_2
REMARK    2  A    between atoms: O_2  and  C_3
REMARK    3  A    between atoms: C_8  and  N_9
REMARK    4  A    between atoms: C_25  and  C_27
REMARK                            x       y       z     vdW  Elec       q    Type
REMARK                         _______ _______ _______ _____ _____    ______ ____
ROOT
ATOM      1  N   UNL     1       1.508  -3.281   1.001  0.00  0.00    -0.266 N 
ATOM      2  C   UNL     1       0.993  -4.417   0.492  0.00  0.00    +0.307 C 
ATOM      3  O   UNL     1       1.455  -4.891  -0.529  0.00  0.00    -0.252 OA
ATOM      4  N   UNL     1      -0.035  -5.029   1.113  0.00  0.00    -0.276 N 
ATOM      5  C   UNL     1      -0.669  -4.387   2.269  0.00  0.00    +0.114 C 
ATOM      6  C   UNL     1      -2.171  -4.195   1.990  0.00  0.00    +0.052 C 
ATOM      7  C   UNL     1      -2.672  -5.494   1.408  0.00  0.00    -0.035 C 
ATOM      8  C   UNL     1      -3.695  -6.269   1.745  0.00  0.00    +0.001 A 
ATOM      9  C   UNL     1      -4.773  -6.095   2.731  0.00  0.00    +0.030 A 
ATOM     10  C   UNL     1      -5.663  -7.118   2.833  0.00  0.00    +0.042 A 
ATOM     11  C   UNL     1      -5.589  -8.283   2.061  0.00  0.00    +0.022 A 
ATOM     12  C   UNL     1      -4.636  -8.523   1.125  0.00  0.00    +0.027 A 
ATOM     13  C   UNL     1      -3.648  -7.516   0.921  0.00  0.00    +0.043 A 
ATOM     14  N   UNL     1      -2.651  -7.473   0.088  0.00  0.00    -0.375 N 
ATOM     15  C   UNL     1      -1.983  -6.179   0.234  0.00  0.00    +0.131 C 
ATOM     16  C   UNL     1      -0.513  -6.330   0.621  0.00  0.00    +0.134 C 
ATOM     17 CL   UNL     1      -6.959  -6.972   3.979  0.00  0.00    -0.084 Cl
ATOM     18  H   UNL     1       1.189  -2.942   1.852  0.00  0.00    +0.156 HD
ATOM     19  H   UNL     1      -2.393  -8.179  -0.526  0.00  0.00    +0.160 HD
ENDROOT
BRANCH   1  25
ATOM     20  C   UNL     1       2.627  -1.208   0.440  0.00  0.00    +0.141 A 
ATOM     21  C   UNL     1       3.619  -0.530  -0.249  0.00  0.00    +0.049 A 
ATOM     22  C   UNL     1       4.483  -1.221  -1.077  0.00  0.00    +0.024 A 
ATOM     23  C   UNL     1       4.360  -2.592  -1.221  0.00  0.00    +0.043 A 
ATOM     24  C   UNL     1       3.372  -3.276  -0.536  0.00  0.00    +0.047 A 
ATOM     25  C   UNL     1       2.506  -2.589   0.301  0.00  0.00    +0.078 A 
ATOM     26 CL   UNL     1       5.448  -3.455  -2.263  0.00  0.00    -0.083 Cl
BRANCH  20  28
ATOM     27  C   UNL     1       1.959   0.886   1.349  0.00  0.00    +0.277 C 
ATOM     28  O   UNL     1       1.776  -0.528   1.255  0.00  0.00    -0.493 OA
ENDBRANCH  20  28
ENDBRANCH   1  25
BRANCH  16  29
ATOM     29  C   UNL     1       0.289  -6.745  -0.586  0.00  0.00    -0.025 A 
ATOM     30  C   UNL     1       0.081  -6.122  -1.802  0.00  0.00    +0.008 A 
ATOM     31  C   UNL     1       0.816  -6.501  -2.909  0.00  0.00    +0.038 A 
ATOM     32  C   UNL     1       1.762  -7.507  -2.799  0.00  0.00    +0.123 A 
ATOM     33  C   UNL     1       1.970  -8.130  -1.581  0.00  0.00    +0.038 A 
ATOM     34  C   UNL     1       1.237  -7.746  -0.474  0.00  0.00    +0.008 A 
ATOM     35  F   UNL     1       2.481  -7.879  -3.881  0.00  0.00    -0.205 F 
ENDBRANCH  16  29
TORSDOF 3
