REMARK  Name = ZINC31156807
REMARK  14 active torsions:
REMARK  status: ('A' for Active; 'I' for Inactive)
REMARK    1  A    between atoms: C_3  and  O_37
REMARK    2  A    between atoms: C_6  and  C_7
REMARK    3  A    between atoms: C_7  and  C_8
REMARK    4  A    between atoms: C_8  and  C_10
REMARK    5  A    between atoms: C_8  and  O_36
REMARK    6  A    between atoms: C_10  and  C_12
REMARK    7  A    between atoms: C_15  and  O_35
REMARK    8  A    between atoms: C_16  and  C_19
REMARK    9  A    between atoms: C_17  and  O_18
REMARK   10  A    between atoms: C_21  and  O_34
REMARK   11  A    between atoms: C_23  and  O_33
REMARK   12  A    between atoms: C_25  and  O_32
REMARK   13  A    between atoms: C_27  and  C_30
REMARK   14  A    between atoms: C_30  and  O_31
REMARK                            x       y       z     vdW  Elec       q    Type
REMARK                         _______ _______ _______ _____ _____    ______ ____
ROOT
ATOM      1  C   UNL     1      -1.921   1.329   5.725  0.00  0.00    +0.062 A 
ATOM      2  C   UNL     1      -1.783   2.687   6.043  0.00  0.00    +0.018 A 
ATOM      3  C   UNL     1      -1.061   3.509   5.229  0.00  0.00    +0.047 A 
ATOM      4  C   UNL     1      -0.456   3.009   4.079  0.00  0.00    +0.126 A 
ATOM      5  C   UNL     1      -0.581   1.667   3.748  0.00  0.00    +0.067 A 
ATOM      6  C   UNL     1      -1.316   0.821   4.562  0.00  0.00    +0.137 A 
ENDROOT
BRANCH   5   7
ATOM      7  C   UNL     1       0.076   1.133   2.502  0.00  0.00    +0.187 C 
ATOM      8  C   UNL     1      -0.720   1.582   1.273  0.00  0.00    +0.179 C 
ATOM      9  C   UNL     1      -0.013   1.086   0.008  0.00  0.00    +0.177 C 
ATOM     10  C   UNL     1       1.424   1.618  -0.003  0.00  0.00    +0.176 C 
ATOM     11  C   UNL     1       2.136   1.167   1.275  0.00  0.00    +0.175 C 
ATOM     12  O   UNL     1       1.410   1.635   2.414  0.00  0.00    -0.361 OA
BRANCH  10  13
ATOM     13  O   UNL     1       2.115   1.102  -1.142  0.00  0.00    -0.386 OA
ATOM     14  H   UNL     1       3.166   1.377  -1.319  0.00  0.00    +0.210 HD
ENDBRANCH  10  13
BRANCH   9  15
ATOM     15  O   UNL     1      -0.707   1.561  -1.147  0.00  0.00    -0.386 OA
ATOM     16  H   UNL     1      -0.343   1.303  -2.152  0.00  0.00    +0.210 HD
ENDBRANCH   9  15
BRANCH   8  17
ATOM     17  O   UNL     1      -2.038   1.032   1.330  0.00  0.00    -0.386 OA
ATOM     18  H   UNL     1      -2.758   1.247   0.527  0.00  0.00    +0.210 HD
ENDBRANCH   8  17
BRANCH  11  19
ATOM     19  C   UNL     1       3.553   1.745   1.300  0.00  0.00    +0.190 C 
BRANCH  19  20
ATOM     20  O   UNL     1       4.256   1.231   2.433  0.00  0.00    -0.392 OA
ATOM     21  H   UNL     1       5.297   1.536   2.619  0.00  0.00    +0.210 HD
ENDBRANCH  19  20
ENDBRANCH  11  19
ENDBRANCH   5   7
BRANCH   1  22
ATOM     22  C   UNL     1      -2.697   0.443   6.598  0.00  0.00    +0.195 C 
ATOM     23  O   UNL     1      -2.814  -0.732   6.319  0.00  0.00    -0.289 OA
BRANCH  22  24
ATOM     24  C   UNL     1      -3.348   0.992   7.841  0.00  0.00    +0.190 C 
BRANCH  24  25
ATOM     25  O   UNL     1      -3.631  -0.080   8.743  0.00  0.00    -0.384 OA
ATOM     26  H   UNL     1      -2.813  -0.706   9.127  0.00  0.00    +0.210 HD
ENDBRANCH  24  25
BRANCH  24  27
ATOM     27  C   UNL     1      -4.652   1.699   7.463  0.00  0.00    +0.074 C 
BRANCH  27  33
ATOM     28  C   UNL     1      -6.127   1.653   9.484  0.00  0.00    +0.007 A 
ATOM     29  C   UNL     1      -6.664   2.248  10.609  0.00  0.00    +0.045 A 
ATOM     30  C   UNL     1      -6.322   3.553  10.932  0.00  0.00    +0.117 A 
ATOM     31  C   UNL     1      -5.437   4.255  10.127  0.00  0.00    +0.045 A 
ATOM     32  C   UNL     1      -4.898   3.654   9.007  0.00  0.00    +0.007 A 
ATOM     33  C   UNL     1      -5.241   2.353   8.687  0.00  0.00    -0.044 A 
BRANCH  30  34
ATOM     34  O   UNL     1      -6.854   4.143  12.035  0.00  0.00    -0.507 OA
ATOM     35  H   UNL     1      -6.582   5.178  12.290  0.00  0.00    +0.292 HD
ENDBRANCH  30  34
ENDBRANCH  27  33
ENDBRANCH  24  27
ENDBRANCH  22  24
ENDBRANCH   1  22
BRANCH   6  36
ATOM     36  O   UNL     1      -1.447  -0.490   4.241  0.00  0.00    -0.506 OA
ATOM     37  H   UNL     1      -0.972  -0.883   3.330  0.00  0.00    +0.292 HD
ENDBRANCH   6  36
BRANCH   4  38
ATOM     38  O   UNL     1       0.260   3.837   3.278  0.00  0.00    -0.506 OA
ATOM     39  H   UNL     1       0.740   3.444   2.369  0.00  0.00    +0.292 HD
ENDBRANCH   4  38
TORSDOF 14
