REMARK  Name = ZINC42183366
REMARK  12 active torsions:
REMARK  status: ('A' for Active; 'I' for Inactive)
REMARK    1  A    between atoms: C_1  and  C_2
REMARK    2  A    between atoms: C_2  and  C_3
REMARK    3  A    between atoms: N_5  and  C_6
REMARK    4  A    between atoms: C_9  and  C_12
REMARK    5  A    between atoms: C_12  and  C_14
REMARK    6  A    between atoms: C_12  and  N_15
REMARK    7  A    between atoms: N_15  and  C_16
REMARK    8  A    between atoms: C_16  and  C_18
REMARK    9  A    between atoms: C_16  and  C_19
REMARK   10  A    between atoms: N_24  and  C_25
REMARK   11  A    between atoms: C_25  and  C_26
REMARK   12  A    between atoms: C_25  and  C_27
REMARK                            x       y       z     vdW  Elec       q    Type
REMARK                         _______ _______ _______ _____ _____    ______ ____
ROOT
ATOM      1  N   UNL     1       2.973  -4.610  -6.299  0.00  0.00    +0.391 N 
ATOM      2  H   UNL     1       3.063  -5.379  -5.652  0.00  0.00    -0.084 HD
ATOM      3  H   UNL     1       1.997  -4.392  -6.429  0.00  0.00    -0.084 HD
ENDROOT
BRANCH   1   4
ATOM      4  C   UNL     1       3.671  -3.434  -5.761  0.00  0.00    -0.043 C 
ATOM      5  C   UNL     1       3.139  -3.122  -4.361  0.00  0.00    -0.009 C 
BRANCH   4   9
ATOM      6  C   UNL     1       2.991  -0.081  -8.322  0.00  0.00    +0.033 A 
ATOM      7  C   UNL     1       4.245  -0.286  -7.763  0.00  0.00    +0.023 A 
ATOM      8  C   UNL     1       4.461  -1.370  -6.935  0.00  0.00    +0.004 A 
ATOM      9  C   UNL     1       3.431  -2.252  -6.665  0.00  0.00    -0.062 A 
ATOM     10  C   UNL     1       2.181  -2.050  -7.221  0.00  0.00    +0.004 A 
ATOM     11  C   UNL     1       1.956  -0.964  -8.044  0.00  0.00    +0.023 A 
BRANCH   6  14
ATOM     12  C   UNL     1       1.579   1.651  -9.140  0.00  0.00    +0.217 C 
ATOM     13  O   UNL     1       0.671   1.215  -8.464  0.00  0.00    -0.275 OA
ATOM     14  N   UNL     1       2.768   1.017  -9.161  0.00  0.00    -0.286 N 
ATOM     15  H   UNL     1       3.470   1.323  -9.757  0.00  0.00    +0.155 HD
BRANCH  12  17
ATOM     16  C   UNL     1      -0.050   3.416  -9.757  0.00  0.00    +0.013 C 
ATOM     17  C   UNL     1       1.377   2.901  -9.957  0.00  0.00    +0.093 C 
ENDBRANCH  12  17
ENDBRANCH   6  14
ENDBRANCH   4   9
ENDBRANCH   1   4
BRANCH   1  18
ATOM     18  C   UNL     1       3.567  -4.984  -7.590  0.00  0.00    +0.014 C 
ATOM     19  C   UNL     1       5.005  -5.460  -7.370  0.00  0.00    -0.004 C 
BRANCH  18  20
ATOM     20  C   UNL     1       2.760  -6.094  -8.211  0.00  0.00    +0.206 C 
ATOM     21  O   UNL     1       1.786  -6.530  -7.636  0.00  0.00    -0.277 OA
ATOM     22  N   UNL     1       3.121  -6.602  -9.407  0.00  0.00    -0.242 N 
ATOM     23  C   UNL     1       2.399  -7.595  -9.963  0.00  0.00    +0.306 C 
ATOM     24  O   UNL     1       1.422  -8.032  -9.386  0.00  0.00    -0.252 OA
ATOM     25  N   UNL     1       2.760  -8.102 -11.158  0.00  0.00    -0.297 N 
ATOM     26  H   UNL     1       3.900  -6.253  -9.867  0.00  0.00    +0.159 HD
ATOM     27  H   UNL     1       3.539  -7.753 -11.618  0.00  0.00    +0.151 HD
BRANCH  25  28
ATOM     28  C   UNL     1       1.975  -9.181 -11.763  0.00  0.00    +0.068 C 
ATOM     29  C   UNL     1       0.797  -8.584 -12.536  0.00  0.00    +0.027 C 
ATOM     30  C   UNL     1       2.860  -9.982 -12.719  0.00  0.00    +0.027 C 
ENDBRANCH  25  28
ENDBRANCH  18  20
ENDBRANCH   1  18
TORSDOF 7
