REMARK  Name = ZINC52860274
REMARK  3 active torsions:
REMARK  status: ('A' for Active; 'I' for Inactive)
REMARK    1  A    between atoms: C_3  and  O_11
REMARK    2  A    between atoms: C_4  and  C_8
REMARK    3  A    between atoms: O_11  and  C_12
REMARK                            x       y       z     vdW  Elec       q    Type
REMARK                         _______ _______ _______ _____ _____    ______ ____
ROOT
ATOM      1  C   UNL     1       0.050   1.423  -0.412  0.00  0.00    +0.023 A 
ATOM      2  C   UNL     1       1.214   2.120  -0.159  0.00  0.00    +0.048 A 
ATOM      3  C   UNL     1       2.413   1.439  -0.008  0.00  0.00    +0.139 A 
ATOM      4  C   UNL     1       2.438   0.042  -0.115  0.00  0.00    +0.056 A 
ATOM      5  C   UNL     1       1.253  -0.651  -0.371  0.00  0.00    +0.035 A 
ATOM      6  C   UNL     1       0.069   0.041  -0.518  0.00  0.00    +0.042 A 
ATOM      7 CL   UNL     1      -1.403  -0.822  -0.837  0.00  0.00    -0.084 Cl
ENDROOT
BRANCH   4   8
ATOM      8  C   UNL     1       3.709  -0.693   0.043  0.00  0.00    +0.098 C 
ATOM      9  N   UNL     1       3.813  -1.655   0.959  0.00  0.00    -0.387 N 
ATOM     10  N   UNL     1       4.752  -0.394  -0.731  0.00  0.00    -0.344 N 
ATOM     11  H   UNL     1       3.035  -1.922   1.473  0.00  0.00    +0.157 HD
ATOM     12  H   UNL     1       4.676   0.307  -1.398  0.00  0.00    +0.144 HD
ATOM     13  H   UNL     1       5.587  -0.876  -0.627  0.00  0.00    +0.144 HD
ATOM     14  H   UNL     1       4.668  -2.087   1.113  0.00  0.00    +0.157 HD
ENDBRANCH   4   8
BRANCH   3  15
ATOM     15  O   UNL     1       3.558   2.123   0.240  0.00  0.00    -0.454 OA
BRANCH  15  16
ATOM     16  C   UNL     1       3.498   3.481   0.267  0.00  0.00    +0.142 A 
ATOM     17  C   UNL     1       3.776   4.212  -0.878  0.00  0.00    +0.049 A 
ATOM     18  C   UNL     1       3.713   5.591  -0.849  0.00  0.00    +0.023 A 
ATOM     19  C   UNL     1       3.373   6.245   0.323  0.00  0.00    +0.042 A 
ATOM     20  C   UNL     1       3.095   5.519   1.467  0.00  0.00    +0.039 A 
ATOM     21  C   UNL     1       3.151   4.138   1.440  0.00  0.00    +0.061 A 
ATOM     22 BR   UNL     1       2.764   3.144   3.002  0.00  0.00    -0.046 Br
ATOM     23 CL   UNL     1       3.297   7.979   0.357  0.00  0.00    -0.084 Cl
ENDBRANCH  15  16
ENDBRANCH   3  15
TORSDOF 3
