REMARK  Name = ZINC00199140
REMARK  3 active torsions:
REMARK  status: ('A' for Active; 'I' for Inactive)
REMARK    1  A    between atoms: C_1  and  C_2
REMARK    2  A    between atoms: C_11  and  O_14
REMARK    3  A    between atoms: C_12  and  O_13
REMARK                            x       y       z     vdW  Elec       q    Type
REMARK                         _______ _______ _______ _____ _____    ______ ____
ROOT
ATOM      1  C   UNL     1      -0.018   1.503   0.010  0.00  0.00    +0.086 C 
ATOM      2  C   UNL     1       0.002  -0.004   0.002  0.00  0.00    +0.106 A 
ATOM      3  C   UNL     1      -1.170  -0.663   0.004  0.00  0.00    +0.093 A 
ATOM      4  C   UNL     1      -1.177  -2.084  -0.004  0.00  0.00    +0.196 A 
ATOM      5  O   UNL     1      -2.220  -2.714  -0.003  0.00  0.00    -0.287 OA
ATOM      6  C   UNL     1       0.131  -2.764  -0.015  0.00  0.00    +0.109 A 
ATOM      7  C   UNL     1       1.293  -1.973  -0.016  0.00  0.00    +0.143 A 
ATOM      8  O   UNL     1       1.185  -0.628  -0.013  0.00  0.00    -0.460 OA
ATOM      9  C   UNL     1       2.537  -2.589  -0.026  0.00  0.00    +0.051 A 
ATOM     10  C   UNL     1       2.627  -3.966  -0.034  0.00  0.00    +0.053 A 
ATOM     11  C   UNL     1       1.483  -4.753  -0.033  0.00  0.00    +0.159 A 
ATOM     12  C   UNL     1       0.228  -4.158  -0.024  0.00  0.00    +0.173 A 
ENDROOT
BRANCH  12  13
ATOM     13  O   UNL     1      -0.893  -4.924  -0.022  0.00  0.00    -0.503 OA
ATOM     14  H   UNL     1      -1.223  -5.140  -0.905  0.00  0.00    +0.292 HD
ENDBRANCH  12  13
BRANCH  11  15
ATOM     15  O   UNL     1       1.592  -6.109  -0.042  0.00  0.00    -0.503 OA
ATOM     16  H   UNL     1       1.628  -6.507   0.839  0.00  0.00    +0.292 HD
ENDBRANCH  11  15
TORSDOF 2
