REMARK  Name = ZINC12656372
REMARK  13 active torsions:
REMARK  status: ('A' for Active; 'I' for Inactive)
REMARK    1  A    between atoms: C_1  and  C_2
REMARK    2  A    between atoms: C_2  and  C_3
REMARK    3  A    between atoms: C_2  and  C_4
REMARK    4  A    between atoms: C_4  and  C_5
REMARK    5  A    between atoms: C_5  and  C_7
REMARK    6  A    between atoms: C_5  and  N_14
REMARK    7  A    between atoms: N_9  and  C_10
REMARK    8  A    between atoms: C_10  and  C_11
REMARK    9  A    between atoms: C_15  and  C_17
REMARK   10  A    between atoms: C_23  and  C_25
REMARK   11  A    between atoms: C_31  and  C_33
REMARK   12  A    between atoms: C_33  and  C_35
REMARK   13  A    between atoms: C_33  and  N_71
REMARK                            x       y       z     vdW  Elec       q    Type
REMARK                         _______ _______ _______ _____ _____    ______ ____
ROOT
ATOM      1  C   UNL     1       8.416   1.946   1.115  0.00  0.00    +0.162 C 
ATOM      2  C   UNL     1       9.073   2.988   0.176  0.00  0.00    +0.033 C 
ATOM      3  C   UNL     1      10.392   3.300   0.932  0.00  0.00    +0.021 C 
ATOM      4  C   UNL     1      10.769   1.936   1.547  0.00  0.00    +0.108 C 
ATOM      5  N   UNL     1       9.538   1.137   1.625  0.00  0.00    -0.290 N 
ATOM      6  C   UNL     1       9.449  -0.126   2.088  0.00  0.00    +0.219 C 
ATOM      7  O   UNL     1       8.394  -0.721   2.028  0.00  0.00    -0.275 OA
ENDROOT
BRANCH   6   8
ATOM      8  C   UNL     1      10.661  -0.798   2.680  0.00  0.00    +0.078 C 
ATOM      9  C   UNL     1      11.403  -1.567   1.585  0.00  0.00    +0.032 C 
ATOM     10  C   UNL     1      12.653  -2.220   2.183  0.00  0.00    +0.108 C 
ATOM     11  N   UNL     1      12.252  -3.044   3.332  0.00  0.00    -0.303 N 
ATOM     12  C   UNL     1      11.456  -2.426   4.401  0.00  0.00    +0.108 C 
ATOM     13  C   UNL     1      10.219  -1.770   3.777  0.00  0.00    +0.032 C 
ATOM     14  C   UNL     1      12.609  -4.342   3.404  0.00  0.00    +0.201 C 
ATOM     15  O   UNL     1      12.272  -5.011   4.358  0.00  0.00    -0.277 OA
BRANCH  14  16
ATOM     16  C   UNL     1      13.426  -4.961   2.300  0.00  0.00    +0.010 C 
ATOM     17  C   UNL     1      14.898  -4.586   2.483  0.00  0.00    -0.005 C 
BRANCH  16  20
ATOM     18  H   UNL     1      13.771  -6.858   1.577  0.00  0.00    -0.089 HD
ATOM     19  H   UNL     1      13.604  -6.789   3.230  0.00  0.00    -0.089 HD
ATOM     20  N   UNL     1      13.259  -6.425   2.344  0.00  0.00    +0.385 N 
ATOM     21  H   UNL     1      12.262  -6.653   2.253  0.00  0.00    -0.089 HD
ENDBRANCH  16  20
ENDBRANCH  14  16
ENDBRANCH   6   8
BRANCH   1  23
ATOM     22  N   UNL     1       6.144   1.401   0.302  0.00  0.00    -0.302 N 
ATOM     23  C   UNL     1       7.453   1.080   0.345  0.00  0.00    +0.234 C 
ATOM     24  O   UNL     1       7.855   0.094  -0.236  0.00  0.00    -0.274 OA
ATOM     25  H   UNL     1       5.823   2.189   0.766  0.00  0.00    +0.150 HD
BRANCH  22  26
ATOM     26  C   UNL     1       5.208   0.559  -0.447  0.00  0.00    +0.159 C 
BRANCH  26  27
ATOM     27  C   UNL     1       3.821   0.722   0.121  0.00  0.00    +0.234 C 
ATOM     28  O   UNL     1       3.634   1.468   1.059  0.00  0.00    -0.274 OA
ATOM     29  N   UNL     1       2.790   0.039  -0.413  0.00  0.00    -0.305 N 
ATOM     30  H   UNL     1       2.940  -0.557  -1.163  0.00  0.00    +0.149 HD
BRANCH  29  31
ATOM     31  C   UNL     1       1.442   0.198   0.139  0.00  0.00    +0.199 C 
BRANCH  31  32
ATOM     32  C   UNL     1       0.479  -0.668  -0.632  0.00  0.00    +0.228 C 
ATOM     33  O   UNL     1       0.879  -1.351  -1.551  0.00  0.00    -0.274 OA
ATOM     34  N   UNL     1      -0.828  -0.680  -0.302  0.00  0.00    -0.328 N 
ATOM     35  H   UNL     1      -1.449  -1.235  -0.800  0.00  0.00    +0.145 HD
ATOM     36  H   UNL     1      -1.148  -0.135   0.433  0.00  0.00    +0.145 HD
ENDBRANCH  31  32
ENDBRANCH  29  31
ENDBRANCH  26  27
BRANCH  26  37
ATOM     37  C   UNL     1       5.209   0.979  -1.918  0.00  0.00    +0.034 C 
BRANCH  37  39
ATOM     38  C   UNL     1       6.837  -0.812  -2.538  0.00  0.00    +0.007 C 
ATOM     39  C   UNL     1       6.583   0.697  -2.528  0.00  0.00    -0.015 C 
ATOM     40  C   UNL     1       6.625   1.230  -3.962  0.00  0.00    +0.007 C 
ENDBRANCH  37  39
ENDBRANCH  26  37
ENDBRANCH  22  26
ENDBRANCH   1  23
TORSDOF 10
