REMARK  Name = ZINC45890114
REMARK  9 active torsions:
REMARK  status: ('A' for Active; 'I' for Inactive)
REMARK    1  A    between atoms: C_1  and  C_2
REMARK    2  A    between atoms: C_5  and  O_9
REMARK    3  A    between atoms: C_6  and  C_8
REMARK    4  A    between atoms: O_9  and  C_10
REMARK    5  A    between atoms: C_10  and  C_11
REMARK    6  A    between atoms: N_13  and  C_14
REMARK    7  A    between atoms: C_15  and  C_26
REMARK    8  A    between atoms: C_19  and  C_20
REMARK    9  A    between atoms: N_24  and  N_25
REMARK                            x       y       z     vdW  Elec       q    Type
REMARK                         _______ _______ _______ _____ _____    ______ ____
ROOT
ATOM      1  C   UNL     1       0.530  -8.482  -2.058  0.00  0.00    +0.041 A 
ATOM      2  C   UNL     1       0.251  -9.335  -3.122  0.00  0.00    -0.027 A 
ATOM      3  C   UNL     1       0.051 -10.667  -2.933  0.00  0.00    +0.034 A 
ATOM      4  C   UNL     1       0.121 -11.237  -1.641  0.00  0.00    +0.081 A 
ATOM      5  C   UNL     1       0.406 -10.348  -0.580  0.00  0.00    +0.045 A 
ATOM      6  C   UNL     1       0.612  -9.006  -0.774  0.00  0.00    -0.013 A 
ATOM      7  C   UNL     1       0.919  -8.107   0.396  0.00  0.00    +0.047 C 
ATOM      8  S   UNL     1       0.406 -11.429   0.830  0.00  0.00    -0.051 S 
ATOM      9  C   UNL     1       0.040 -12.943  -0.047  0.00  0.00    +0.173 A 
ATOM     10  N   UNL     1      -0.051 -12.532  -1.290  0.00  0.00    -0.224 NA
ATOM     11  N   UNL     1      -0.109 -14.220   0.456  0.00  0.00    -0.262 N 
ATOM     12  C   UNL     1       0.167  -8.769  -4.516  0.00  0.00    +0.046 C 
ATOM     13  H   UNL     1      -0.013 -14.381   1.408  0.00  0.00    +0.168 HD
ENDROOT
BRANCH   1  16
ATOM     14  C   UNL     1       0.008  -6.206  -1.594  0.00  0.00    +0.255 C 
ATOM     15  O   UNL     1      -0.878  -6.572  -0.851  0.00  0.00    -0.272 OA
ATOM     16  N   UNL     1       0.731  -7.113  -2.280  0.00  0.00    -0.282 N 
ATOM     17  H   UNL     1       1.391  -6.819  -2.927  0.00  0.00    +0.155 HD
BRANCH  14  18
ATOM     18  C   UNL     1       0.301  -4.736  -1.750  0.00  0.00    +0.324 C 
BRANCH  18  19
ATOM     19  O   UNL     1      -0.593  -3.982  -0.927  0.00  0.00    -0.483 OA
BRANCH  19  24
ATOM     20  C   UNL     1      -0.050   1.623  -1.029  0.00  0.00    +0.044 C 
ATOM     21  C   UNL     1      -0.195   0.123  -1.001  0.00  0.00    -0.050 A 
ATOM     22  C   UNL     1       0.638  -0.665  -1.773  0.00  0.00    +0.007 A 
ATOM     23  C   UNL     1       0.507  -2.040  -1.750  0.00  0.00    +0.046 A 
ATOM     24  C   UNL     1      -0.461  -2.630  -0.951  0.00  0.00    +0.124 A 
ATOM     25  C   UNL     1      -1.296  -1.837  -0.177  0.00  0.00    -0.009 A 
ATOM     26  C   UNL     1      -1.157  -0.463  -0.200  0.00  0.00    +0.010 A 
ATOM     27  C   UNL     1      -2.349  -2.475   0.692  0.00  0.00    +0.047 C 
ENDBRANCH  19  24
ENDBRANCH  18  19
ENDBRANCH  14  18
ENDBRANCH   1  16
BRANCH  11  28
ATOM     28  N   UNL     1      -0.391 -15.257  -0.387  0.00  0.00    -0.255 NA
ATOM     29  H   UNL     1      -0.471 -16.125   0.121  0.00  0.00    +0.140 HD
ATOM     30  H   UNL     1      -1.227 -15.073  -0.921  0.00  0.00    +0.140 HD
ENDBRANCH  11  28
TORSDOF 5
