REMARK  Name = ZINC08883246
REMARK  8 active torsions:
REMARK  status: ('A' for Active; 'I' for Inactive)
REMARK    1  A    between atoms: C_1  and  N_2
REMARK    2  A    between atoms: N_2  and  C_3
REMARK    3  A    between atoms: N_2  and  C_18
REMARK    4  A    between atoms: C_3  and  C_4
REMARK    5  A    between atoms: N_6  and  C_7
REMARK    6  A    between atoms: C_11  and  C_13
REMARK    7  A    between atoms: C_21  and  S_23
REMARK    8  A    between atoms: S_23  and  N_26
REMARK                            x       y       z     vdW  Elec       q    Type
REMARK                         _______ _______ _______ _____ _____    ______ ____
ROOT
ATOM      1  C   UNL     1       3.776  -2.883  -6.313  0.00  0.00    +0.131 C 
ATOM      2  N   UNL     1       2.964  -1.720  -5.947  0.00  0.00    -0.311 N 
ENDROOT
BRANCH   2   3
ATOM      3  C   UNL     1       2.245  -1.721  -4.758  0.00  0.00    +0.099 A 
ATOM      4  C   UNL     1       2.382  -2.783  -3.870  0.00  0.00    +0.043 A 
ATOM      5  C   UNL     1       1.661  -2.772  -2.690  0.00  0.00    +0.033 A 
ATOM      6  C   UNL     1       0.823  -1.694  -2.436  0.00  0.00    +0.121 A 
ATOM      7  C   UNL     1       0.730  -0.676  -3.364  0.00  0.00    +0.112 A 
ATOM      8  N   UNL     1       1.428  -0.652  -4.531  0.00  0.00    -0.348 N 
ATOM      9  H   UNL     1       1.346   0.123  -5.200  0.00  0.00    +0.167 HD
BRANCH   6  10
ATOM     10  S   UNL     1      -0.118  -1.629  -0.948  0.00  0.00    +0.062 S 
ATOM     11  O   UNL     1      -0.268  -2.971  -0.503  0.00  0.00    -0.153 OA
ATOM     12  O   UNL     1      -1.231  -0.784  -1.207  0.00  0.00    -0.153 OA
BRANCH  10  13
ATOM     13  N   UNL     1       0.810  -0.856   0.185  0.00  0.00    -0.177 NA
ATOM     14  C   UNL     1       0.740   0.604   0.340  0.00  0.00    +0.109 C 
ATOM     15  C   UNL     1       2.157   1.178   0.238  0.00  0.00    +0.017 C 
ATOM     16  C   UNL     1       3.061   0.480   1.257  0.00  0.00    +0.003 C 
ATOM     17  C   UNL     1       3.123  -1.017   0.945  0.00  0.00    +0.017 C 
ATOM     18  C   UNL     1       1.718  -1.616   1.055  0.00  0.00    +0.109 C 
ENDBRANCH  10  13
ENDBRANCH   6  10
ENDBRANCH   2   3
BRANCH   2  19
ATOM     19  C   UNL     1       2.909  -0.556  -6.835  0.00  0.00    +0.202 C 
BRANCH  19  20
ATOM     20  C   UNL     1       4.005   0.410  -6.466  0.00  0.00    +0.235 C 
ATOM     21  O   UNL     1       4.757   0.152  -5.550  0.00  0.00    -0.274 OA
ATOM     22  N   UNL     1       4.148   1.561  -7.152  0.00  0.00    -0.284 N 
ATOM     23  H   UNL     1       3.596   1.733  -7.931  0.00  0.00    +0.155 HD
BRANCH  22  24
ATOM     24  C   UNL     1       5.093   2.508  -6.740  0.00  0.00    +0.034 A 
ATOM     25  C   UNL     1       5.375   2.669  -5.390  0.00  0.00    +0.025 A 
ATOM     26  C   UNL     1       6.311   3.600  -4.987  0.00  0.00    +0.022 A 
ATOM     27  C   UNL     1       6.960   4.381  -5.927  0.00  0.00    +0.053 A 
ATOM     28  C   UNL     1       6.678   4.227  -7.272  0.00  0.00    +0.075 A 
ATOM     29  C   UNL     1       5.746   3.293  -7.681  0.00  0.00    +0.037 A 
ATOM     30 CL   UNL     1       8.132   5.556  -5.416  0.00  0.00    -0.083 Cl
BRANCH  28  31
ATOM     31  C   UNL     1       7.388   5.079  -8.293  0.00  0.00    +0.419 C 
ATOM     32  F   UNL     1       6.939   4.742  -9.575  0.00  0.00    -0.166 F 
ATOM     33  F   UNL     1       7.117   6.429  -8.043  0.00  0.00    -0.166 F 
ATOM     34  F   UNL     1       8.767   4.856  -8.209  0.00  0.00    -0.166 F 
ENDBRANCH  28  31
ENDBRANCH  22  24
ENDBRANCH  19  20
ENDBRANCH   2  19
TORSDOF 7
