REMARK  Name = ZINC67285771
REMARK  11 active torsions:
REMARK  status: ('A' for Active; 'I' for Inactive)
REMARK    1  A    between atoms: C_1  and  C_2
REMARK    2  A    between atoms: C_2  and  O_3
REMARK    3  A    between atoms: O_3  and  C_4
REMARK    4  A    between atoms: C_6  and  C_11
REMARK    5  A    between atoms: C_9  and  O_10
REMARK    6  A    between atoms: C_13  and  C_28
REMARK    7  A    between atoms: C_14  and  C_19
REMARK    8  A    between atoms: C_19  and  N_20
REMARK    9  A    between atoms: N_24  and  C_27
REMARK   10  A    between atoms: C_28  and  O_30
REMARK   11  A    between atoms: O_30  and  C_31
REMARK                            x       y       z     vdW  Elec       q    Type
REMARK                         _______ _______ _______ _____ _____    ______ ____
ROOT
ATOM      1  C   UNL     1       0.434  -4.906   0.109  0.00  0.00    +0.144 C 
ATOM      2  C   UNL     1       0.776  -5.393   1.502  0.00  0.00    +0.079 C 
ATOM      3  C   UNL     1       0.982  -6.717   1.672  0.00  0.00    +0.038 C 
ATOM      4  N   UNL     1       0.885  -7.586   0.623  0.00  0.00    -0.271 N 
ATOM      5  C   UNL     1       0.587  -7.210  -0.627  0.00  0.00    +0.304 C 
ATOM      6  O   UNL     1       0.523  -8.057  -1.496  0.00  0.00    -0.252 OA
ATOM      7  N   UNL     1       0.354  -5.924  -0.952  0.00  0.00    -0.288 N 
ATOM      8  H   UNL     1       1.042  -8.528   0.793  0.00  0.00    +0.156 HD
ATOM      9  H   UNL     1       0.139  -5.674  -1.865  0.00  0.00    +0.151 HD
ENDROOT
BRANCH   1  12
ATOM     10  C   UNL     1      -2.161  -2.173   0.362  0.00  0.00    +0.162 A 
ATOM     11  C   UNL     1      -0.940  -2.823   0.300  0.00  0.00    +0.055 A 
ATOM     12  C   UNL     1      -0.895  -4.200   0.177  0.00  0.00    -0.019 A 
ATOM     13  C   UNL     1      -2.068  -4.929   0.115  0.00  0.00    +0.009 A 
ATOM     14  C   UNL     1      -3.290  -4.286   0.176  0.00  0.00    +0.049 A 
ATOM     15  C   UNL     1      -3.341  -2.908   0.306  0.00  0.00    +0.158 A 
BRANCH  15  16
ATOM     16  O   UNL     1      -4.543  -2.274   0.373  0.00  0.00    -0.503 OA
ATOM     17  H   UNL     1      -4.898  -2.012  -0.488  0.00  0.00    +0.292 HD
ENDBRANCH  15  16
BRANCH  10  18
ATOM     18  O   UNL     1      -2.207  -0.819   0.484  0.00  0.00    -0.489 OA
BRANCH  18  20
ATOM     19  C   UNL     1      -1.207   1.373   0.673  0.00  0.00    +0.048 C 
ATOM     20  C   UNL     1      -0.956  -0.130   0.536  0.00  0.00    +0.226 C 
ENDBRANCH  18  20
ENDBRANCH  10  18
ENDBRANCH   1  12
BRANCH   2  21
ATOM     21  C   UNL     1       0.877  -4.492   2.588  0.00  0.00    +0.339 C 
ATOM     22  O   UNL     1       1.032  -4.916   3.718  0.00  0.00    -0.245 OA
BRANCH  21  23
ATOM     23  O   UNL     1       0.800  -3.162   2.371  0.00  0.00    -0.465 OA
ATOM     24  C   UNL     1       0.909  -2.311   3.513  0.00  0.00    +0.280 C 
ENDBRANCH  21  23
ENDBRANCH   2  21
BRANCH   3  25
ATOM     25  C   UNL     1       1.325  -7.244   3.042  0.00  0.00    +0.135 C 
BRANCH  25  26
ATOM     26  N   UNL     1       0.089  -7.478   3.800  0.00  0.00    -0.299 NA
ATOM     27  C   UNL     1      -0.612  -8.637   3.302  0.00  0.00    +0.083 C 
ATOM     28  C   UNL     1      -2.145  -8.471   3.328  0.00  0.00    -0.003 C 
ATOM     29  C   UNL     1      -2.632  -7.791   4.622  0.00  0.00    -0.078 C 
ATOM     30  N   UNL     1      -1.927  -8.277   5.785  0.00  0.00    +0.379 N 
ATOM     31  C   UNL     1      -0.809  -7.354   6.062  0.00  0.00    -0.064 C 
ATOM     32  C   UNL     1       0.373  -7.628   5.249  0.00  0.00    +0.066 C 
ATOM     33  C   UNL     1      -2.838  -8.314   6.937  0.00  0.00    -0.096 C 
ATOM     34  H   UNL     1      -1.569  -9.202   5.603  0.00  0.00    -0.082 HD
ENDBRANCH  25  26
ENDBRANCH   3  25
TORSDOF 8
