REMARK  Name = ZINC36590534
REMARK  16 active torsions:
REMARK  status: ('A' for Active; 'I' for Inactive)
REMARK    1  A    between atoms: C_1  and  C_2
REMARK    2  A    between atoms: C_5  and  S_8
REMARK    3  A    between atoms: S_8  and  C_11
REMARK    4  A    between atoms: C_11  and  N_12
REMARK    5  A    between atoms: C_13  and  C_15
REMARK    6  A    between atoms: C_15  and  C_17
REMARK    7  A    between atoms: C_15  and  N_26
REMARK    8  A    between atoms: C_18  and  O_25
REMARK    9  A    between atoms: C_20  and  O_24
REMARK   10  A    between atoms: C_22  and  O_23
REMARK   11  A    between atoms: N_26  and  C_31
REMARK   12  A    between atoms: C_27  and  C_29
REMARK   13  A    between atoms: C_29  and  O_30
REMARK   14  A    between atoms: C_31  and  C_32
REMARK   15  A    between atoms: C_31  and  C_33
REMARK   16  A    between atoms: C_31  and  C_34
REMARK                            x       y       z     vdW  Elec       q    Type
REMARK                         _______ _______ _______ _____ _____    ______ ____
ROOT
ATOM      1  C   UNL     1       3.035  -4.668   4.513  0.00  0.00    +0.200 C 
ENDROOT
BRANCH   1   2
ATOM      2  C   UNL     1       4.250  -4.353   3.679  0.00  0.00    +0.065 A 
ATOM      3  C   UNL     1       4.760  -5.305   2.809  0.00  0.00    +0.129 A 
ATOM      4  C   UNL     1       5.878  -5.015   2.042  0.00  0.00    +0.091 A 
ATOM      5  C   UNL     1       6.486  -3.773   2.144  0.00  0.00    +0.124 A 
ATOM      6  C   UNL     1       5.976  -2.821   3.014  0.00  0.00    +0.091 A 
ATOM      7  C   UNL     1       4.856  -3.109   3.778  0.00  0.00    +0.129 A 
BRANCH   7   8
ATOM      8  O   UNL     1       4.353  -2.175   4.627  0.00  0.00    -0.506 OA
ATOM      9  H   UNL     1       4.729  -2.209   5.518  0.00  0.00    +0.292 HD
ENDBRANCH   7   8
BRANCH   5  10
ATOM     10  O   UNL     1       7.583  -3.489   1.393  0.00  0.00    -0.507 OA
ATOM     11  H   UNL     1       7.379  -3.099   0.532  0.00  0.00    +0.292 HD
ENDBRANCH   5  10
BRANCH   3  12
ATOM     12  O   UNL     1       4.164  -6.522   2.708  0.00  0.00    -0.506 OA
ATOM     13  H   UNL     1       3.535  -6.593   1.977  0.00  0.00    +0.292 HD
ENDBRANCH   3  12
ENDBRANCH   1   2
BRANCH   1  15
ATOM     14  N   UNL     1       0.660  -4.158   4.047  0.00  0.00    -0.294 N 
ATOM     15  C   UNL     1       1.816  -4.711   3.628  0.00  0.00    +0.240 C 
ATOM     16  O   UNL     1       1.875  -5.243   2.540  0.00  0.00    -0.273 OA
ATOM     17  H   UNL     1       0.613  -3.733   4.917  0.00  0.00    +0.150 HD
BRANCH  14  18
ATOM     18  C   UNL     1      -0.525  -4.200   3.186  0.00  0.00    +0.278 C 
BRANCH  18  19
ATOM     19  S   UNL     1      -1.549  -5.628   3.636  0.00  0.00    +0.013 S 
ATOM     20  O   UNL     1      -0.741  -6.791   3.755  0.00  0.00    -0.168 OA
ATOM     21  O   UNL     1      -2.734  -5.647   2.853  0.00  0.00    -0.168 OA
BRANCH  19  26
ATOM     22  C   UNL     1      -3.433  -4.483   9.252  0.00  0.00    +0.044 C 
ATOM     23  C   UNL     1      -2.963  -4.769   7.849  0.00  0.00    -0.050 A 
ATOM     24  C   UNL     1      -3.713  -4.344   6.769  0.00  0.00    +0.005 A 
ATOM     25  C   UNL     1      -3.281  -4.606   5.482  0.00  0.00    +0.027 A 
ATOM     26  C   UNL     1      -2.099  -5.293   5.276  0.00  0.00    +0.090 A 
ATOM     27  C   UNL     1      -1.348  -5.716   6.357  0.00  0.00    +0.027 A 
ATOM     28  C   UNL     1      -1.778  -5.450   7.644  0.00  0.00    +0.005 A 
ENDBRANCH  19  26
ENDBRANCH  18  19
ENDBRANCH  14  18
ENDBRANCH   1  15
BRANCH   1  29
ATOM     29  N   UNL     1       3.213  -5.969   5.163  0.00  0.00    -0.279 N 
ATOM     30  C   UNL     1       2.284  -6.933   5.007  0.00  0.00    +0.242 C 
ATOM     31  O   UNL     1       1.890  -7.558   5.969  0.00  0.00    -0.273 OA
BRANCH  29  32
ATOM     32  C   UNL     1       4.401  -6.223   5.982  0.00  0.00    +0.030 C 
ATOM     33  C   UNL     1       5.215  -4.934   6.112  0.00  0.00    +0.031 C 
ATOM     34  C   UNL     1       3.970  -6.697   7.372  0.00  0.00    +0.031 C 
ATOM     35  C   UNL     1       5.257  -7.303   5.318  0.00  0.00    +0.031 C 
ENDBRANCH  29  32
BRANCH  30  36
ATOM     36  C   UNL     1       1.733  -7.234   3.637  0.00  0.00    +0.251 C 
BRANCH  36  37
ATOM     37  O   UNL     1       0.859  -8.362   3.712  0.00  0.00    -0.386 OA
ATOM     38  H   UNL     1       0.467  -8.613   2.865  0.00  0.00    +0.210 HD
ENDBRANCH  36  37
ENDBRANCH  30  36
ENDBRANCH   1  29
TORSDOF 12
