REMARK  Name = ZINC05223669
REMARK  6 active torsions:
REMARK  status: ('A' for Active; 'I' for Inactive)
REMARK    1  A    between atoms: C_6  and  N_7
REMARK    2  A    between atoms: N_7  and  C1*_8
REMARK    3  A    between atoms: C2*_10  and  O2*_20
REMARK    4  A    between atoms: C3*_12  and  O3*_19
REMARK    5  A    between atoms: C4*_14  and  C5*_17
REMARK    6  A    between atoms: C5*_17  and  O5*_18
REMARK                            x       y       z     vdW  Elec       q    Type
REMARK                         _______ _______ _______ _____ _____    ______ ____
ROOT
ATOM      1  C1* UNL     1       1.248   1.716  -0.001  0.00  0.00    +0.235 C 
ATOM      2  C2* UNL     1       2.325   0.967   0.816  0.00  0.00    +0.192 C 
ATOM      3  C3* UNL     1       3.096   0.148  -0.243  0.00  0.00    +0.178 C 
ATOM      4  C4* UNL     1       2.394   0.498  -1.574  0.00  0.00    +0.177 C 
ATOM      5  O4* UNL     1       1.782   1.786  -1.340  0.00  0.00    -0.348 OA
ENDROOT
BRANCH   1   6
ATOM      6  N   UNL     1      -0.011   0.966   0.007  0.00  0.00    -0.317 N 
ATOM      7  H   UNL     1       0.002  -0.004   0.002  0.00  0.00    +0.149 HD
BRANCH   6  13
ATOM      8  C   UNL     1      -1.251   3.037   0.030  0.00  0.00    +0.024 A 
ATOM      9  C   UNL     1      -2.458   3.708   0.034  0.00  0.00    +0.017 A 
ATOM     10  C   UNL     1      -3.646   2.999   0.036  0.00  0.00    +0.018 A 
ATOM     11  C   UNL     1      -3.628   1.615   0.028  0.00  0.00    +0.017 A 
ATOM     12  C   UNL     1      -2.425   0.939   0.019  0.00  0.00    +0.024 A 
ATOM     13  C   UNL     1      -1.230   1.648   0.017  0.00  0.00    +0.029 A 
ATOM     14 BR   UNL     1      -5.296   3.922   0.049  0.00  0.00    -0.050 Br
ENDBRANCH   6  13
ENDBRANCH   1   6
BRANCH   3  15
ATOM     15  O3* UNL     1       4.469   0.543  -0.279  0.00  0.00    -0.386 OA
ATOM     16  H3* UNL     1       4.941   0.399   0.553  0.00  0.00    +0.210 HD
ENDBRANCH   3  15
BRANCH   2  17
ATOM     17  O2* UNL     1       1.714   0.102   1.775  0.00  0.00    -0.385 OA
ATOM     18  H2* UNL     1       1.169   0.561   2.428  0.00  0.00    +0.210 HD
ENDBRANCH   2  17
BRANCH   4  19
ATOM     19  C5* UNL     1       3.417   0.590  -2.708  0.00  0.00    +0.190 C 
BRANCH  19  20
ATOM     20  O5* UNL     1       2.737   0.799  -3.947  0.00  0.00    -0.392 OA
ATOM     21  H5* UNL     1       3.325   0.867  -4.712  0.00  0.00    +0.210 HD
ENDBRANCH  19  20
ENDBRANCH   4  19
TORSDOF 6
