REMARK  Name = ZINC60041100
REMARK  12 active torsions:
REMARK  status: ('A' for Active; 'I' for Inactive)
REMARK    1  A    between atoms: C_1  and  C_2
REMARK    2  A    between atoms: C_2  and  C_3
REMARK    3  A    between atoms: C_3  and  C_4
REMARK    4  A    between atoms: C_4  and  N_5
REMARK    5  A    between atoms: C_6  and  C_8
REMARK    6  A    between atoms: C_12  and  C_34
REMARK    7  A    between atoms: N_14  and  C_16
REMARK    8  A    between atoms: C_16  and  C_17
REMARK    9  A    between atoms: N_19  and  C_20
REMARK   10  A    between atoms: C_20  and  C_22
REMARK   11  A    between atoms: C_20  and  C_29
REMARK   12  A    between atoms: C_25  and  C_28
REMARK                            x       y       z     vdW  Elec       q    Type
REMARK                         _______ _______ _______ _____ _____    ______ ____
ROOT
ATOM      1  C   UNL     1       0.934  -7.815  -3.866  0.00  0.00    +0.019 C 
ENDROOT
BRANCH   1   6
ATOM      2  C   UNL     1       2.269  -4.308  -3.932  0.00  0.00    +0.058 C 
ATOM      3  C   UNL     1       1.528  -3.803  -5.173  0.00  0.00    +0.009 C 
ATOM      4  C   UNL     1       0.118  -4.400  -5.192  0.00  0.00    -0.015 C 
ATOM      5  C   UNL     1       0.216  -5.927  -5.156  0.00  0.00    -0.071 C 
ATOM      6  N   UNL     1       0.911  -6.347  -3.934  0.00  0.00    +0.388 N 
ATOM      7  C   UNL     1       2.288  -5.838  -3.942  0.00  0.00    -0.065 C 
ATOM      8  C   UNL     1      -1.191  -6.528  -5.174  0.00  0.00    -0.013 C 
ATOM      9  H   UNL     1       0.424  -5.983  -3.129  0.00  0.00    -0.081 HD
BRANCH   2  11
ATOM     10  N   UNL     1       1.425  -2.500  -2.470  0.00  0.00    -0.315 N 
ATOM     11  C   UNL     1       1.564  -3.822  -2.692  0.00  0.00    +0.214 C 
ATOM     12  O   UNL     1       1.121  -4.620  -1.894  0.00  0.00    -0.276 OA
ATOM     13  H   UNL     1       1.779  -1.861  -3.109  0.00  0.00    +0.149 HD
BRANCH  10  14
ATOM     14  C   UNL     1       0.739  -2.027  -1.265  0.00  0.00    +0.104 C 
BRANCH  14  15
ATOM     15  C   UNL     1       0.718  -0.497  -1.257  0.00  0.00    +0.018 C 
BRANCH  15  17
ATOM     16  C   UNL     1      -0.019   1.526   0.010  0.00  0.00    +0.004 C 
ATOM     17  C   UNL     1       0.002  -0.004   0.002  0.00  0.00    -0.002 C 
ENDBRANCH  15  17
ENDBRANCH  14  15
ENDBRANCH  10  14
ENDBRANCH   2  11
ENDBRANCH   1   6
BRANCH   1  18
ATOM     18  C   UNL     1       1.537  -8.247  -2.554  0.00  0.00    +0.197 C 
ATOM     19  O   UNL     1       1.911  -7.415  -1.755  0.00  0.00    -0.278 OA
ATOM     20  N   UNL     1       1.661  -9.559  -2.269  0.00  0.00    -0.306 N 
ATOM     21  H   UNL     1       1.362 -10.224  -2.909  0.00  0.00    +0.150 HD
BRANCH  20  22
ATOM     22  C   UNL     1       2.247  -9.979  -0.994  0.00  0.00    +0.140 C 
BRANCH  22  23
ATOM     23  C   UNL     1       1.742 -11.354  -0.638  0.00  0.00    -0.022 A 
ATOM     24  C   UNL     1       1.611 -12.318  -1.621  0.00  0.00    +0.006 A 
ATOM     25  C   UNL     1       1.148 -13.579  -1.294  0.00  0.00    +0.004 A 
ATOM     26  C   UNL     1       0.817 -13.876   0.015  0.00  0.00    -0.050 A 
ATOM     27  C   UNL     1       0.949 -12.912   0.997  0.00  0.00    +0.004 A 
ATOM     28  C   UNL     1       1.416 -11.652   0.671  0.00  0.00    +0.006 A 
ATOM     29  C   UNL     1       0.311 -15.250   0.371  0.00  0.00    +0.044 C 
ENDBRANCH  22  23
BRANCH  22  30
ATOM     30  C   UNL     1       3.749 -10.012  -1.119  0.00  0.00    +0.014 A 
ATOM     31  C   UNL     1       4.689  -9.629  -0.220  0.00  0.00    +0.013 A 
ATOM     32  C   UNL     1       6.024  -9.752  -0.553  0.00  0.00    +0.008 A 
ATOM     33  C   UNL     1       6.355 -10.251  -1.769  0.00  0.00    +0.045 A 
ATOM     34  S   UNL     1       4.752 -10.573  -2.485  0.00  0.00    -0.099 S 
ENDBRANCH  22  30
ENDBRANCH  20  22
ENDBRANCH   1  18
TORSDOF 9
