REMARK  Name = ZINC34761430
REMARK  13 active torsions:
REMARK  status: ('A' for Active; 'I' for Inactive)
REMARK    1  A    between atoms: C_1  and  C_2
REMARK    2  A    between atoms: C_2  and  C_3
REMARK    3  A    between atoms: C_3  and  C_4
REMARK    4  A    between atoms: C_4  and  S_5
REMARK    5  A    between atoms: S_5  and  C_6
REMARK    6  A    between atoms: C_10  and  C_16
REMARK    7  A    between atoms: C_11  and  C_15
REMARK    8  A    between atoms: C_16  and  C_17
REMARK    9  A    between atoms: N_21  and  C_24
REMARK   10  A    between atoms: C_24  and  C_25
REMARK   11  A    between atoms: N_27  and  C_28
REMARK   12  A    between atoms: C_31  and  O_34
REMARK   13  A    between atoms: O_34  and  C_35
REMARK                            x       y       z     vdW  Elec       q    Type
REMARK                         _______ _______ _______ _____ _____    ______ ____
ROOT
ATOM      1  C   UNL     1      -0.133  -5.486  -2.311  0.00  0.00    +0.191 A 
ATOM      2  N   UNL     1       0.364  -6.129  -3.362  0.00  0.00    -0.206 NA
ATOM      3  C   UNL     1       1.658  -6.371  -3.489  0.00  0.00    +0.134 A 
ATOM      4  C   UNL     1       2.552  -5.932  -2.474  0.00  0.00    +0.051 A 
ATOM      5  C   UNL     1       3.996  -6.075  -2.384  0.00  0.00    -0.025 A 
ATOM      6  C   UNL     1       4.638  -5.575  -1.319  0.00  0.00    -0.007 A 
ATOM      7  S   UNL     1       3.330  -4.863  -0.340  0.00  0.00    -0.073 S 
ATOM      8  C   UNL     1       1.955  -5.256  -1.388  0.00  0.00    +0.115 A 
ATOM      9  N   UNL     1       0.653  -5.049  -1.337  0.00  0.00    -0.215 NA
ATOM     10  C   UNL     1       6.115  -5.607  -1.021  0.00  0.00    +0.052 C 
ATOM     11  N   UNL     1       2.136  -7.045  -4.598  0.00  0.00    -0.318 N 
ATOM     12  C   UNL     1       2.210  -8.514  -4.617  0.00  0.00    +0.088 C 
ATOM     13  C   UNL     1       1.542  -9.017  -5.901  0.00  0.00    -0.059 C 
ATOM     14  N   UNL     1       2.160  -8.364  -7.062  0.00  0.00    +0.387 N 
ATOM     15  C   UNL     1       1.899  -6.920  -7.021  0.00  0.00    -0.059 C 
ATOM     16  C   UNL     1       2.579  -6.313  -5.795  0.00  0.00    +0.088 C 
ATOM     17  H   UNL     1       3.156  -8.525  -7.046  0.00  0.00    -0.081 HD
ENDROOT
BRANCH   5  18
ATOM     18  C   UNL     1       4.761  -6.777  -3.476  0.00  0.00    +0.033 C 
ATOM     19  C   UNL     1       5.313  -5.742  -4.459  0.00  0.00    +0.009 C 
ENDBRANCH   5  18
BRANCH   1  20
ATOM     20  S   UNL     1      -1.869  -5.202  -2.214  0.00  0.00    -0.086 S 
BRANCH  20  21
ATOM     21  C   UNL     1      -2.080  -4.306  -0.651  0.00  0.00    +0.077 C 
BRANCH  21  22
ATOM     22  C   UNL     1      -3.563  -3.991  -0.440  0.00  0.00    +0.011 C 
BRANCH  22  24
ATOM     23  C   UNL     1      -5.223  -2.921   1.090  0.00  0.00    +0.004 C 
ATOM     24  C   UNL     1      -3.741  -3.235   0.878  0.00  0.00    -0.003 C 
ENDBRANCH  22  24
ENDBRANCH  21  22
ENDBRANCH  20  21
ENDBRANCH   1  20
BRANCH  14  25
ATOM     25  C   UNL     1       1.597  -8.927  -8.296  0.00  0.00    +0.019 C 
BRANCH  25  26
ATOM     26  C   UNL     1       2.315  -8.347  -9.487  0.00  0.00    +0.201 C 
ATOM     27  O   UNL     1       3.209  -7.544  -9.324  0.00  0.00    -0.278 OA
ATOM     28  N   UNL     1       1.965  -8.721 -10.733  0.00  0.00    -0.287 N 
ATOM     29  H   UNL     1       1.296  -9.412 -10.863  0.00  0.00    +0.155 HD
BRANCH  28  30
ATOM     30  C   UNL     1       2.567  -8.113 -11.843  0.00  0.00    +0.034 A 
ATOM     31  C   UNL     1       3.902  -7.737 -11.790  0.00  0.00    +0.027 A 
ATOM     32  C   UNL     1       4.495  -7.138 -12.883  0.00  0.00    +0.047 A 
ATOM     33  C   UNL     1       3.756  -6.910 -14.035  0.00  0.00    +0.120 A 
ATOM     34  C   UNL     1       2.421  -7.285 -14.089  0.00  0.00    +0.047 A 
ATOM     35  C   UNL     1       1.829  -7.890 -12.998  0.00  0.00    +0.027 A 
BRANCH  33  36
ATOM     36  O   UNL     1       4.340  -6.320 -15.111  0.00  0.00    -0.495 OA
ATOM     37  C   UNL     1       3.520  -6.116 -16.264  0.00  0.00    +0.277 C 
ENDBRANCH  33  36
ENDBRANCH  28  30
ENDBRANCH  25  26
ENDBRANCH  14  25
TORSDOF 9
