REMARK  Name = ZINC03012537
REMARK  8 active torsions:
REMARK  status: ('A' for Active; 'I' for Inactive)
REMARK    1  A    between atoms: C_1  and  O_2
REMARK    2  A    between atoms: O_2  and  C_3
REMARK    3  A    between atoms: C_6  and  C_11
REMARK    4  A    between atoms: C_8  and  O_9
REMARK    5  A    between atoms: O_9  and  C_10
REMARK    6  A    between atoms: C_14  and  C_32
REMARK    7  A    between atoms: C_18  and  C_21
REMARK    8  A    between atoms: N_23  and  C_24
REMARK                            x       y       z     vdW  Elec       q    Type
REMARK                         _______ _______ _______ _____ _____    ______ ____
ROOT
ATOM      1  C   UNL     1       2.496  -2.519  -4.391  0.00  0.00    +0.104 C 
ATOM      2  C   UNL     1       4.016  -2.518  -4.193  0.00  0.00    +0.063 C 
ATOM      3  C   UNL     1       4.692  -3.244  -5.361  0.00  0.00    +0.215 C 
ATOM      4  N   UNL     1       4.164  -2.711  -6.620  0.00  0.00    -0.238 N 
ATOM      5  C   UNL     1       2.997  -2.030  -6.716  0.00  0.00    +0.130 A 
ATOM      6  C   UNL     1       2.824  -1.683  -8.043  0.00  0.00    +0.096 A 
ATOM      7  C   UNL     1       3.944  -2.191  -8.748  0.00  0.00    +0.149 A 
ATOM      8  N   UNL     1       4.725  -2.795  -7.894  0.00  0.00    -0.177 NA
ATOM      9  N   UNL     1       2.181  -1.776  -5.627  0.00  0.00    -0.322 N 
ATOM     10  H   UNL     1       1.446  -1.144  -5.671  0.00  0.00    +0.148 HD
ENDROOT
BRANCH   1  14
ATOM     11  C   UNL     1       0.612  -0.618  -1.056  0.00  0.00    +0.162 A 
ATOM     12  C   UNL     1       1.184   0.146  -2.060  0.00  0.00    +0.050 A 
ATOM     13  C   UNL     1       1.792  -0.471  -3.137  0.00  0.00    +0.009 A 
ATOM     14  C   UNL     1       1.832  -1.851  -3.215  0.00  0.00    -0.024 A 
ATOM     15  C   UNL     1       1.262  -2.619  -2.216  0.00  0.00    +0.054 A 
ATOM     16  C   UNL     1       0.656  -2.006  -1.131  0.00  0.00    +0.162 A 
BRANCH  11  18
ATOM     17  C   UNL     1       0.005   1.417   0.015  0.00  0.00    +0.277 C 
ATOM     18  O   UNL     1       0.013  -0.012   0.004  0.00  0.00    -0.491 OA
ENDBRANCH  11  18
BRANCH  16  19
ATOM     19  O   UNL     1       0.101  -2.761  -0.145  0.00  0.00    -0.491 OA
ATOM     20  C   UNL     1       0.184  -4.180  -0.289  0.00  0.00    +0.277 C 
ENDBRANCH  16  19
ENDBRANCH   1  14
BRANCH   6  21
ATOM     21  C   UNL     1       1.697  -0.934  -8.612  0.00  0.00    +0.253 C 
ATOM     22  O   UNL     1       0.793  -0.554  -7.891  0.00  0.00    -0.270 OA
ATOM     23  N   UNL     1       1.663  -0.669  -9.933  0.00  0.00    -0.280 N 
ATOM     24  H   UNL     1       2.419  -0.901 -10.494  0.00  0.00    +0.155 HD
BRANCH  23  25
ATOM     25  C   UNL     1       0.536  -0.058 -10.495  0.00  0.00    +0.052 A 
ATOM     26  C   UNL     1      -0.702  -0.181  -9.879  0.00  0.00    +0.025 A 
ATOM     27  C   UNL     1      -1.812   0.423 -10.437  0.00  0.00    +0.002 A 
ATOM     28  C   UNL     1      -1.692   1.150 -11.607  0.00  0.00    +0.002 A 
ATOM     29  C   UNL     1      -0.460   1.276 -12.223  0.00  0.00    +0.022 A 
ATOM     30  C   UNL     1       0.656   0.679 -11.667  0.00  0.00    +0.062 A 
ATOM     31 CL   UNL     1       2.203   0.843 -12.437  0.00  0.00    -0.082 Cl
ENDBRANCH  23  25
ENDBRANCH   6  21
BRANCH   3  32
ATOM     32  C   UNL     1       6.204  -3.017  -5.300  0.00  0.00    +0.412 C 
ATOM     33  F   UNL     1       6.702  -3.516  -4.091  0.00  0.00    -0.168 F 
ATOM     34  F   UNL     1       6.819  -3.681  -6.366  0.00  0.00    -0.168 F 
ATOM     35  F   UNL     1       6.474  -1.647  -5.385  0.00  0.00    -0.168 F 
ENDBRANCH   3  32
TORSDOF 6
