REMARK  Name = ZINC55887679
REMARK  8 active torsions:
REMARK  status: ('A' for Active; 'I' for Inactive)
REMARK    1  A    between atoms: C_1  and  C_2
REMARK    2  A    between atoms: C_2  and  C_4
REMARK    3  A    between atoms: C_2  and  N_11
REMARK    4  A    between atoms: C_12  and  C_14
REMARK    5  A    between atoms: C_14  and  N_15
REMARK    6  A    between atoms: N_15  and  C_16
REMARK    7  A    between atoms: C_21  and  N_22
REMARK    8  A    between atoms: C_25  and  O_28
REMARK                            x       y       z     vdW  Elec       q    Type
REMARK                         _______ _______ _______ _____ _____    ______ ____
ROOT
ATOM      1  N   UNL     1       4.228  -1.092   2.137  0.00  0.00    -0.334 N 
ATOM      2  H   UNL     1       4.568  -0.799   1.277  0.00  0.00    +0.147 HD
ENDROOT
BRANCH   1   3
ATOM      3  C   UNL     1       5.112  -1.540   3.121  0.00  0.00    +0.047 A 
ATOM      4  C   UNL     1       4.641  -1.848   4.391  0.00  0.00    +0.025 A 
ATOM      5  C   UNL     1       5.517  -2.291   5.362  0.00  0.00    +0.002 A 
ATOM      6  C   UNL     1       6.863  -2.428   5.072  0.00  0.00    +0.002 A 
ATOM      7  C   UNL     1       7.335  -2.122   3.808  0.00  0.00    +0.023 A 
ATOM      8  C   UNL     1       6.463  -1.684   2.831  0.00  0.00    +0.035 A 
BRANCH   8   9
ATOM      9  N   UNL     1       6.940  -1.381   1.552  0.00  0.00    -0.392 NA
ATOM     10  C   UNL     1       8.005  -0.376   1.655  0.00  0.00    +0.087 C 
ATOM     11  C   UNL     1       8.475   0.019   0.253  0.00  0.00    +0.048 C 
ATOM     12  C   UNL     1       9.009  -1.221  -0.469  0.00  0.00    +0.117 C 
ATOM     13  C   UNL     1       7.913  -2.290  -0.504  0.00  0.00    +0.048 C 
ATOM     14  C   UNL     1       7.464  -2.600   0.925  0.00  0.00    +0.087 C 
ATOM     15  H   UNL     1       6.186  -1.013   0.992  0.00  0.00    +0.126 HD
BRANCH  12  16
ATOM     16  O   UNL     1       9.381  -0.873  -1.804  0.00  0.00    -0.392 OA
ATOM     17  H   UNL     1       9.729  -1.613  -2.321  0.00  0.00    +0.210 HD
ENDBRANCH  12  16
ENDBRANCH   8   9
ENDBRANCH   1   3
BRANCH   1  18
ATOM     18  C   UNL     1       2.788  -1.066   2.402  0.00  0.00    +0.197 C 
BRANCH  18  20
ATOM     19  N   UNL     1       0.720  -0.433   1.202  0.00  0.00    -0.307 N 
ATOM     20  C   UNL     1       2.062  -0.545   1.188  0.00  0.00    +0.231 C 
ATOM     21  O   UNL     1       2.687  -0.228   0.198  0.00  0.00    -0.274 OA
ATOM     22  H   UNL     1       0.220  -0.686   1.994  0.00  0.00    +0.149 HD
BRANCH  19  24
ATOM     23  C   UNL     1      -0.004   1.603   0.055  0.00  0.00    +0.033 C 
ATOM     24  C   UNL     1       0.014   0.073   0.022  0.00  0.00    +0.100 C 
BRANCH  24  25
ATOM     25  C   UNL     1      -1.400  -0.446   0.021  0.00  0.00    -0.027 A 
ATOM     26  C   UNL     1      -2.114  -0.509   1.204  0.00  0.00    +0.008 A 
ATOM     27  C   UNL     1      -3.411  -0.984   1.205  0.00  0.00    +0.038 A 
ATOM     28  C   UNL     1      -3.997  -1.398   0.020  0.00  0.00    +0.123 A 
ATOM     29  C   UNL     1      -3.282  -1.334  -1.164  0.00  0.00    +0.038 A 
ATOM     30  C   UNL     1      -1.986  -0.854  -1.163  0.00  0.00    +0.008 A 
ATOM     31  F   UNL     1      -5.265  -1.863   0.019  0.00  0.00    -0.205 F 
ENDBRANCH  24  25
ENDBRANCH  19  24
ENDBRANCH  18  20
ENDBRANCH   1  18
TORSDOF 7
