REMARK  Name = ZINC03840741
REMARK  12 active torsions:
REMARK  status: ('A' for Active; 'I' for Inactive)
REMARK    1  A    between atoms: C_1  and  C_2
REMARK    2  A    between atoms: C_10  and  C_12
REMARK    3  A    between atoms: C_12  and  C_13
REMARK    4  A    between atoms: C_13  and  C_14
REMARK    5  A    between atoms: C_13  and  C_15
REMARK    6  A    between atoms: C_13  and  C_16
REMARK    7  A    between atoms: C_18  and  C_39
REMARK    8  A    between atoms: C_21  and  O_38
REMARK    9  A    between atoms: C_23  and  C_27
REMARK   10  A    between atoms: C_27  and  C_29
REMARK   11  A    between atoms: C_27  and  C_30
REMARK   12  A    between atoms: C_37  and  N_79
REMARK                            x       y       z     vdW  Elec       q    Type
REMARK                         _______ _______ _______ _____ _____    ______ ____
ROOT
ATOM      1  C   UNL     1       0.546  -0.402  -1.596  0.00  0.00    +0.014 C 
ATOM      2  C   UNL     1       0.953  -0.655  -0.143  0.00  0.00    +0.042 C 
ATOM      3  C   UNL     1       0.704  -2.116   0.207  0.00  0.00    +0.057 A 
ATOM      4  C   UNL     1       0.187  -2.451   1.417  0.00  0.00    +0.015 A 
ATOM      5  S   UNL     1       0.098  -4.219   1.327  0.00  0.00    -0.057 S 
ATOM      6  C   UNL     1       0.740  -4.382  -0.280  0.00  0.00    +0.165 A 
ATOM      7  N   UNL     1       0.966  -3.129  -0.615  0.00  0.00    -0.229 NA
ATOM      8  N   UNL     1       0.959  -5.538  -1.021  0.00  0.00    -0.265 N 
ATOM      9  C   UNL     1       0.659  -6.742  -0.495  0.00  0.00    +0.219 C 
ATOM     10  O   UNL     1       0.199  -6.817   0.625  0.00  0.00    -0.275 OA
ATOM     11  C   UNL     1      -0.201  -1.537   2.527  0.00  0.00    +0.051 C 
ATOM     12  C   UNL     1       0.371  -0.145   2.247  0.00  0.00    -0.022 C 
ATOM     13  C   UNL     1       0.123   0.239   0.784  0.00  0.00    +0.033 C 
ATOM     14  C   UNL     1       0.598   1.689   0.594  0.00  0.00    +0.123 C 
ATOM     15  C   UNL     1       2.101   1.753   0.871  0.00  0.00    +0.029 C 
ATOM     16  C   UNL     1       2.388   1.313   2.307  0.00  0.00    +0.007 C 
ATOM     17  C   UNL     1       1.872  -0.113   2.526  0.00  0.00    +0.008 C 
ATOM     18  C   UNL     1      -0.333   0.862   3.159  0.00  0.00    +0.012 C 
ATOM     19  H   UNL     1       1.327  -5.478  -1.916  0.00  0.00    +0.157 HD
ENDROOT
BRANCH  15  20
ATOM     20  C   UNL     1       2.594   3.188   0.672  0.00  0.00    +0.078 C 
ATOM     21  C   UNL     1       2.320   3.625  -0.769  0.00  0.00    +0.017 C 
BRANCH  20  22
ATOM     22  C   UNL     1       4.075   3.253   0.944  0.00  0.00    +0.219 C 
ATOM     23  O   UNL     1       4.751   2.249   0.865  0.00  0.00    -0.275 OA
ATOM     24  N   UNL     1       4.648   4.427   1.275  0.00  0.00    -0.305 N 
ATOM     25  C   UNL     1       3.876   5.678   1.248  0.00  0.00    +0.089 C 
ATOM     26  C   UNL     1       4.063   6.390   2.597  0.00  0.00    -0.060 C 
ATOM     27  C   UNL     1       6.166   5.251   2.995  0.00  0.00    -0.060 C 
ATOM     28  C   UNL     1       6.064   4.491   1.668  0.00  0.00    +0.089 C 
ATOM     29  C   UNL     1       5.722   7.382   4.056  0.00  0.00    -0.096 C 
ATOM     30  N   UNL     1       5.511   6.568   2.841  0.00  0.00    +0.380 N 
ATOM     31  H   UNL     1       5.926   7.054   2.037  0.00  0.00    -0.082 HD
ENDBRANCH  20  22
ENDBRANCH  15  20
BRANCH  14  32
ATOM     32  O   UNL     1      -0.095   2.543   1.507  0.00  0.00    -0.391 OA
ATOM     33  H   UNL     1       0.157   3.475   1.441  0.00  0.00    +0.210 HD
ENDBRANCH  14  32
BRANCH   9  34
ATOM     34  C   UNL     1       0.896  -7.995  -1.298  0.00  0.00    +0.102 C 
BRANCH  34  35
ATOM     35  C   UNL     1       0.475  -9.215  -0.476  0.00  0.00    -0.029 C 
ATOM     36  C   UNL     1      -1.010  -9.106  -0.126  0.00  0.00    +0.011 C 
ATOM     37  C   UNL     1       0.715 -10.487  -1.291  0.00  0.00    +0.011 C 
ATOM     38  C   UNL     1       1.299  -9.271   0.812  0.00  0.00    +0.011 C 
ENDBRANCH  34  35
ENDBRANCH   9  34
TORSDOF 5
