REMARK  Name = ZINC04268262
REMARK  10 active torsions:
REMARK  status: ('A' for Active; 'I' for Inactive)
REMARK    1  A    between atoms: C_4  and  O_17
REMARK    2  A    between atoms: C_10  and  O_16
REMARK    3  A    between atoms: C_13  and  C_14
REMARK    4  A    between atoms: C_14  and  O_15
REMARK    5  A    between atoms: O_17  and  C_18
REMARK    6  A    between atoms: C_20  and  O_33
REMARK    7  A    between atoms: C_22  and  O_32
REMARK    8  A    between atoms: C_24  and  O_31
REMARK    9  A    between atoms: C_26  and  C_29
REMARK   10  A    between atoms: C_29  and  O_30
REMARK                            x       y       z     vdW  Elec       q    Type
REMARK                         _______ _______ _______ _____ _____    ______ ____
ROOT
ATOM      1  O   UNL     1       2.913  -0.287  -2.354  0.00  0.00    -0.309 OA
ENDROOT
BRANCH   1   5
ATOM      2  C   UNL     1       7.014  -0.271  -2.289  0.00  0.00    +0.018 C 
ATOM      3  C   UNL     1       6.304  -0.645  -1.258  0.00  0.00    +0.186 C 
ATOM      4  O   UNL     1       4.960  -0.804  -1.350  0.00  0.00    -0.471 OA
ATOM      5  C   UNL     1       4.307   0.029  -2.315  0.00  0.00    +0.317 C 
ATOM      6  C   UNL     1       4.925  -0.222  -3.686  0.00  0.00    +0.095 C 
ATOM      7  C   UNL     1       6.447   0.004  -3.646  0.00  0.00    +0.060 C 
ATOM      8  C   UNL     1       6.941  -1.091  -4.625  0.00  0.00    +0.145 C 
ATOM      9  C   UNL     1       5.857  -2.144  -4.597  0.00  0.00    +0.006 C 
ATOM     10  C   UNL     1       4.754  -1.669  -4.083  0.00  0.00    -0.036 C 
BRANCH   8  11
ATOM     11  O   UNL     1       8.182  -1.637  -4.176  0.00  0.00    -0.387 OA
ATOM     12  H   UNL     1       8.539  -2.328  -4.751  0.00  0.00    +0.210 HD
ENDBRANCH   8  11
BRANCH  10  13
ATOM     13  C   UNL     1       3.482  -2.458  -3.910  0.00  0.00    +0.187 C 
BRANCH  13  14
ATOM     14  O   UNL     1       3.678  -3.789  -4.392  0.00  0.00    -0.391 OA
ATOM     15  H   UNL     1       2.898  -4.355  -4.311  0.00  0.00    +0.210 HD
ENDBRANCH  13  14
ENDBRANCH  10  13
ENDBRANCH   1   5
BRANCH   1  16
ATOM     16  C   UNL     1       2.194   0.114  -1.186  0.00  0.00    +0.286 C 
ATOM     17  C   UNL     1       0.786  -0.486  -1.222  0.00  0.00    +0.201 C 
ATOM     18  C   UNL     1       0.002  -0.004   0.002  0.00  0.00    +0.179 C 
ATOM     19  C   UNL     1      -0.019   1.528   0.010  0.00  0.00    +0.177 C 
ATOM     20  C   UNL     1       1.420   2.050  -0.001  0.00  0.00    +0.178 C 
ATOM     21  O   UNL     1       2.102   1.539  -1.148  0.00  0.00    -0.340 OA
BRANCH  19  22
ATOM     22  O   UNL     1      -0.708   2.002  -1.148  0.00  0.00    -0.386 OA
ATOM     23  H   UNL     1      -1.626   1.705  -1.209  0.00  0.00    +0.210 HD
ENDBRANCH  19  22
BRANCH  18  24
ATOM     24  O   UNL     1      -1.337  -0.500  -0.060  0.00  0.00    -0.386 OA
ATOM     25  H   UNL     1      -1.399  -1.465  -0.068  0.00  0.00    +0.210 HD
ENDBRANCH  18  24
BRANCH  17  26
ATOM     26  O   UNL     1       0.118  -0.065  -2.413  0.00  0.00    -0.384 OA
ATOM     27  H   UNL     1       0.561  -0.337  -3.229  0.00  0.00    +0.210 HD
ENDBRANCH  17  26
BRANCH  20  28
ATOM     28  C   UNL     1       1.408   3.579  -0.053  0.00  0.00    +0.190 C 
BRANCH  28  29
ATOM     29  O   UNL     1       2.746   4.070   0.054  0.00  0.00    -0.392 OA
ATOM     30  H   UNL     1       2.814   5.034   0.028  0.00  0.00    +0.210 HD
ENDBRANCH  28  29
ENDBRANCH  20  28
ENDBRANCH   1  16
TORSDOF 10
