REMARK  Name = ZINC21323141
REMARK  10 active torsions:
REMARK  status: ('A' for Active; 'I' for Inactive)
REMARK    1  A    between atoms: C_1  and  C_2
REMARK    2  A    between atoms: C_2  and  C_24
REMARK    3  A    between atoms: N_3  and  N_4
REMARK    4  A    between atoms: C_8  and  S_11
REMARK    5  A    between atoms: N_9  and  N_10
REMARK    6  A    between atoms: S_11  and  C_12
REMARK    7  A    between atoms: C_12  and  C_13
REMARK    8  A    between atoms: N_15  and  C_16
REMARK    9  A    between atoms: C_21  and  S_22
REMARK   10  A    between atoms: S_22  and  C_23
REMARK                            x       y       z     vdW  Elec       q    Type
REMARK                         _______ _______ _______ _____ _____    ______ ____
ROOT
ATOM      1  N   UNL     1       0.046   0.064  -2.338  0.00  0.00    -0.204 N 
ATOM      2  C   UNL     1       0.034  -0.624  -3.543  0.00  0.00    +0.254 A 
ATOM      3  N   UNL     1       0.047  -1.927  -3.687  0.00  0.00    -0.109 NA
ATOM      4  N   UNL     1       0.027  -2.212  -5.058  0.00  0.00    -0.119 NA
ATOM      5  C   UNL     1       0.002  -1.072  -5.708  0.00  0.00    +0.210 A 
ATOM      6  N   UNL     1      -0.001  -0.062  -4.789  0.00  0.00    -0.211 N 
ATOM      7  H   UNL     1       0.032   1.164  -2.333  0.00  0.00    +0.178 HD
ENDROOT
BRANCH   1  10
ATOM      8  C   UNL     1       0.069   1.508   0.007  0.00  0.00    +0.068 C 
ATOM      9  C   UNL     1       0.087   0.001  -0.001  0.00  0.00    +0.063 C 
ATOM     10  N   UNL     1       0.076  -0.642  -1.128  0.00  0.00    -0.184 NA
BRANCH   9  11
ATOM     11  C   UNL     1       0.119  -0.742   1.272  0.00  0.00    -0.002 A 
ATOM     12  C   UNL     1       0.137  -0.052   2.487  0.00  0.00    +0.011 A 
ATOM     13  C   UNL     1       0.161  -0.754   3.674  0.00  0.00    +0.016 A 
ATOM     14  C   UNL     1       0.179  -2.139   3.664  0.00  0.00    +0.018 A 
ATOM     15  C   UNL     1       0.167  -2.828   2.463  0.00  0.00    +0.016 A 
ATOM     16  C   UNL     1       0.137  -2.139   1.269  0.00  0.00    +0.011 A 
ATOM     17 BR   UNL     1       0.219  -3.092   5.296  0.00  0.00    -0.050 Br
ENDBRANCH   9  11
ENDBRANCH   1  10
BRANCH   6  18
ATOM     18  N   UNL     1      -0.029   1.275  -5.066  0.00  0.00    -0.294 N 
ATOM     19  H   UNL     1      -0.056   1.620  -6.110  0.00  0.00    +0.163 HD
ATOM     20  H   UNL     1      -0.026   2.007  -4.245  0.00  0.00    +0.163 HD
ENDBRANCH   6  18
BRANCH   5  21
ATOM     21  S   UNL     1      -0.031  -0.879  -7.459  0.00  0.00    -0.075 S 
BRANCH  21  22
ATOM     22  C   UNL     1      -0.021  -2.581  -8.088  0.00  0.00    +0.173 C 
BRANCH  22  23
ATOM     23  C   UNL     1      -0.048  -2.559  -9.595  0.00  0.00    +0.228 C 
ATOM     24  O   UNL     1      -0.072  -1.500 -10.186  0.00  0.00    -0.275 OA
ATOM     25  N   UNL     1      -0.046  -3.717 -10.285  0.00  0.00    -0.284 N 
ATOM     26  H   UNL     1       0.049  -4.675  -9.753  0.00  0.00    +0.155 HD
BRANCH  25  27
ATOM     27  C   UNL     1      -0.166  -3.700 -11.682  0.00  0.00    +0.047 A 
ATOM     28  C   UNL     1       0.403  -2.671 -12.416  0.00  0.00    +0.024 A 
ATOM     29  C   UNL     1       0.289  -2.659 -13.794  0.00  0.00    +0.002 A 
ATOM     30  C   UNL     1      -0.402  -3.666 -14.443  0.00  0.00    +0.001 A 
ATOM     31  C   UNL     1      -0.978  -4.693 -13.719  0.00  0.00    +0.016 A 
ATOM     32  C   UNL     1      -0.863  -4.716 -12.336  0.00  0.00    +0.029 A 
BRANCH  32  33
ATOM     33  S   UNL     1      -1.596  -6.023 -11.411  0.00  0.00    -0.127 S 
ATOM     34  C   UNL     1      -2.371  -7.073 -12.671  0.00  0.00    +0.090 C 
ENDBRANCH  32  33
ENDBRANCH  25  27
ENDBRANCH  22  23
ENDBRANCH  21  22
ENDBRANCH   5  21
TORSDOF 8
