REMARK  Name = ZINC62257714
REMARK  6 active torsions:
REMARK  status: ('A' for Active; 'I' for Inactive)
REMARK    1  A    between atoms: C_6  and  C_7
REMARK    2  A    between atoms: C_10  and  C_12
REMARK    3  A    between atoms: C_12  and  N_13
REMARK    4  A    between atoms: N_13  and  C_14
REMARK    5  A    between atoms: N_18  and  C_20
REMARK    6  A    between atoms: C_20  and  C_21
REMARK                            x       y       z     vdW  Elec       q    Type
REMARK                         _______ _______ _______ _____ _____    ______ ____
ROOT
ATOM      1  N   UNL     1      -5.738  -2.099   1.427  0.00  0.00    -0.311 NA
ATOM      2  H   UNL     1      -5.219  -2.797   1.939  0.00  0.00    +0.122 HD
ENDROOT
BRANCH   1   3
ATOM      3  C   UNL     1      -7.180  -2.374   1.476  0.00  0.00    +0.037 C 
ATOM      4  C   UNL     1      -7.418  -3.883   1.370  0.00  0.00    +0.015 C 
ATOM      5  C   UNL     1      -8.917  -4.165   1.501  0.00  0.00    -0.017 C 
ATOM      6  C   UNL     1      -9.425  -3.590   2.825  0.00  0.00    -0.078 C 
ATOM      7  N   UNL     1      -9.193  -2.140   2.854  0.00  0.00    +0.386 N 
ATOM      8  C   UNL     1      -7.752  -1.865   2.801  0.00  0.00    -0.059 C 
ATOM      9  H   UNL     1      -9.646  -1.712   2.060  0.00  0.00    -0.081 HD
BRANCH   7  10
ATOM     10  C   UNL     1      -9.752  -1.581   4.093  0.00  0.00    +0.018 C 
BRANCH  10  11
ATOM     11  C   UNL     1     -11.250  -1.746   4.087  0.00  0.00    +0.194 C 
ATOM     12  O   UNL     1     -11.798  -2.277   3.145  0.00  0.00    -0.278 OA
ATOM     13  N   UNL     1     -11.980  -1.304   5.130  0.00  0.00    -0.331 N 
ATOM     14  H   UNL     1     -11.541  -0.879   5.884  0.00  0.00    +0.145 HD
ATOM     15  H   UNL     1     -12.944  -1.410   5.127  0.00  0.00    +0.145 HD
ENDBRANCH  10  11
ENDBRANCH   7  10
ENDBRANCH   1   3
BRANCH   1  16
ATOM     16  C   UNL     1      -5.267  -2.007   0.038  0.00  0.00    +0.123 C 
BRANCH  16  20
ATOM     17  C   UNL     1      -1.266  -0.763   0.011  0.00  0.00    +0.020 A 
ATOM     18  C   UNL     1      -1.461  -2.119   0.011  0.00  0.00    +0.016 A 
ATOM     19  C   UNL     1      -2.751  -2.603   0.020  0.00  0.00    +0.013 A 
ATOM     20  C   UNL     1      -3.787  -1.725   0.028  0.00  0.00    +0.004 A 
ATOM     21  S   UNL     1      -2.944  -0.151   0.031  0.00  0.00    -0.092 S 
BRANCH  17  27
ATOM     22  C   UNL     1      -0.017   1.391   0.010  0.00  0.00    +0.012 A 
ATOM     23  C   UNL     1       1.170   2.095   0.002  0.00  0.00    +0.039 A 
ATOM     24  C   UNL     1       2.379   1.418  -0.013  0.00  0.00    +0.123 A 
ATOM     25  C   UNL     1       2.403   0.033  -0.022  0.00  0.00    +0.039 A 
ATOM     26  C   UNL     1       1.223  -0.680  -0.014  0.00  0.00    +0.012 A 
ATOM     27  C   UNL     1       0.002  -0.004   0.002  0.00  0.00    -0.011 A 
ATOM     28  F   UNL     1       3.538   2.112  -0.021  0.00  0.00    -0.205 F 
ENDBRANCH  17  27
ENDBRANCH  16  20
ENDBRANCH   1  16
TORSDOF 6
