REMARK  Name = ZINC34749459
REMARK  9 active torsions:
REMARK  status: ('A' for Active; 'I' for Inactive)
REMARK    1  A    between atoms: C_1  and  C_2
REMARK    2  A    between atoms: C_2  and  C_3
REMARK    3  A    between atoms: C_4  and  C_37
REMARK    4  A    between atoms: N_10  and  C_30
REMARK    5  A    between atoms: N_16  and  C_19
REMARK    6  A    between atoms: C_19  and  C_20
REMARK    7  A    between atoms: N_22  and  C_23
REMARK    8  A    between atoms: C_28  and  C_29
REMARK    9  A    between atoms: C_30  and  C_31
REMARK                            x       y       z     vdW  Elec       q    Type
REMARK                         _______ _______ _______ _____ _____    ______ ____
ROOT
ATOM      1  C   UNL     1       0.322  -0.268   1.066  0.00  0.00    -0.023 A 
ATOM      2  C   UNL     1       1.336   0.609   1.100  0.00  0.00    -0.007 A 
ATOM      3  S   UNL     1       1.653   0.808   2.843  0.00  0.00    -0.073 S 
ATOM      4  C   UNL     1       0.414  -0.293   3.476  0.00  0.00    +0.117 A 
ATOM      5  C   UNL     1      -0.216  -0.780   2.315  0.00  0.00    +0.076 A 
ATOM      6  C   UNL     1      -1.284  -1.707   2.529  0.00  0.00    +0.264 A 
ATOM      7  O   UNL     1      -1.885  -2.186   1.583  0.00  0.00    -0.267 OA
ATOM      8  N   UNL     1      -1.617  -2.043   3.789  0.00  0.00    -0.276 N 
ATOM      9  C   UNL     1      -0.956  -1.518   4.860  0.00  0.00    +0.202 A 
ATOM     10  N   UNL     1       0.038  -0.671   4.692  0.00  0.00    -0.208 NA
ATOM     11  N   UNL     1      -1.325  -1.886   6.130  0.00  0.00    -0.304 N 
ATOM     12  C   UNL     1      -2.734  -1.844   6.550  0.00  0.00    +0.089 C 
ATOM     13  C   UNL     1      -2.823  -1.079   7.875  0.00  0.00    -0.059 C 
ATOM     14  N   UNL     1      -1.916  -1.691   8.854  0.00  0.00    +0.387 N 
ATOM     15  C   UNL     1      -0.525  -1.546   8.407  0.00  0.00    -0.059 C 
ATOM     16  C   UNL     1      -0.323  -2.339   7.107  0.00  0.00    +0.089 C 
ATOM     17  C   UNL     1       2.039   1.268  -0.058  0.00  0.00    +0.052 C 
ATOM     18  H   UNL     1      -2.138  -2.671   8.949  0.00  0.00    -0.081 HD
ENDROOT
BRANCH   1  20
ATOM     19  C   UNL     1      -1.393   0.230  -0.654  0.00  0.00    +0.009 C 
ATOM     20  C   UNL     1      -0.258  -0.713  -0.252  0.00  0.00    +0.033 C 
ENDBRANCH   1  20
BRANCH  14  21
ATOM     21  C   UNL     1      -2.083  -1.027  10.154  0.00  0.00    +0.019 C 
BRANCH  21  22
ATOM     22  C   UNL     1      -1.244  -1.732  11.189  0.00  0.00    +0.201 C 
ATOM     23  O   UNL     1      -0.575  -2.693  10.875  0.00  0.00    -0.278 OA
ATOM     24  N   UNL     1      -1.239  -1.295  12.464  0.00  0.00    -0.287 N 
ATOM     25  H   UNL     1      -1.826  -0.571  12.731  0.00  0.00    +0.155 HD
BRANCH  24  26
ATOM     26  C   UNL     1      -0.387  -1.887  13.403  0.00  0.00    +0.036 A 
ATOM     27  C   UNL     1      -0.099  -3.244  13.324  0.00  0.00    +0.023 A 
ATOM     28  C   UNL     1       0.742  -3.825  14.253  0.00  0.00    +0.002 A 
ATOM     29  C   UNL     1       1.298  -3.057  15.260  0.00  0.00    +0.000 A 
ATOM     30  C   UNL     1       1.013  -1.707  15.342  0.00  0.00    +0.005 A 
ATOM     31  C   UNL     1       0.177  -1.118  14.412  0.00  0.00    -0.029 A 
ATOM     32  C   UNL     1      -0.127   0.355  14.498  0.00  0.00    +0.045 C 
ENDBRANCH  24  26
ENDBRANCH  21  22
ENDBRANCH  14  21
BRANCH   8  33
ATOM     33  C   UNL     1      -2.710  -2.992   4.014  0.00  0.00    +0.163 C 
BRANCH  33  34
ATOM     34  C   UNL     1      -2.156  -4.392   4.073  0.00  0.00    -0.028 A 
ATOM     35  C   UNL     1      -1.958  -5.107   2.906  0.00  0.00    +0.005 A 
ATOM     36  C   UNL     1      -1.450  -6.391   2.960  0.00  0.00    +0.000 A 
ATOM     37  C   UNL     1      -1.139  -6.961   4.180  0.00  0.00    +0.000 A 
ATOM     38  C   UNL     1      -1.336  -6.246   5.347  0.00  0.00    +0.000 A 
ATOM     39  C   UNL     1      -1.840  -4.960   5.293  0.00  0.00    +0.005 A 
ENDBRANCH  33  34
ENDBRANCH   8  33
TORSDOF 6
