REMARK  Name = ZINC06334351
REMARK  4 active torsions:
REMARK  status: ('A' for Active; 'I' for Inactive)
REMARK    1  A    between atoms: C_3  and  C_6
REMARK    2  A    between atoms: C_6  and  C_8
REMARK    3  A    between atoms: C_6  and  O_16
REMARK    4  A    between atoms: C_13  and  O_15
REMARK                            x       y       z     vdW  Elec       q    Type
REMARK                         _______ _______ _______ _____ _____    ______ ____
ROOT
ATOM      1  C   UNL     1       1.581   4.361   0.010  0.00  0.00    +0.186 C 
ENDROOT
BRANCH   1   4
ATOM      2  C   UNL     1      -1.114   1.848   0.017  0.00  0.00    +0.041 A 
ATOM      3  C   UNL     1      -0.673   3.191   0.025  0.00  0.00    +0.047 A 
ATOM      4  C   UNL     1       0.671   3.160   0.012  0.00  0.00    +0.133 A 
ATOM      5  O   UNL     1       1.066   1.876   0.002  0.00  0.00    -0.465 OA
ATOM      6  C   UNL     1      -0.013   1.076   0.008  0.00  0.00    +0.195 A 
ENDBRANCH   1   4
BRANCH   1   7
ATOM      7  C   UNL     1       1.975   4.700  -1.429  0.00  0.00    +0.054 C 
ATOM      8  C   UNL     1       2.774   3.533  -2.046  0.00  0.00    +0.009 C 
ATOM      9  C   UNL     1       3.844   4.228  -2.924  0.00  0.00    +0.003 C 
ATOM     10  C   UNL     1       4.236   5.462  -2.073  0.00  0.00    +0.032 C 
ATOM     11  C   UNL     1       2.905   5.926  -1.446  0.00  0.00    +0.121 C 
BRANCH  11  12
ATOM     12  O   UNL     1       3.127   6.391  -0.113  0.00  0.00    -0.391 OA
ATOM     13  H   UNL     1       3.706   7.163  -0.057  0.00  0.00    +0.210 HD
ENDBRANCH  11  12
ENDBRANCH   1   7
BRANCH   1  14
ATOM     14  O   UNL     1       2.755   4.071   0.770  0.00  0.00    -0.384 OA
ATOM     15  H   UNL     1       3.268   3.324   0.432  0.00  0.00    +0.210 HD
ENDBRANCH   1  14
TORSDOF 4
