REMARK  Name = ZINC37261829
REMARK  9 active torsions:
REMARK  status: ('A' for Active; 'I' for Inactive)
REMARK    1  A    between atoms: C_1  and  C_2
REMARK    2  A    between atoms: C_2  and  C_4
REMARK    3  A    between atoms: C_2  and  N_13
REMARK    4  A    between atoms: C_7  and  O_11
REMARK    5  A    between atoms: O_11  and  C_12
REMARK    6  A    between atoms: N_13  and  C_14
REMARK    7  A    between atoms: C_14  and  C_15
REMARK    8  A    between atoms: C_15  and  S_16
REMARK    9  A    between atoms: S_16  and  N_19
REMARK                            x       y       z     vdW  Elec       q    Type
REMARK                         _______ _______ _______ _____ _____    ______ ____
ROOT
ATOM      1  C   UNL     1      -0.019   1.526   0.010  0.00  0.00    -0.009 C 
ATOM      2  C   UNL     1       0.002  -0.004   0.002  0.00  0.00    -0.044 C 
ENDROOT
BRANCH   2   3
ATOM      3  C   UNL     1      -1.412  -0.526   0.013  0.00  0.00    -0.060 A 
ATOM      4  C   UNL     1      -2.122  -0.570   1.198  0.00  0.00    +0.005 A 
ATOM      5  C   UNL     1      -3.418  -1.048   1.211  0.00  0.00    +0.047 A 
ATOM      6  C   UNL     1      -4.008  -1.484   0.034  0.00  0.00    +0.134 A 
ATOM      7  C   UNL     1      -3.293  -1.438  -1.155  0.00  0.00    +0.060 A 
ATOM      8  C   UNL     1      -1.998  -0.953  -1.164  0.00  0.00    +0.021 A 
ATOM      9 BR   UNL     1      -4.092  -2.030  -2.764  0.00  0.00    -0.047 Br
BRANCH   6  10
ATOM     10  O   UNL     1      -5.282  -1.955   0.044  0.00  0.00    -0.494 OA
ATOM     11  C   UNL     1      -5.957  -1.974   1.304  0.00  0.00    +0.277 C 
ENDBRANCH   6  10
ENDBRANCH   2   3
BRANCH   2  12
ATOM     12  N   UNL     1       0.713  -0.491   1.192  0.00  0.00    +0.384 N 
ATOM     13  H   UNL     1       0.290  -0.099   2.020  0.00  0.00    -0.085 HD
ATOM     14  H   UNL     1       0.655  -1.497   1.230  0.00  0.00    -0.085 HD
BRANCH  12  15
ATOM     15  C   UNL     1       2.122  -0.083   1.122  0.00  0.00    -0.057 C 
BRANCH  15  16
ATOM     16  C   UNL     1       2.862  -0.589   2.361  0.00  0.00    +0.166 C 
BRANCH  16  17
ATOM     17  S   UNL     1       4.602  -0.085   2.275  0.00  0.00    +0.025 S 
ATOM     18  O   UNL     1       5.258  -0.770   1.217  0.00  0.00    -0.158 OA
ATOM     19  O   UNL     1       4.710   1.326   2.401  0.00  0.00    -0.158 OA
BRANCH  17  20
ATOM     20  N   UNL     1       5.289  -0.687   3.657  0.00  0.00    -0.208 NA
ATOM     21  H   UNL     1       4.748  -1.185   4.290  0.00  0.00    +0.144 HD
ATOM     22  H   UNL     1       6.231  -0.540   3.834  0.00  0.00    +0.144 HD
ENDBRANCH  17  20
ENDBRANCH  16  17
ENDBRANCH  15  16
ENDBRANCH  12  15
ENDBRANCH   2  12
TORSDOF 7
