REMARK  Name = ZINC05811537
REMARK  12 active torsions:
REMARK  status: ('A' for Active; 'I' for Inactive)
REMARK    1  A    between atoms: C_1  and  O_2
REMARK    2  A    between atoms: O_2  and  C_3
REMARK    3  A    between atoms: C_5  and  C_10
REMARK    4  A    between atoms: C_8  and  O_9
REMARK    5  A    between atoms: C_11  and  C_12
REMARK    6  A    between atoms: C_14  and  C_19
REMARK    7  A    between atoms: C_16  and  O_18
REMARK    8  A    between atoms: C_21  and  O_34
REMARK    9  A    between atoms: C_23  and  O_33
REMARK   10  A    between atoms: C_25  and  O_32
REMARK   11  A    between atoms: C_27  and  C_30
REMARK   12  A    between atoms: C_30  and  O_31
REMARK                            x       y       z     vdW  Elec       q    Type
REMARK                         _______ _______ _______ _____ _____    ______ ____
ROOT
ATOM      1  C   UNL     1       3.898  -4.783   0.278  0.00  0.00    -0.021 A 
ATOM      2  C   UNL     1       3.885  -6.178   0.198  0.00  0.00    +0.014 A 
ATOM      3  C   UNL     1       5.073  -6.875   0.121  0.00  0.00    -0.012 A 
ATOM      4  C   UNL     1       6.279  -6.197   0.123  0.00  0.00    +0.051 A 
ATOM      5  C   UNL     1       6.302  -4.811   0.201  0.00  0.00    +0.118 A 
ATOM      6  C   UNL     1       5.116  -4.100   0.274  0.00  0.00    +0.053 A 
ENDROOT
BRANCH   3   7
ATOM      7  C   UNL     1       5.057  -8.379   0.036  0.00  0.00    +0.180 C 
ATOM      8  C   UNL     1       5.259  -8.810  -1.419  0.00  0.00    +0.179 C 
ATOM      9  C   UNL     1       5.302 -10.340  -1.489  0.00  0.00    +0.177 C 
ATOM     10  C   UNL     1       6.417 -10.851  -0.571  0.00  0.00    +0.176 C 
ATOM     11  C   UNL     1       6.171 -10.341   0.851  0.00  0.00    +0.175 C 
ATOM     12  O   UNL     1       6.111  -8.913   0.840  0.00  0.00    -0.361 OA
BRANCH  10  13
ATOM     13  O   UNL     1       6.421 -12.280  -0.572  0.00  0.00    -0.386 OA
ATOM     14  H   UNL     1       6.572 -12.672  -1.443  0.00  0.00    +0.210 HD
ENDBRANCH  10  13
BRANCH   9  15
ATOM     15  O   UNL     1       4.048 -10.875  -1.061  0.00  0.00    -0.386 OA
ATOM     16  H   UNL     1       4.008 -11.841  -1.074  0.00  0.00    +0.210 HD
ENDBRANCH   9  15
BRANCH   8  17
ATOM     17  O   UNL     1       6.489  -8.275  -1.909  0.00  0.00    -0.386 OA
ATOM     18  H   UNL     1       6.682  -8.509  -2.828  0.00  0.00    +0.210 HD
ENDBRANCH   8  17
BRANCH  11  19
ATOM     19  C   UNL     1       4.847 -10.903   1.373  0.00  0.00    +0.190 C 
BRANCH  19  20
ATOM     20  O   UNL     1       4.690 -10.553   2.749  0.00  0.00    -0.392 OA
ATOM     21  H   UNL     1       3.870 -10.877   3.146  0.00  0.00    +0.210 HD
ENDBRANCH  19  20
ENDBRANCH  11  19
ENDBRANCH   3   7
BRANCH   1  23
ATOM     22  C   UNL     1       2.647  -2.694   0.436  0.00  0.00    +0.008 C 
ATOM     23  C   UNL     1       2.631  -4.035   0.360  0.00  0.00    +0.008 C 
BRANCH  22  26
ATOM     24  C   UNL     1       0.203   0.146   0.674  0.00  0.00    +0.162 A 
ATOM     25  C   UNL     1       1.394  -0.550   0.597  0.00  0.00    +0.057 A 
ATOM     26  C   UNL     1       1.380  -1.946   0.518  0.00  0.00    -0.021 A 
ATOM     27  C   UNL     1       0.161  -2.630   0.516  0.00  0.00    +0.012 A 
ATOM     28  C   UNL     1      -1.023  -1.927   0.593  0.00  0.00    +0.050 A 
ATOM     29  C   UNL     1      -1.008  -0.543   0.678  0.00  0.00    +0.158 A 
BRANCH  24  31
ATOM     30  C   UNL     1       1.490   2.144   0.749  0.00  0.00    +0.277 C 
ATOM     31  O   UNL     1       0.213   1.504   0.752  0.00  0.00    -0.491 OA
ENDBRANCH  24  31
BRANCH  29  32
ATOM     32  O   UNL     1      -2.179   0.144   0.758  0.00  0.00    -0.503 OA
ATOM     33  H   UNL     1      -2.548   0.394  -0.099  0.00  0.00    +0.292 HD
ENDBRANCH  29  32
ENDBRANCH  22  26
ENDBRANCH   1  23
BRANCH   5  34
ATOM     34  O   UNL     1       7.490  -4.151   0.202  0.00  0.00    -0.507 OA
ATOM     35  H   UNL     1       7.807  -3.910  -0.679  0.00  0.00    +0.292 HD
ENDBRANCH   5  34
TORSDOF 11
