REMARK  Name = ZINC08876787
REMARK  8 active torsions:
REMARK  status: ('A' for Active; 'I' for Inactive)
REMARK    1  A    between atoms: C_1  and  C_2
REMARK    2  A    between atoms: C_9  and  C_18
REMARK    3  A    between atoms: C_12  and  C_14
REMARK    4  A    between atoms: C_14  and  C_16
REMARK    5  A    between atoms: C_14  and  O_17
REMARK    6  A    between atoms: N_20  and  C_21
REMARK    7  A    between atoms: C_26  and  O_27
REMARK    8  A    between atoms: O_27  and  C_28
REMARK                            x       y       z     vdW  Elec       q    Type
REMARK                         _______ _______ _______ _____ _____    ______ ____
ROOT
ATOM      1  C   UNL     1       3.480  -1.145  -0.109  0.00  0.00    +0.044 C 
ATOM      2  C   UNL     1       2.205  -0.341  -0.094  0.00  0.00    -0.050 A 
ATOM      3  C   UNL     1       2.257   1.039  -0.031  0.00  0.00    +0.005 A 
ATOM      4  C   UNL     1       1.093   1.780  -0.019  0.00  0.00    +0.024 A 
ATOM      5  C   UNL     1      -0.144   1.142  -0.069  0.00  0.00    +0.036 A 
ATOM      6  C   UNL     1      -0.183  -0.247  -0.131  0.00  0.00    -0.027 A 
ATOM      7  C   UNL     1       0.980  -0.983  -0.143  0.00  0.00    +0.008 A 
ATOM      8  C   UNL     1      -1.641  -0.619  -0.170  0.00  0.00    +0.049 C 
ATOM      9  C   UNL     1      -1.977  -1.396  -1.448  0.00  0.00    +0.076 C 
ATOM     10  C   UNL     1      -2.535  -2.752  -0.953  0.00  0.00    -0.001 C 
ATOM     11  C   UNL     1      -1.956  -2.863   0.480  0.00  0.00    -0.040 C 
ATOM     12  C   UNL     1      -2.375   0.696  -0.129  0.00  0.00    +0.211 C 
ATOM     13  O   UNL     1      -3.578   0.854  -0.145  0.00  0.00    -0.277 OA
ATOM     14  N   UNL     1      -1.440   1.662  -0.076  0.00  0.00    -0.286 N 
ATOM     15  H   UNL     1      -1.642   2.610  -0.040  0.00  0.00    +0.155 HD
ATOM     16  N   UNL     1      -1.998  -1.472   0.955  0.00  0.00    +0.395 N 
ATOM     17  H   UNL     1      -2.943  -1.241   1.284  0.00  0.00    -0.083 HD
ATOM     18  H   UNL     1      -1.328  -1.341   1.722  0.00  0.00    -0.083 HD
ENDROOT
BRANCH   9  19
ATOM     19  C   UNL     1      -0.735  -1.610  -2.274  0.00  0.00    +0.220 C 
ATOM     20  O   UNL     1      -0.122  -2.654  -2.188  0.00  0.00    -0.275 OA
ATOM     21  N   UNL     1      -0.305  -0.643  -3.108  0.00  0.00    -0.282 N 
ATOM     22  H   UNL     1      -0.746   0.221  -3.117  0.00  0.00    +0.155 HD
BRANCH  21  23
ATOM     23  C   UNL     1       0.779  -0.885  -3.962  0.00  0.00    +0.077 A 
ATOM     24  C   UNL     1       1.150  -2.187  -4.262  0.00  0.00    +0.047 A 
ATOM     25  C   UNL     1       2.217  -2.424  -5.110  0.00  0.00    +0.043 A 
ATOM     26  C   UNL     1       2.923  -1.363  -5.650  0.00  0.00    +0.024 A 
ATOM     27  C   UNL     1       2.562  -0.063  -5.350  0.00  0.00    +0.049 A 
ATOM     28  C   UNL     1       1.491   0.182  -4.507  0.00  0.00    +0.141 A 
ATOM     29 CL   UNL     1       2.676  -4.054  -5.492  0.00  0.00    -0.083 Cl
BRANCH  28  30
ATOM     30  O   UNL     1       1.134   1.460  -4.212  0.00  0.00    -0.493 OA
ATOM     31  C   UNL     1       1.908   2.504  -4.806  0.00  0.00    +0.277 C 
ENDBRANCH  28  30
ENDBRANCH  21  23
ENDBRANCH   9  19
BRANCH  11  32
ATOM     32  C   UNL     1      -2.825  -3.776   1.348  0.00  0.00    +0.098 C 
ATOM     33  C   UNL     1      -2.292  -3.775   2.782  0.00  0.00    +0.036 C 
BRANCH  32  34
ATOM     34  O   UNL     1      -2.787  -5.106   0.827  0.00  0.00    -0.394 OA
ATOM     35  H   UNL     1      -1.902  -5.494   0.802  0.00  0.00    +0.210 HD
ENDBRANCH  32  34
ENDBRANCH  11  32
TORSDOF 5
