REMARK  Name = ZINC63151492
REMARK  7 active torsions:
REMARK  status: ('A' for Active; 'I' for Inactive)
REMARK    1  A    between atoms: C_3  and  S_12
REMARK    2  A    between atoms: C_6  and  C_7
REMARK    3  A    between atoms: C_8  and  C_9
REMARK    4  A    between atoms: C_9  and  N_10
REMARK    5  A    between atoms: S_12  and  N_15
REMARK    6  A    between atoms: N_15  and  C_16
REMARK    7  A    between atoms: C_16  and  C_17
REMARK                            x       y       z     vdW  Elec       q    Type
REMARK                         _______ _______ _______ _____ _____    ______ ____
ROOT
ATOM      1  C   UNL     1      -0.017   1.391   0.010  0.00  0.00    +0.019 A 
ATOM      2  C   UNL     1       1.170   2.095   0.002  0.00  0.00    +0.031 A 
ATOM      3  C   UNL     1       2.378   1.420  -0.013  0.00  0.00    +0.124 A 
ATOM      4  C   UNL     1       2.404   0.036  -0.022  0.00  0.00    +0.068 A 
ATOM      5  C   UNL     1       1.223  -0.679  -0.014  0.00  0.00    +0.038 A 
ATOM      6  C   UNL     1       0.002  -0.004   0.002  0.00  0.00    +0.026 A 
ATOM      7 CL   UNL     1       3.924  -0.802  -0.042  0.00  0.00    -0.081 Cl
ENDROOT
BRANCH   3   8
ATOM      8  S   UNL     1       3.889   2.327  -0.024  0.00  0.00    +0.060 S 
ATOM      9  O   UNL     1       4.687   1.773  -1.060  0.00  0.00    -0.153 OA
ATOM     10  O   UNL     1       3.537   3.703   0.014  0.00  0.00    -0.153 OA
BRANCH   8  11
ATOM     11  N   UNL     1       4.667   1.998   1.401  0.00  0.00    -0.186 NA
ATOM     12  H   UNL     1       4.810   2.704   2.050  0.00  0.00    +0.148 HD
BRANCH  11  13
ATOM     13  C   UNL     1       5.138   0.639   1.681  0.00  0.00    +0.141 C 
BRANCH  13  14
ATOM     14  C   UNL     1       6.112   0.673   2.830  0.00  0.00    -0.025 A 
ATOM     15  C   UNL     1       7.464   0.848   2.600  0.00  0.00    +0.012 A 
ATOM     16  C   UNL     1       8.312   0.873   3.657  0.00  0.00    +0.045 A 
ATOM     17  S   UNL     1       7.197   0.645   5.032  0.00  0.00    -0.105 S 
ATOM     18  C   UNL     1       5.675   0.537   4.106  0.00  0.00    +0.050 A 
ENDBRANCH  13  14
ENDBRANCH  11  13
ENDBRANCH   8  11
ENDBRANCH   3   8
BRANCH   6  19
ATOM     19  C   UNL     1      -1.226  -0.740   0.010  0.00  0.00    -0.068 C 
ATOM     20  C   UNL     1      -2.234  -1.343   0.017  0.00  0.00    -0.117 C 
BRANCH  20  21
ATOM     21  C   UNL     1      -3.497  -2.099   0.025  0.00  0.00    +0.005 C 
BRANCH  21  22
ATOM     22  N   UNL     1      -3.205  -3.539   0.015  0.00  0.00    +0.385 N 
ATOM     23  H   UNL     1      -2.680  -3.770  -0.815  0.00  0.00    -0.089 HD
ATOM     24  H   UNL     1      -2.664  -3.779   0.832  0.00  0.00    -0.089 HD
ATOM     25  H   UNL     1      -4.071  -4.057   0.021  0.00  0.00    -0.089 HD
ENDBRANCH  21  22
ENDBRANCH  20  21
ENDBRANCH   6  19
TORSDOF 7
