REMARK  Name = ZINC13424725
REMARK  12 active torsions:
REMARK  status: ('A' for Active; 'I' for Inactive)
REMARK    1  A    between atoms: C_3  and  O_38
REMARK    2  A    between atoms: C_4  and  O_37
REMARK    3  A    between atoms: C_6  and  C_7
REMARK    4  A    between atoms: C_8  and  O_20
REMARK    5  A    between atoms: C_12  and  O_19
REMARK    6  A    between atoms: C_14  and  O_18
REMARK    7  A    between atoms: O_20  and  C_21
REMARK    8  A    between atoms: C_23  and  O_36
REMARK    9  A    between atoms: C_25  and  O_35
REMARK   10  A    between atoms: C_27  and  O_34
REMARK   11  A    between atoms: C_29  and  C_32
REMARK   12  A    between atoms: C_32  and  O_33
REMARK                            x       y       z     vdW  Elec       q    Type
REMARK                         _______ _______ _______ _____ _____    ______ ____
ROOT
ATOM      1  C   UNL     1      -0.169   5.307   0.440  0.00  0.00    +0.181 A 
ATOM      2  C   UNL     1      -1.224   6.120   0.155  0.00  0.00    +0.214 A 
ATOM      3  C   UNL     1      -1.027   7.524   0.091  0.00  0.00    +0.238 A 
ATOM      4  O   UNL     1      -1.948   8.284  -0.161  0.00  0.00    -0.283 OA
ATOM      5  C   UNL     1       0.333   8.028   0.340  0.00  0.00    +0.109 A 
ATOM      6  C   UNL     1       0.619   9.400   0.297  0.00  0.00    +0.135 A 
ATOM      7  C   UNL     1       1.909   9.834   0.537  0.00  0.00    +0.091 A 
ATOM      8  C   UNL     1       2.915   8.915   0.819  0.00  0.00    +0.124 A 
ATOM      9  C   UNL     1       2.639   7.558   0.863  0.00  0.00    +0.092 A 
ATOM     10  C   UNL     1       1.351   7.102   0.625  0.00  0.00    +0.147 A 
ATOM     11  O   UNL     1       1.067   5.784   0.670  0.00  0.00    -0.451 OA
ENDROOT
BRANCH   1  17
ATOM     12  C   UNL     1      -1.433   3.335   1.278  0.00  0.00    +0.015 A 
ATOM     13  C   UNL     1      -1.643   1.973   1.331  0.00  0.00    +0.050 A 
ATOM     14  C   UNL     1      -0.815   1.112   0.625  0.00  0.00    +0.158 A 
ATOM     15  C   UNL     1       0.227   1.620  -0.149  0.00  0.00    +0.159 A 
ATOM     16  C   UNL     1       0.440   2.983  -0.212  0.00  0.00    +0.060 A 
ATOM     17  C   UNL     1      -0.391   3.851   0.503  0.00  0.00    +0.025 A 
BRANCH  15  18
ATOM     18  O   UNL     1       1.033   0.773  -0.843  0.00  0.00    -0.503 OA
ATOM     19  H   UNL     1       0.723   0.581  -1.739  0.00  0.00    +0.292 HD
ENDBRANCH  15  18
BRANCH  14  20
ATOM     20  O   UNL     1      -1.024  -0.229   0.685  0.00  0.00    -0.503 OA
ATOM     21  H   UNL     1      -0.542  -0.671   1.397  0.00  0.00    +0.292 HD
ENDBRANCH  14  20
ENDBRANCH   1  17
BRANCH   8  22
ATOM     22  O   UNL     1       4.178   9.353   1.054  0.00  0.00    -0.507 OA
ATOM     23  H   UNL     1       4.727   9.415   0.260  0.00  0.00    +0.292 HD
ENDBRANCH   8  22
BRANCH   6  24
ATOM     24  O   UNL     1      -0.363  10.294   0.022  0.00  0.00    -0.506 OA
ATOM     25  H   UNL     1      -0.831  10.619   0.804  0.00  0.00    +0.292 HD
ENDBRANCH   6  24
BRANCH   2  26
ATOM     26  O   UNL     1      -2.458   5.591  -0.065  0.00  0.00    -0.453 OA
BRANCH  26  27
ATOM     27  C   UNL     1      -2.748   5.151  -1.394  0.00  0.00    +0.340 C 
ATOM     28  C   UNL     1      -4.020   4.299  -1.384  0.00  0.00    +0.214 C 
ATOM     29  C   UNL     1      -5.197   5.159  -0.912  0.00  0.00    +0.180 C 
ATOM     30  C   UNL     1      -5.323   6.380  -1.827  0.00  0.00    +0.177 C 
ATOM     31  C   UNL     1      -4.000   7.152  -1.820  0.00  0.00    +0.179 C 
ATOM     32  O   UNL     1      -2.943   6.286  -2.240  0.00  0.00    -0.331 OA
BRANCH  30  33
ATOM     33  O   UNL     1      -6.372   7.226  -1.353  0.00  0.00    -0.386 OA
ATOM     34  H   UNL     1      -7.239   6.800  -1.326  0.00  0.00    +0.210 HD
ENDBRANCH  30  33
BRANCH  29  35
ATOM     35  O   UNL     1      -6.402   4.392  -0.969  0.00  0.00    -0.386 OA
ATOM     36  H   UNL     1      -6.389   3.598  -0.417  0.00  0.00    +0.210 HD
ENDBRANCH  29  35
BRANCH  28  37
ATOM     37  O   UNL     1      -3.848   3.194  -0.495  0.00  0.00    -0.383 OA
ATOM     38  H   UNL     1      -3.115   2.609  -0.732  0.00  0.00    +0.210 HD
ENDBRANCH  28  37
BRANCH  31  39
ATOM     39  C   UNL     1      -4.098   8.340  -2.779  0.00  0.00    +0.190 C 
BRANCH  39  40
ATOM     40  O   UNL     1      -2.912   9.132  -2.678  0.00  0.00    -0.392 OA
ATOM     41  H   UNL     1      -2.905   9.905  -3.259  0.00  0.00    +0.210 HD
ENDBRANCH  39  40
ENDBRANCH  31  39
ENDBRANCH  26  27
ENDBRANCH   2  26
TORSDOF 12
