REMARK  Name = ZINC12504237
REMARK  8 active torsions:
REMARK  status: ('A' for Active; 'I' for Inactive)
REMARK    1  A    between atoms: C_6  and  S_11
REMARK    2  A    between atoms: S_11  and  N_14
REMARK    3  A    between atoms: N_14  and  C_15
REMARK    4  A    between atoms: C_15  and  C_17
REMARK    5  A    between atoms: C_15  and  C_26
REMARK    6  A    between atoms: C_17  and  C_18
REMARK    7  A    between atoms: C_22  and  C_24
REMARK    8  A    between atoms: C_33  and  C_35
REMARK                            x       y       z     vdW  Elec       q    Type
REMARK                         _______ _______ _______ _____ _____    ______ ____
ROOT
ATOM      1  C   UNL     1      -2.659   3.753   1.458  0.00  0.00    +0.166 C 
ENDROOT
BRANCH   1   2
ATOM      2  C   UNL     1      -3.534   4.963   1.254  0.00  0.00    +0.235 C 
ATOM      3  O   UNL     1      -4.542   4.877   0.586  0.00  0.00    -0.274 OA
ATOM      4  N   UNL     1      -3.195   6.141   1.815  0.00  0.00    -0.287 N 
ATOM      5  C   UNL     1      -1.921   6.291   2.530  0.00  0.00    +0.109 C 
ATOM      6  C   UNL     1      -2.204   6.839   3.932  0.00  0.00    +0.019 C 
ATOM      7  C   UNL     1      -3.015   8.132   3.816  0.00  0.00    +0.004 C 
ATOM      8  C   UNL     1      -4.353   7.837   3.134  0.00  0.00    +0.034 C 
ATOM      9  C   UNL     1      -4.091   7.301   1.718  0.00  0.00    +0.189 C 
BRANCH   9  10
ATOM     10  C   UNL     1      -5.394   6.882   1.086  0.00  0.00    +0.376 C 
ATOM     11  O   UNL     1      -6.084   6.047   1.622  0.00  0.00    -0.244 OA
ATOM     12  O   UNL     1      -5.787   7.435  -0.072  0.00  0.00    -0.244 OA
ENDBRANCH   9  10
ENDBRANCH   1   2
BRANCH   1  13
ATOM     13  N   UNL     1      -2.972   2.747   0.439  0.00  0.00    -0.178 NA
ATOM     14  H   UNL     1      -3.704   2.126   0.579  0.00  0.00    +0.149 HD
BRANCH  13  15
ATOM     15  S   UNL     1      -2.076   2.670  -0.951  0.00  0.00    +0.059 S 
ATOM     16  O   UNL     1      -2.000   3.995  -1.459  0.00  0.00    -0.153 OA
ATOM     17  O   UNL     1      -2.600   1.592  -1.713  0.00  0.00    -0.153 OA
BRANCH  15  23
ATOM     18  C   UNL     1       3.800  -0.150   0.641  0.00  0.00    +0.001 A 
ATOM     19  C   UNL     1       2.868  -1.143   0.344  0.00  0.00    +0.001 A 
ATOM     20  C   UNL     1       1.593  -0.823  -0.009  0.00  0.00    +0.008 A 
ATOM     21  C   UNL     1       1.207   0.526  -0.076  0.00  0.00    -0.016 A 
ATOM     22  C   UNL     1      -0.101   0.895  -0.437  0.00  0.00    +0.037 A 
ATOM     23  C   UNL     1      -0.438   2.212  -0.491  0.00  0.00    +0.106 A 
ATOM     24  C   UNL     1       0.494   3.205  -0.193  0.00  0.00    +0.029 A 
ATOM     25  C   UNL     1       1.769   2.885   0.161  0.00  0.00    +0.010 A 
ATOM     26  C   UNL     1       2.155   1.536   0.227  0.00  0.00    -0.018 A 
ATOM     27  C   UNL     1       3.462   1.167   0.587  0.00  0.00    +0.008 A 
ENDBRANCH  15  23
ENDBRANCH  13  15
ENDBRANCH   1  13
BRANCH   1  28
ATOM     28  C   UNL     1      -2.914   3.167   2.848  0.00  0.00    +0.065 C 
BRANCH  28  29
ATOM     29  C   UNL     1      -1.997   1.993   3.074  0.00  0.00    -0.045 A 
ATOM     30  C   UNL     1      -0.750   2.190   3.640  0.00  0.00    +0.004 A 
ATOM     31  C   UNL     1       0.098   1.117   3.851  0.00  0.00    +0.001 A 
ATOM     32  C   UNL     1      -0.297  -0.157   3.499  0.00  0.00    +0.011 A 
ATOM     33  C   UNL     1      -1.554  -0.362   2.929  0.00  0.00    +0.012 A 
ATOM     34  C   UNL     1      -2.405   0.723   2.723  0.00  0.00    +0.015 A 
BRANCH  33  35
ATOM     35  C   UNL     1      -1.983  -1.728   2.549  0.00  0.00    +0.094 C 
ATOM     36  N   UNL     1      -1.141  -2.798   2.758  0.00  0.00    -0.345 N 
ATOM     37  H   UNL     1      -3.529  -2.773   1.734  0.00  0.00    +0.157 HD
ATOM     38  H   UNL     1      -0.267  -2.658   3.154  0.00  0.00    +0.144 HD
ATOM     39  H   UNL     1      -1.423  -3.692   2.509  0.00  0.00    +0.144 HD
ATOM     40  N   UNL     1      -3.188  -1.853   2.013  0.00  0.00    -0.387 N 
ATOM     41  H   UNL     1      -3.778  -1.024   1.877  0.00  0.00    +0.157 HD
ENDBRANCH  33  35
ENDBRANCH  28  29
ENDBRANCH   1  28
TORSDOF 8
