REMARK  Name = ZINC25679070
REMARK  10 active torsions:
REMARK  status: ('A' for Active; 'I' for Inactive)
REMARK    1  A    between atoms: C_1  and  C_2
REMARK    2  A    between atoms: C_4  and  C_17
REMARK    3  A    between atoms: C_5  and  C_16
REMARK    4  A    between atoms: N_6  and  C_7
REMARK    5  A    between atoms: C_17  and  C_19
REMARK    6  A    between atoms: C_19  and  N_20
REMARK    7  A    between atoms: N_20  and  C_21
REMARK    8  A    between atoms: N_20  and  C_22
REMARK    9  A    between atoms: C_22  and  C_23
REMARK   10  A    between atoms: N_25  and  C_26
REMARK                            x       y       z     vdW  Elec       q    Type
REMARK                         _______ _______ _______ _____ _____    ______ ____
ROOT
ATOM      1  C   UNL     1       4.771   0.736  -0.477  0.00  0.00    +0.149 C 
ATOM      2  O   UNL     1       4.519  -0.451  -0.460  0.00  0.00    -0.294 OA
ENDROOT
BRANCH   1   6
ATOM      3  C   UNL     1       8.845   3.707  -1.212  0.00  0.00    +0.064 C 
ATOM      4  C   UNL     1       7.929   2.520  -1.062  0.00  0.00    +0.022 A 
ATOM      5  C   UNL     1       6.614   2.580  -0.795  0.00  0.00    +0.034 A 
ATOM      6  C   UNL     1       6.138   1.191  -0.740  0.00  0.00    +0.037 A 
ATOM      7  C   UNL     1       7.247   0.400  -0.980  0.00  0.00    +0.031 A 
ATOM      8  N   UNL     1       8.305   1.210  -1.176  0.00  0.00    -0.317 N 
ATOM      9  C   UNL     1       7.268  -1.106  -1.019  0.00  0.00    +0.064 C 
BRANCH   8  10
ATOM     10  C   UNL     1       9.609   0.773  -1.452  0.00  0.00    +0.050 A 
ATOM     11  C   UNL     1      10.311   0.042  -0.503  0.00  0.00    +0.030 A 
ATOM     12  C   UNL     1      11.595  -0.390  -0.773  0.00  0.00    +0.051 A 
ATOM     13  C   UNL     1      12.185  -0.097  -1.992  0.00  0.00    +0.166 A 
ATOM     14  C   UNL     1      11.483   0.636  -2.946  0.00  0.00    +0.168 A 
ATOM     15  C   UNL     1      10.194   1.065  -2.676  0.00  0.00    +0.075 A 
ATOM     16  O   UNL     1      12.274   0.790  -4.048  0.00  0.00    -0.453 OA
ATOM     17  C   UNL     1      13.612   0.497  -3.604  0.00  0.00    +0.466 C 
ATOM     18  O   UNL     1      13.417  -0.402  -2.497  0.00  0.00    -0.453 OA
ENDBRANCH   8  10
ENDBRANCH   1   6
BRANCH   1  19
ATOM     19  C   UNL     1       3.678   1.742  -0.228  0.00  0.00    +0.002 C 
BRANCH  19  20
ATOM     20  N   UNL     1       2.409   1.039   0.007  0.00  0.00    +0.388 N 
ATOM     21  C   UNL     1       2.461   0.264   1.254  0.00  0.00    -0.095 C 
ATOM     22  H   UNL     1       2.255   0.334  -0.823  0.00  0.00    -0.081 HD
BRANCH  20  23
ATOM     23  C   UNL     1       1.280   1.979   0.018  0.00  0.00    +0.019 C 
BRANCH  23  24
ATOM     24  C   UNL     1      -0.015   1.208   0.015  0.00  0.00    +0.201 C 
ATOM     25  O   UNL     1       0.001  -0.004   0.004  0.00  0.00    -0.278 OA
ATOM     26  N   UNL     1      -1.191   1.867   0.018  0.00  0.00    -0.286 N 
ATOM     27  H   UNL     1      -1.207   2.963   0.102  0.00  0.00    +0.155 HD
BRANCH  26  28
ATOM     28  C   UNL     1      -2.391   1.155  -0.086  0.00  0.00    +0.047 A 
ATOM     29  C   UNL     1      -2.510  -0.099   0.499  0.00  0.00    +0.024 A 
ATOM     30  C   UNL     1      -3.698  -0.796   0.399  0.00  0.00    +0.002 A 
ATOM     31  C   UNL     1      -4.765  -0.252  -0.291  0.00  0.00    +0.001 A 
ATOM     32  C   UNL     1      -4.649   0.994  -0.880  0.00  0.00    +0.017 A 
ATOM     33  C   UNL     1      -3.465   1.699  -0.779  0.00  0.00    +0.039 A 
ATOM     34 BR   UNL     1      -3.307   3.402  -1.585  0.00  0.00    -0.048 Br
ENDBRANCH  26  28
ENDBRANCH  23  24
ENDBRANCH  20  23
ENDBRANCH  19  20
ENDBRANCH   1  19
TORSDOF 7
