REMARK  Name = ZINC51813779
REMARK  6 active torsions:
REMARK  status: ('A' for Active; 'I' for Inactive)
REMARK    1  A    between atoms: C_1  and  C_2
REMARK    2  A    between atoms: C_7  and  C_8
REMARK    3  A    between atoms: N_9  and  N_10
REMARK    4  A    between atoms: N_11  and  C_12
REMARK    5  A    between atoms: C_12  and  C_13
REMARK    6  A    between atoms: C_12  and  C_14
REMARK                            x       y       z     vdW  Elec       q    Type
REMARK                         _______ _______ _______ _____ _____    ______ ____
ROOT
ATOM      1  C   UNL     1      -0.176  -0.174   2.590  0.00  0.00    +0.135 C 
ATOM      2  N   UNL     1      -0.263   1.122   2.674  0.00  0.00    -0.299 N 
ATOM      3  N   UNL     1       0.213  -0.922   3.703  0.00  0.00    -0.326 N 
ATOM      4  H   UNL     1       0.278  -1.887   3.640  0.00  0.00    +0.148 HD
ATOM      5  H   UNL     1      -0.148   1.561   3.531  0.00  0.00    +0.185 HD
ENDROOT
BRANCH   1  12
ATOM      6  C   UNL     1       1.446  -2.413   1.737  0.00  0.00    +0.046 C 
ATOM      7  C   UNL     1       0.288  -1.935   0.898  0.00  0.00    -0.022 A 
ATOM      8  C   UNL     1      -0.022  -2.565  -0.294  0.00  0.00    +0.007 A 
ATOM      9  C   UNL     1      -1.096  -2.092  -1.034  0.00  0.00    +0.020 A 
ATOM     10  C   UNL     1      -1.822  -1.012  -0.564  0.00  0.00    +0.111 A 
ATOM     11  N   UNL     1      -1.506  -0.428   0.574  0.00  0.00    -0.252 NA
ATOM     12  C   UNL     1      -0.489  -0.854   1.316  0.00  0.00    +0.106 A 
ENDBRANCH   1  12
BRANCH   2  13
ATOM     13  N   UNL     1      -0.523   1.883   1.527  0.00  0.00    -0.304 N 
ATOM     14  H   UNL     1      -0.734   2.826   1.608  0.00  0.00    +0.162 HD
ATOM     15  H   UNL     1      -0.491   1.466   0.651  0.00  0.00    +0.162 HD
ENDBRANCH   2  13
BRANCH   3  16
ATOM     16  C   UNL     1       0.524  -0.247   4.966  0.00  0.00    +0.066 C 
ATOM     17  C   UNL     1       0.310  -1.218   6.129  0.00  0.00    +0.027 C 
ATOM     18  C   UNL     1       1.982   0.217   4.951  0.00  0.00    +0.027 C 
ENDBRANCH   3  16
TORSDOF 3
