REMARK  Name = ZINC12661409
REMARK  9 active torsions:
REMARK  status: ('A' for Active; 'I' for Inactive)
REMARK    1  A    between atoms: C_1  and  C_2
REMARK    2  A    between atoms: C_19  and  C_21
REMARK    3  A    between atoms: C_21  and  N_22
REMARK    4  A    between atoms: N_22  and  C_23
REMARK    5  A    between atoms: C_23  and  C_24
REMARK    6  A    between atoms: C_23  and  C_25
REMARK    7  A    between atoms: C_23  and  C_27
REMARK    8  A    between atoms: C_25  and  O_26
REMARK    9  A    between atoms: C_27  and  O_28
REMARK                            x       y       z     vdW  Elec       q    Type
REMARK                         _______ _______ _______ _____ _____    ______ ____
ROOT
ATOM      1  C   UNL     1      -0.019   1.526   0.010  0.00  0.00    +0.012 C 
ATOM      2  C   UNL     1       0.002  -0.004   0.002  0.00  0.00    -0.022 C 
ATOM      3  C   UNL     1      -1.429  -0.537   0.016  0.00  0.00    +0.007 C 
ATOM      4  C   UNL     1      -2.179   0.028   1.224  0.00  0.00    +0.005 C 
ATOM      5  C   UNL     1      -1.516  -0.463   2.515  0.00  0.00    +0.030 C 
ATOM      6  C   UNL     1      -0.044  -0.113   2.469  0.00  0.00    -0.073 C 
ATOM      7  C   UNL     1       0.530   0.522   3.461  0.00  0.00    +0.008 C 
ATOM      8  C   UNL     1       0.744  -0.517   1.245  0.00  0.00    +0.021 C 
ATOM      9  C   UNL     1       2.120   0.142   1.282  0.00  0.00    +0.016 C 
ATOM     10  C   UNL     1       2.945  -0.268   0.060  0.00  0.00    +0.042 C 
ATOM     11  C   UNL     1       2.168  -0.009  -1.245  0.00  0.00    +0.181 C 
ATOM     12  C   UNL     1       0.755  -0.501  -1.232  0.00  0.00    +0.052 C 
ATOM     13  O   UNL     1       2.239   1.412  -1.407  0.00  0.00    -0.461 OA
ATOM     14  C   UNL     1       3.493   1.796  -1.078  0.00  0.00    +0.309 C 
ATOM     15  O   UNL     1       4.061   2.774  -1.502  0.00  0.00    -0.251 OA
ATOM     16  C   UNL     1       4.084   0.786  -0.078  0.00  0.00    +0.087 C 
ENDROOT
BRANCH  16  17
ATOM     17  C   UNL     1       4.370   1.449   1.271  0.00  0.00    -0.067 C 
BRANCH  17  18
ATOM     18  N   UNL     1       5.524   2.349   1.140  0.00  0.00    +0.386 N 
ATOM     19  H   UNL     1       6.332   1.820   0.847  0.00  0.00    -0.085 HD
ATOM     20  H   UNL     1       5.320   3.059   0.453  0.00  0.00    -0.085 HD
BRANCH  18  21
ATOM     21  C   UNL     1       5.799   2.985   2.436  0.00  0.00    -0.024 C 
ATOM     22  C   UNL     1       4.574   3.787   2.880  0.00  0.00    -0.006 C 
BRANCH  21  23
ATOM     23  C   UNL     1       6.108   1.907   3.477  0.00  0.00    +0.145 C 
BRANCH  23  24
ATOM     24  O   UNL     1       7.252   1.158   3.062  0.00  0.00    -0.396 OA
ATOM     25  H   UNL     1       7.506   0.456   3.676  0.00  0.00    +0.209 HD
ENDBRANCH  23  24
ENDBRANCH  21  23
BRANCH  21  26
ATOM     26  C   UNL     1       7.000   3.922   2.299  0.00  0.00    +0.145 C 
BRANCH  26  27
ATOM     27  O   UNL     1       7.267   4.540   3.559  0.00  0.00    -0.396 OA
ATOM     28  H   UNL     1       8.018   5.150   3.547  0.00  0.00    +0.209 HD
ENDBRANCH  26  27
ENDBRANCH  21  26
ENDBRANCH  18  21
ENDBRANCH  17  18
ENDBRANCH  16  17
TORSDOF 7
