REMARK  Name = ZINC36378607
REMARK  11 active torsions:
REMARK  status: ('A' for Active; 'I' for Inactive)
REMARK    1  A    between atoms: C_1  and  C_2
REMARK    2  A    between atoms: C_6  and  C_35
REMARK    3  A    between atoms: C_9  and  C_10
REMARK    4  A    between atoms: C_9  and  C_11
REMARK    5  A    between atoms: C_11  and  C_12
REMARK    6  A    between atoms: C_12  and  C_13
REMARK    7  A    between atoms: C_15  and  O_24
REMARK    8  A    between atoms: C_17  and  O_22
REMARK    9  A    between atoms: O_22  and  C_23
REMARK   10  A    between atoms: C_26  and  O_34
REMARK   11  A    between atoms: C_28  and  O_33
REMARK                            x       y       z     vdW  Elec       q    Type
REMARK                         _______ _______ _______ _____ _____    ______ ____
ROOT
ATOM      1  C   UNL     1       0.044   1.477   1.302  0.00  0.00    +0.008 C 
ATOM      2  C   UNL     1       0.029  -0.001   0.905  0.00  0.00    -0.008 C 
ATOM      3  C   UNL     1       0.492  -0.145  -0.546  0.00  0.00    +0.004 C 
ATOM      4  C   UNL     1       0.467  -1.623  -0.941  0.00  0.00    +0.010 C 
ATOM      5  C   UNL     1       1.409  -2.415  -0.032  0.00  0.00    +0.005 C 
ATOM      6  C   UNL     1       0.964  -2.260   1.425  0.00  0.00    +0.007 C 
ATOM      7  C   UNL     1       0.972  -0.784   1.819  0.00  0.00    -0.026 C 
ATOM      8  C   UNL     1       0.510  -0.642   3.271  0.00  0.00    +0.012 C 
ATOM      9  C   UNL     1      -0.441  -2.838   1.595  0.00  0.00    +0.038 C 
ATOM     10  C   UNL     1      -0.419  -4.340   1.303  0.00  0.00    +0.146 C 
ATOM     11  C   UNL     1      -0.011  -4.571  -0.155  0.00  0.00    +0.177 C 
ATOM     12  C   UNL     1       1.339  -3.898  -0.410  0.00  0.00    +0.126 C 
ATOM     13  C   UNL     1       2.157  -4.367  -1.612  0.00  0.00    +0.199 C 
ATOM     14  O   UNL     1       2.520  -4.683  -0.265  0.00  0.00    -0.365 OA
ATOM     15  C   UNL     1       2.841  -1.906  -0.205  0.00  0.00    +0.014 C 
ENDROOT
BRANCH  11  16
ATOM     16  O   UNL     1       0.098  -5.974  -0.404  0.00  0.00    -0.386 OA
ATOM     17  H   UNL     1      -0.722  -6.465  -0.257  0.00  0.00    +0.210 HD
ENDBRANCH  11  16
BRANCH  10  18
ATOM     18  O   UNL     1       0.521  -4.980   2.167  0.00  0.00    -0.389 OA
ATOM     19  H   UNL     1       0.325  -4.875   3.109  0.00  0.00    +0.210 HD
ENDBRANCH  10  18
BRANCH   7  20
ATOM     20  C   UNL     1       2.392  -0.230   1.682  0.00  0.00    +0.008 C 
BRANCH  20  21
ATOM     21  C   UNL     1       3.344  -1.040   2.563  0.00  0.00    +0.018 C 
BRANCH  21  22
ATOM     22  C   UNL     1       4.782  -0.577   2.320  0.00  0.00    +0.132 C 
ATOM     23  C   UNL     1       5.775  -1.435   3.145  0.00  0.00    +0.197 C 
ATOM     24  C   UNL     1       6.746  -0.338   3.659  0.00  0.00    +0.340 C 
ATOM     25  O   UNL     1       5.870   0.790   3.866  0.00  0.00    -0.432 OA
ATOM     26  C   UNL     1       4.984   0.831   2.847  0.00  0.00    +0.315 C 
ATOM     27  O   UNL     1       4.440   1.823   2.424  0.00  0.00    -0.250 OA
BRANCH  24  28
ATOM     28  O   UNL     1       7.360  -0.738   4.885  0.00  0.00    -0.343 OA
ATOM     29  C   UNL     1       8.353   0.172   5.363  0.00  0.00    +0.198 C 
ENDBRANCH  24  28
BRANCH  23  30
ATOM     30  O   UNL     1       5.115  -2.090   4.230  0.00  0.00    -0.385 OA
ATOM     31  H   UNL     1       5.698  -2.637   4.773  0.00  0.00    +0.210 HD
ENDBRANCH  23  30
ENDBRANCH  21  22
ENDBRANCH  20  21
ENDBRANCH   7  20
TORSDOF 7
