REMARK  Name = ZINC43337368
REMARK  6 active torsions:
REMARK  status: ('A' for Active; 'I' for Inactive)
REMARK    1  A    between atoms: C_1  and  C_2
REMARK    2  A    between atoms: C_2  and  C_4
REMARK    3  A    between atoms: C_2  and  N_20
REMARK    4  A    between atoms: C_4  and  C_6
REMARK    5  A    between atoms: C_4  and  O_11
REMARK    6  A    between atoms: O_11  and  C_12
REMARK                            x       y       z     vdW  Elec       q    Type
REMARK                         _______ _______ _______ _____ _____    ______ ____
ROOT
ATOM      1  C   UNL     1       0.744  -0.517   1.254  0.00  0.00    +0.224 C 
ENDROOT
BRANCH   1   2
ATOM      2  C   UNL     1      -0.001  -0.178   2.519  0.00  0.00    +0.143 A 
ATOM      3  C   UNL     1      -0.791  -1.015   3.215  0.00  0.00    +0.048 A 
ATOM      4  C   UNL     1      -1.283  -0.288   4.323  0.00  0.00    +0.041 A 
ATOM      5  C   UNL     1      -0.764   0.950   4.238  0.00  0.00    +0.195 A 
ATOM      6  O   UNL     1       0.017   1.009   3.147  0.00  0.00    -0.464 OA
ENDBRANCH   1   2
BRANCH   1   8
ATOM      7  C   UNL     1      -0.055   1.552   0.104  0.00  0.00    -0.010 C 
ATOM      8  C   UNL     1      -0.027   0.024   0.048  0.00  0.00    -0.029 C 
BRANCH   8   9
ATOM      9  N   UNL     1       0.635  -0.409  -1.191  0.00  0.00    +0.382 N 
ATOM     10  H   UNL     1       1.579  -0.054  -1.209  0.00  0.00    -0.089 HD
ATOM     11  H   UNL     1       0.653  -1.417  -1.228  0.00  0.00    -0.089 HD
ATOM     12  H   UNL     1       0.126  -0.052  -1.986  0.00  0.00    -0.089 HD
ENDBRANCH   8   9
ENDBRANCH   1   8
BRANCH   1  13
ATOM     13  O   UNL     1       2.044   0.076   1.292  0.00  0.00    -0.481 OA
BRANCH  13  14
ATOM     14  C   UNL     1       3.067  -0.645   0.763  0.00  0.00    +0.141 A 
ATOM     15  C   UNL     1       2.810  -1.844   0.115  0.00  0.00    +0.047 A 
ATOM     16  C   UNL     1       3.851  -2.576  -0.423  0.00  0.00    +0.005 A 
ATOM     17  C   UNL     1       5.150  -2.115  -0.315  0.00  0.00    +0.022 A 
ATOM     18  C   UNL     1       5.411  -0.920   0.332  0.00  0.00    +0.063 A 
ATOM     19  C   UNL     1       4.371  -0.180   0.866  0.00  0.00    +0.101 A 
ATOM     20 CL   UNL     1       4.697   1.323   1.671  0.00  0.00    -0.078 Cl
ATOM     21 CL   UNL     1       7.044  -0.344   0.466  0.00  0.00    -0.082 Cl
ENDBRANCH  13  14
ENDBRANCH   1  13
TORSDOF 5
