REMARK  Name = ZINC09956747
REMARK  12 active torsions:
REMARK  status: ('A' for Active; 'I' for Inactive)
REMARK    1  A    between atoms: C_4  and  S_10
REMARK    2  A    between atoms: C_5  and  N_7
REMARK    3  A    between atoms: S_10  and  C_11
REMARK    4  A    between atoms: C_11  and  C_12
REMARK    5  A    between atoms: C_12  and  C_13
REMARK    6  A    between atoms: C_13  and  C_14
REMARK    7  A    between atoms: N_16  and  C_17
REMARK    8  A    between atoms: C_19  and  O_32
REMARK    9  A    between atoms: C_21  and  O_31
REMARK   10  A    between atoms: C_23  and  C_29
REMARK   11  A    between atoms: C_26  and  O_28
REMARK   12  A    between atoms: C_29  and  O_30
REMARK                            x       y       z     vdW  Elec       q    Type
REMARK                         _______ _______ _______ _____ _____    ______ ____
ROOT
ATOM      1  C   UNL     1       0.371  -0.617   3.724  0.00  0.00    +0.213 C 
ATOM      2  O   UNL     1       0.606   0.035   4.720  0.00  0.00    -0.276 OA
ATOM      3  N   UNL     1       0.091   0.006   2.562  0.00  0.00    -0.305 N 
ATOM      4  H   UNL     1      -0.097  -0.514   1.766  0.00  0.00    +0.149 HD
ENDROOT
BRANCH   3   5
ATOM      5  C   UNL     1       0.069   1.470   2.503  0.00  0.00    +0.160 C 
ATOM      6  C   UNL     1      -1.337   1.975   2.844  0.00  0.00    +0.171 C 
ATOM      7  C   UNL     1      -2.321   1.462   1.788  0.00  0.00    +0.176 C 
ATOM      8  C   UNL     1      -1.859   1.923   0.403  0.00  0.00    +0.178 C 
ATOM      9  O   UNL     1      -0.533   1.445   0.162  0.00  0.00    -0.341 OA
ATOM     10  C   UNL     1       0.439   1.930   1.090  0.00  0.00    +0.270 C 
BRANCH  10  11
ATOM     11  O   UNL     1       1.726   1.416   0.744  0.00  0.00    -0.365 OA
ATOM     12  H   UNL     1       2.026   1.668  -0.141  0.00  0.00    +0.213 HD
ENDBRANCH  10  11
BRANCH   7  13
ATOM     13  O   UNL     1      -2.363   0.034   1.827  0.00  0.00    -0.387 OA
ATOM     14  H   UNL     1      -2.965  -0.359   1.180  0.00  0.00    +0.210 HD
ENDBRANCH   7  13
BRANCH   6  15
ATOM     15  O   UNL     1      -1.720   1.488   4.131  0.00  0.00    -0.387 OA
ATOM     16  H   UNL     1      -2.604   1.765   4.409  0.00  0.00    +0.210 HD
ENDBRANCH   6  15
BRANCH   8  17
ATOM     17  C   UNL     1      -2.804   1.365  -0.662  0.00  0.00    +0.190 C 
BRANCH  17  18
ATOM     18  O   UNL     1      -2.442   1.888  -1.942  0.00  0.00    -0.392 OA
ATOM     19  H   UNL     1      -3.000   1.576  -2.667  0.00  0.00    +0.210 HD
ENDBRANCH  17  18
ENDBRANCH   8  17
ENDBRANCH   3   5
BRANCH   1  20
ATOM     20  C   UNL     1       0.394  -2.122   3.785  0.00  0.00    +0.096 C 
BRANCH  20  21
ATOM     21  C   UNL     1       0.736  -2.570   5.208  0.00  0.00    +0.020 C 
BRANCH  21  22
ATOM     22  C   UNL     1       0.759  -4.098   5.270  0.00  0.00    +0.075 C 
BRANCH  22  23
ATOM     23  S   UNL     1       1.165  -4.628   6.957  0.00  0.00    -0.123 S 
BRANCH  23  27
ATOM     24  C   UNL     1       1.133  -9.151   6.721  0.00  0.00    +0.002 A 
ATOM     25  C   UNL     1       0.860  -8.400   5.592  0.00  0.00    +0.001 A 
ATOM     26  C   UNL     1       0.868  -7.021   5.660  0.00  0.00    +0.017 A 
ATOM     27  C   UNL     1       1.152  -6.388   6.865  0.00  0.00    +0.038 A 
ATOM     28  C   UNL     1       1.432  -7.146   7.995  0.00  0.00    +0.140 A 
ATOM     29  C   UNL     1       1.416  -8.525   7.921  0.00  0.00    +0.034 A 
BRANCH  28  30
ATOM     30  N   UNL     1       1.741  -6.477   9.279  0.00  0.00    +0.058 N 
ATOM     31  O   UNL     1       1.986  -7.143  10.269  0.00  0.00    -0.126 OA
ATOM     32  O   UNL     1       1.750  -5.261   9.345  0.00  0.00    -0.126 OA
ENDBRANCH  28  30
ENDBRANCH  23  27
ENDBRANCH  22  23
ENDBRANCH  21  22
ENDBRANCH  20  21
ENDBRANCH   1  20
TORSDOF 12
