REMARK  Name = ZINC37867728
REMARK  7 active torsions:
REMARK  status: ('A' for Active; 'I' for Inactive)
REMARK    1  A    between atoms: C_1  and  O_2
REMARK    2  A    between atoms: O_2  and  C_3
REMARK    3  A    between atoms: C_6  and  N_9
REMARK    4  A    between atoms: N_9  and  C_10
REMARK    5  A    between atoms: C_10  and  C_11
REMARK    6  A    between atoms: N_13  and  C_14
REMARK    7  A    between atoms: C_19  and  C_20
REMARK                            x       y       z     vdW  Elec       q    Type
REMARK                         _______ _______ _______ _____ _____    ______ ____
ROOT
ATOM      1  N   UNL     1       2.489  -2.464   4.245  0.00  0.00    -0.273 N 
ATOM      2  C   UNL     1       2.435  -3.838   4.315  0.00  0.00    +0.136 C 
ATOM      3  N   UNL     1       1.919  -4.654   3.439  0.00  0.00    -0.362 N 
ATOM      4  C   UNL     1       1.878  -6.098   3.692  0.00  0.00    +0.117 C 
ATOM      5  C   UNL     1       0.469  -6.395   4.268  0.00  0.00    +0.191 C 
ATOM      6  S   UNL     1       0.774  -7.752   5.462  0.00  0.00    -0.028 S 
ATOM      7  O   UNL     1       0.462  -8.991   4.840  0.00  0.00    -0.174 OA
ATOM      8  O   UNL     1       0.163  -7.420   6.701  0.00  0.00    -0.174 OA
ATOM      9  C   UNL     1       2.595  -7.620   5.643  0.00  0.00    +0.182 C 
ATOM     10  C   UNL     1       2.974  -6.473   4.714  0.00  0.00    +0.099 C 
ATOM     11  S   UNL     1       3.064  -4.881   5.624  0.00  0.00    -0.085 S 
ATOM     12  H   UNL     1       1.559  -4.302   2.610  0.00  0.00    +0.162 HD
ENDROOT
BRANCH   1  16
ATOM     13  C   UNL     1       0.581  -0.458   1.127  0.00  0.00    +0.120 A 
ATOM     14  C   UNL     1      -0.140  -1.317   1.943  0.00  0.00    +0.047 A 
ATOM     15  C   UNL     1       0.491  -1.982   2.975  0.00  0.00    +0.027 A 
ATOM     16  C   UNL     1       1.848  -1.790   3.197  0.00  0.00    +0.036 A 
ATOM     17  C   UNL     1       2.570  -0.930   2.380  0.00  0.00    +0.027 A 
ATOM     18  C   UNL     1       1.938  -0.270   1.345  0.00  0.00    +0.047 A 
BRANCH  13  20
ATOM     19  C   UNL     1      -1.440  -0.044  -0.056  0.00  0.00    +0.277 C 
ATOM     20  O   UNL     1      -0.041   0.196   0.110  0.00  0.00    -0.495 OA
ENDBRANCH  13  20
ENDBRANCH   1  16
BRANCH   1  21
ATOM     21  C   UNL     1       3.217  -1.706   5.266  0.00  0.00    +0.208 C 
BRANCH  21  22
ATOM     22  C   UNL     1       2.282  -1.360   6.396  0.00  0.00    +0.235 C 
ATOM     23  O   UNL     1       1.122  -1.712   6.353  0.00  0.00    -0.274 OA
ATOM     24  N   UNL     1       2.735  -0.660   7.455  0.00  0.00    -0.284 N 
ATOM     25  H   UNL     1       3.646  -0.328   7.463  0.00  0.00    +0.155 HD
BRANCH  24  26
ATOM     26  C   UNL     1       1.890  -0.411   8.543  0.00  0.00    +0.045 A 
ATOM     27  C   UNL     1       0.533  -0.203   8.336  0.00  0.00    +0.024 A 
ATOM     28  C   UNL     1      -0.298   0.042   9.412  0.00  0.00    +0.002 A 
ATOM     29  C   UNL     1       0.220   0.080  10.693  0.00  0.00    +0.001 A 
ATOM     30  C   UNL     1       1.571  -0.126  10.902  0.00  0.00    +0.014 A 
ATOM     31  C   UNL     1       2.407  -0.378   9.831  0.00  0.00    +0.076 A 
BRANCH  31  32
ATOM     32  C   UNL     1       3.878  -0.611  10.060  0.00  0.00    +0.419 C 
ATOM     33  F   UNL     1       4.155  -0.529  11.429  0.00  0.00    -0.166 F 
ATOM     34  F   UNL     1       4.229  -1.880   9.589  0.00  0.00    -0.166 F 
ATOM     35  F   UNL     1       4.616   0.361   9.376  0.00  0.00    -0.166 F 
ENDBRANCH  31  32
ENDBRANCH  24  26
ENDBRANCH  21  22
ENDBRANCH   1  21
TORSDOF 6
