REMARK  Name = ZINC18043974
REMARK  6 active torsions:
REMARK  status: ('A' for Active; 'I' for Inactive)
REMARK    1  A    between atoms: C_4  and  C_7
REMARK    2  A    between atoms: N_9  and  C_10
REMARK    3  A    between atoms: C_10  and  C_11
REMARK    4  A    between atoms: C_11  and  N_13
REMARK    5  A    between atoms: N_14  and  C_15
REMARK    6  A    between atoms: C_24  and  O_25
REMARK                            x       y       z     vdW  Elec       q    Type
REMARK                         _______ _______ _______ _____ _____    ______ ____
ROOT
ATOM      1  N   UNL     1       5.779  -5.084  -0.081  0.00  0.00    -0.078 NA
ATOM      2  N   UNL     1       5.563  -6.356  -0.086  0.00  0.00    -0.151 NA
ENDROOT
BRANCH   2   3
ATOM      3  C   UNL     1       6.591  -7.206  -0.101  0.00  0.00    +0.152 A 
ATOM      4  C   UNL     1       6.523  -8.682  -0.114  0.00  0.00    +0.032 A 
ATOM      5  C   UNL     1       5.474  -9.597  -0.115  0.00  0.00    +0.027 A 
ATOM      6  C   UNL     1       5.746 -10.949  -0.129  0.00  0.00    +0.019 A 
ATOM      7  C   UNL     1       7.059 -11.397  -0.142  0.00  0.00    +0.017 A 
ATOM      8  C   UNL     1       8.107 -10.499  -0.141  0.00  0.00    +0.027 A 
ATOM      9  C   UNL     1       7.851  -9.133  -0.127  0.00  0.00    +0.051 A 
ATOM     10  N   UNL     1       8.682  -8.023  -0.123  0.00  0.00    -0.324 N 
ATOM     11  H   UNL     1       9.651  -8.059  -0.130  0.00  0.00    +0.169 HD
ATOM     12  C   UNL     1       7.954  -6.881  -0.113  0.00  0.00    +0.219 A 
ATOM     13 BR   UNL     1       4.325 -12.197  -0.129  0.00  0.00    -0.050 Br
BRANCH  12  14
ATOM     14  O   UNL     1       8.460  -5.631  -0.112  0.00  0.00    -0.492 OA
ATOM     15  H   UNL     1       8.617  -5.271   0.772  0.00  0.00    +0.294 HD
ENDBRANCH  12  14
ENDBRANCH   2   3
BRANCH   1  16
ATOM     16  C   UNL     1       4.746  -4.230  -0.067  0.00  0.00    +0.271 C 
ATOM     17  O   UNL     1       3.608  -4.653  -0.058  0.00  0.00    -0.270 OA
BRANCH  16  18
ATOM     18  C   UNL     1       4.997  -2.744  -0.061  0.00  0.00    +0.204 C 
BRANCH  18  21
ATOM     19  C   UNL     1       3.696  -0.685  -0.037  0.00  0.00    +0.244 C 
ATOM     20  O   UNL     1       4.738  -0.060  -0.044  0.00  0.00    -0.270 OA
ATOM     21  N   UNL     1       3.717  -2.032  -0.045  0.00  0.00    -0.303 N 
ATOM     22  H   UNL     1       2.885  -2.531  -0.039  0.00  0.00    +0.150 HD
BRANCH  19  26
ATOM     23  C   UNL     1      -0.017   1.379   0.010  0.00  0.00    +0.000 A 
ATOM     24  C   UNL     1       1.168   2.094   0.002  0.00  0.00    +0.001 A 
ATOM     25  C   UNL     1       2.377   1.429  -0.013  0.00  0.00    +0.013 A 
ATOM     26  C   UNL     1       2.403   0.034  -0.021  0.00  0.00    +0.037 A 
ATOM     27  C   UNL     1       1.204  -0.681  -0.013  0.00  0.00    +0.013 A 
ATOM     28  C   UNL     1       0.002  -0.004   0.002  0.00  0.00    +0.001 A 
ENDBRANCH  19  26
ENDBRANCH  18  21
ENDBRANCH  16  18
ENDBRANCH   1  16
TORSDOF 6
