REMARK  Name = ZINC03984864
REMARK  9 active torsions:
REMARK  status: ('A' for Active; 'I' for Inactive)
REMARK    1  A    between atoms: C_1  and  C_2
REMARK    2  A    between atoms: C_5  and  N_9
REMARK    3  A    between atoms: C_7  and  C_8
REMARK    4  A    between atoms: C_12  and  C_19
REMARK    5  A    between atoms: C_13  and  O_18
REMARK    6  A    between atoms: C_23  and  O_31
REMARK    7  A    between atoms: C_24  and  O_29
REMARK    8  A    between atoms: O_29  and  C_30
REMARK    9  A    between atoms: O_31  and  C_32
REMARK                            x       y       z     vdW  Elec       q    Type
REMARK                         _______ _______ _______ _____ _____    ______ ____
ROOT
ATOM      1  N   UNL     1       2.357   3.889   0.000  0.00  0.00    -0.229 N 
ATOM      2  C   UNL     1       3.530   3.232   0.092  0.00  0.00    +0.267 A 
ATOM      3  O   UNL     1       3.547   2.017   0.183  0.00  0.00    -0.267 OA
ATOM      4  C   UNL     1       4.734   3.958   0.078  0.00  0.00    +0.067 A 
ATOM      5  C   UNL     1       4.688   5.317  -0.018  0.00  0.00    +0.201 A 
ATOM      6  N   UNL     1       3.472   5.947  -0.104  0.00  0.00    -0.278 N 
ATOM      7  H   UNL     1       3.433   6.943  -0.175  0.00  0.00    +0.173 HD
ATOM      8  C   UNL     1       2.332   5.231  -0.094  0.00  0.00    +0.336 A 
ATOM      9  O   UNL     1       1.264   5.807  -0.172  0.00  0.00    -0.246 OA
ENDROOT
BRANCH   4  10
ATOM     10  C   UNL     1       6.058   3.243   0.174  0.00  0.00    +0.001 C 
ATOM     11  C   UNL     1       6.168   2.580   1.522  0.00  0.00    -0.050 A 
ATOM     12  C   UNL     1       5.746   3.286   2.639  0.00  0.00    +0.052 A 
ATOM     13  C   UNL     1       5.831   2.721   3.899  0.00  0.00    +0.162 A 
ATOM     14  C   UNL     1       6.345   1.435   4.044  0.00  0.00    +0.162 A 
ATOM     15  C   UNL     1       6.764   0.735   2.927  0.00  0.00    +0.053 A 
ATOM     16  C   UNL     1       6.676   1.306   1.666  0.00  0.00    -0.044 A 
ATOM     17  C   UNL     1       7.142   0.502   0.480  0.00  0.00    +0.016 C 
ATOM     18  C   UNL     1       7.354   1.420  -0.724  0.00  0.00    -0.077 C 
ATOM     19  N   UNL     1       6.145   2.246  -0.901  0.00  0.00    +0.387 N 
ATOM     20  H   UNL     1       6.191   2.726  -1.808  0.00  0.00    -0.085 HD
ATOM     21  H   UNL     1       5.314   1.643  -0.875  0.00  0.00    -0.085 HD
BRANCH  14  22
ATOM     22  O   UNL     1       6.434   0.870   5.278  0.00  0.00    -0.491 OA
ATOM     23  C   UNL     1       6.971  -0.452   5.349  0.00  0.00    +0.277 C 
ENDBRANCH  14  22
BRANCH  13  24
ATOM     24  O   UNL     1       5.416   3.417   4.990  0.00  0.00    -0.491 OA
ATOM     25  C   UNL     1       4.900   4.731   4.764  0.00  0.00    +0.277 C 
ENDBRANCH  13  24
ENDBRANCH   4  10
BRANCH   1  30
ATOM     26  C   UNL     1      -2.520   0.989   0.032  0.00  0.00    +0.044 C 
ATOM     27  C   UNL     1      -1.223   1.756   0.024  0.00  0.00    -0.047 A 
ATOM     28  C   UNL     1      -0.585   2.019  -1.175  0.00  0.00    +0.005 A 
ATOM     29  C   UNL     1       0.601   2.728  -1.186  0.00  0.00    +0.027 A 
ATOM     30  C   UNL     1       1.155   3.170   0.008  0.00  0.00    +0.055 A 
ATOM     31  C   UNL     1       0.514   2.899   1.210  0.00  0.00    +0.030 A 
ATOM     32  C   UNL     1      -0.671   2.191   1.214  0.00  0.00    -0.046 A 
ATOM     33  C   UNL     1      -1.367   1.896   2.518  0.00  0.00    +0.044 C 
ENDBRANCH   1  30
BRANCH   5  34
ATOM     34  O   UNL     1       5.829   6.038  -0.029  0.00  0.00    -0.493 OA
ATOM     35  H   UNL     1       5.691   6.992  -0.100  0.00  0.00    +0.294 HD
ENDBRANCH   5  34
TORSDOF 5
