REMARK  Name = ZINC63374585
REMARK  8 active torsions:
REMARK  status: ('A' for Active; 'I' for Inactive)
REMARK    1  A    between atoms: C_1  and  C_2
REMARK    2  A    between atoms: C_13  and  C_33
REMARK    3  A    between atoms: N_20  and  C_23
REMARK    4  A    between atoms: C_23  and  C_24
REMARK    5  A    between atoms: C_24  and  C_26
REMARK    6  A    between atoms: C_24  and  O_32
REMARK    7  A    between atoms: C_38  and  O_39
REMARK    8  A    between atoms: O_39  and  C_40
REMARK                            x       y       z     vdW  Elec       q    Type
REMARK                         _______ _______ _______ _____ _____    ______ ____
ROOT
ATOM      1  C   UNL     1      -0.033   1.519  -0.094  0.00  0.00    +0.044 C 
ATOM      2  C   UNL     1      -0.004   0.002  -0.294  0.00  0.00    +0.135 C 
ATOM      3  C   UNL     1       0.715  -0.213  -1.587  0.00  0.00    +0.139 C 
ATOM      4  C   UNL     1       1.769  -1.293  -1.411  0.00  0.00    -0.027 C 
ATOM      5  C   UNL     1       1.593  -2.159  -2.398  0.00  0.00    -0.000 A 
ATOM      6  C   UNL     1       2.346  -3.357  -2.803  0.00  0.00    +0.010 A 
ATOM      7  C   UNL     1       1.868  -4.030  -3.882  0.00  0.00    +0.001 A 
ATOM      8  C   UNL     1       0.728  -3.639  -4.591  0.00  0.00    +0.002 A 
ATOM      9  C   UNL     1      -0.023  -2.549  -4.292  0.00  0.00    +0.026 A 
ATOM     10  C   UNL     1       0.383  -1.756  -3.180  0.00  0.00    +0.043 A 
ATOM     11  N   UNL     1      -0.129  -0.684  -2.685  0.00  0.00    -0.375 N 
ATOM     12  C   UNL     1       2.705  -1.279  -0.227  0.00  0.00    +0.068 C 
ATOM     13  C   UNL     1       1.816  -1.332   1.018  0.00  0.00    +0.121 C 
ATOM     14  N   UNL     1       0.614  -0.526   0.909  0.00  0.00    -0.283 N 
ATOM     15  C   UNL     1      -0.065  -0.259   2.074  0.00  0.00    +0.234 C 
ATOM     16  O   UNL     1       0.394  -0.550   3.158  0.00  0.00    -0.274 OA
ATOM     17  C   UNL     1      -1.414   0.415   1.938  0.00  0.00    +0.203 C 
ATOM     18  N   UNL     1      -2.148  -0.217   0.826  0.00  0.00    -0.288 N 
ATOM     19  C   UNL     1      -1.452  -0.412  -0.335  0.00  0.00    +0.242 C 
ATOM     20  O   UNL     1      -1.965  -0.883  -1.328  0.00  0.00    -0.273 OA
ATOM     21  H   UNL     1      -0.943  -0.259  -2.998  0.00  0.00    +0.160 HD
ENDROOT
BRANCH  12  22
ATOM     22  C   UNL     1       3.612  -2.481  -0.270  0.00  0.00    +0.003 A 
ATOM     23  C   UNL     1       3.090  -3.749  -0.096  0.00  0.00    +0.008 A 
ATOM     24  C   UNL     1       3.922  -4.852  -0.135  0.00  0.00    +0.001 A 
ATOM     25  C   UNL     1       5.279  -4.690  -0.349  0.00  0.00    +0.004 A 
ATOM     26  C   UNL     1       5.806  -3.426  -0.524  0.00  0.00    +0.046 A 
ATOM     27  C   UNL     1       4.972  -2.317  -0.491  0.00  0.00    +0.124 A 
BRANCH  27  28
ATOM     28  O   UNL     1       5.487  -1.072  -0.669  0.00  0.00    -0.495 OA
ATOM     29  C   UNL     1       6.896  -0.979  -0.891  0.00  0.00    +0.277 C 
ENDBRANCH  27  28
ENDBRANCH  12  22
BRANCH  18  30
ATOM     30  C   UNL     1      -3.551  -0.617   0.959  0.00  0.00    +0.144 C 
BRANCH  30  31
ATOM     31  C   UNL     1      -4.455   0.544   0.539  0.00  0.00    +0.162 C 
BRANCH  31  32
ATOM     32  C   UNL     1      -5.898   0.132   0.676  0.00  0.00    -0.018 A 
ATOM     33  C   UNL     1      -6.539   0.255   1.895  0.00  0.00    +0.006 A 
ATOM     34  C   UNL     1      -7.863  -0.122   2.020  0.00  0.00    +0.000 A 
ATOM     35  C   UNL     1      -8.546  -0.622   0.927  0.00  0.00    +0.000 A 
ATOM     36  C   UNL     1      -7.905  -0.744  -0.291  0.00  0.00    +0.000 A 
ATOM     37  C   UNL     1      -6.582  -0.363  -0.418  0.00  0.00    +0.006 A 
ENDBRANCH  31  32
BRANCH  31  38
ATOM     38  O   UNL     1      -4.199   1.673   1.377  0.00  0.00    -0.386 OA
ATOM     39  H   UNL     1      -4.362   1.510   2.317  0.00  0.00    +0.210 HD
ENDBRANCH  31  38
ENDBRANCH  30  31
ENDBRANCH  18  30
TORSDOF 6
