REMARK  Name = ZINC15521231
REMARK  13 active torsions:
REMARK  status: ('A' for Active; 'I' for Inactive)
REMARK    1  A    between atoms: C_1  and  C_2
REMARK    2  A    between atoms: C_4  and  C_18
REMARK    3  A    between atoms: C_5  and  C_17
REMARK    4  A    between atoms: N_6  and  C_7
REMARK    5  A    between atoms: C_10  and  S_13
REMARK    6  A    between atoms: S_13  and  N_16
REMARK    7  A    between atoms: C_18  and  C_20
REMARK    8  A    between atoms: C_20  and  N_64
REMARK    9  A    between atoms: C_21  and  N_64
REMARK   10  A    between atoms: C_22  and  C_23
REMARK   11  A    between atoms: C_22  and  N_64
REMARK   12  A    between atoms: C_28  and  O_33
REMARK   13  A    between atoms: O_33  and  C_34
REMARK                            x       y       z     vdW  Elec       q    Type
REMARK                         _______ _______ _______ _____ _____    ______ ____
ROOT
ATOM      1  C   UNL     1      -9.591   6.704   2.519  0.00  0.00    +0.064 C 
ATOM      2  C   UNL     1      -8.440   5.893   3.055  0.00  0.00    +0.022 A 
ATOM      3  C   UNL     1      -7.609   5.137   2.318  0.00  0.00    +0.034 A 
ATOM      4  C   UNL     1      -6.651   4.537   3.256  0.00  0.00    +0.037 A 
ATOM      5  C   UNL     1      -7.009   4.995   4.510  0.00  0.00    +0.031 A 
ATOM      6  N   UNL     1      -8.075   5.808   4.370  0.00  0.00    -0.317 N 
ATOM      7  C   UNL     1      -6.324   4.650   5.807  0.00  0.00    +0.064 C 
ENDROOT
BRANCH   6   8
ATOM      8  C   UNL     1      -8.720   6.469   5.424  0.00  0.00    +0.047 A 
ATOM      9  C   UNL     1      -8.048   7.442   6.151  0.00  0.00    +0.028 A 
ATOM     10  C   UNL     1      -8.689   8.095   7.186  0.00  0.00    +0.030 A 
ATOM     11  C   UNL     1      -9.995   7.772   7.505  0.00  0.00    +0.105 A 
ATOM     12  C   UNL     1     -10.665   6.799   6.787  0.00  0.00    +0.030 A 
ATOM     13  C   UNL     1     -10.032   6.147   5.747  0.00  0.00    +0.028 A 
BRANCH  11  14
ATOM     14  S   UNL     1     -10.807   8.602   8.831  0.00  0.00    +0.056 S 
ATOM     15  O   UNL     1     -10.148   9.851   8.992  0.00  0.00    -0.153 OA
ATOM     16  O   UNL     1     -12.202   8.504   8.578  0.00  0.00    -0.153 OA
BRANCH  14  17
ATOM     17  N   UNL     1     -10.513   7.730  10.207  0.00  0.00    -0.204 NA
ATOM     18  H   UNL     1      -9.976   6.924  10.165  0.00  0.00    +0.144 HD
ATOM     19  H   UNL     1     -10.879   8.026  11.056  0.00  0.00    +0.144 HD
ENDBRANCH  14  17
ENDBRANCH  11  14
ENDBRANCH   6   8
BRANCH   4  20
ATOM     20  C   UNL     1      -5.547   3.631   2.930  0.00  0.00    +0.149 C 
ATOM     21  O   UNL     1      -4.829   3.208   3.812  0.00  0.00    -0.294 OA
BRANCH  20  22
ATOM     22  C   UNL     1      -5.302   3.226   1.499  0.00  0.00    +0.002 C 
BRANCH  22  24
ATOM     23  C   UNL     1      -4.436   1.051   2.116  0.00  0.00    -0.095 C 
ATOM     24  N   UNL     1      -4.124   2.334   1.452  0.00  0.00    +0.385 N 
ATOM     25  H   UNL     1      -3.344   2.784   1.945  0.00  0.00    -0.081 HD
BRANCH  24  26
ATOM     26  C   UNL     1      -3.730   2.093   0.048  0.00  0.00    -0.043 C 
BRANCH  26  27
ATOM     27  C   UNL     1      -2.408   1.369   0.032  0.00  0.00    -0.063 A 
ATOM     28  C   UNL     1      -2.390  -0.025   0.025  0.00  0.00    +0.002 A 
ATOM     29  C   UNL     1      -1.214  -0.710   0.010  0.00  0.00    +0.009 A 
ATOM     30  C   UNL     1       0.002  -0.004   0.002  0.00  0.00    -0.014 A 
ATOM     31  C   UNL     1       1.235  -0.677  -0.013  0.00  0.00    +0.054 A 
ATOM     32  C   UNL     1       2.396   0.042  -0.020  0.00  0.00    +0.121 A 
ATOM     33  C   UNL     1       2.375   1.440  -0.012  0.00  0.00    +0.046 A 
ATOM     34  C   UNL     1       1.198   2.121   0.002  0.00  0.00    +0.012 A 
ATOM     35  C   UNL     1      -0.017   1.413   0.010  0.00  0.00    -0.017 A 
ATOM     36  C   UNL     1      -1.251   2.085   0.031  0.00  0.00    +0.010 A 
BRANCH  32  37
ATOM     37  O   UNL     1       3.588  -0.611  -0.034  0.00  0.00    -0.495 OA
ATOM     38  C   UNL     1       4.768   0.195  -0.040  0.00  0.00    +0.277 C 
ENDBRANCH  32  37
ENDBRANCH  26  27
ENDBRANCH  24  26
ENDBRANCH  22  24
ENDBRANCH  20  22
ENDBRANCH   4  20
TORSDOF 9
