REMARK  Name = ZINC43313623
REMARK  10 active torsions:
REMARK  status: ('A' for Active; 'I' for Inactive)
REMARK    1  A    between atoms: C_1  and  C_2
REMARK    2  A    between atoms: C_6  and  C_22
REMARK    3  A    between atoms: C_7  and  N_8
REMARK    4  A    between atoms: N_11  and  C_12
REMARK    5  A    between atoms: C_14  and  C_20
REMARK    6  A    between atoms: C_14  and  C_21
REMARK    7  A    between atoms: C_16  and  C_18
REMARK    8  A    between atoms: C_16  and  C_19
REMARK    9  A    between atoms: C_22  and  C_23
REMARK   10  A    between atoms: C_22  and  C_24
REMARK                            x       y       z     vdW  Elec       q    Type
REMARK                         _______ _______ _______ _____ _____    ______ ____
ROOT
ATOM      1  N   UNL     1       0.377   0.219   2.096  0.00  0.00    -0.269 N 
ATOM      2  C   UNL     1      -0.012   1.510   2.106  0.00  0.00    +0.304 C 
ATOM      3  O   UNL     1      -0.474   2.013   1.100  0.00  0.00    -0.253 OA
ATOM      4  N   UNL     1       0.113   2.242   3.230  0.00  0.00    -0.296 N 
ATOM      5  H   UNL     1       0.695  -0.198   2.912  0.00  0.00    +0.156 HD
ATOM      6  H   UNL     1       0.482   1.841   4.032  0.00  0.00    +0.151 HD
ENDROOT
BRANCH   4   7
ATOM      7  C   UNL     1      -0.310   3.648   3.241  0.00  0.00    +0.072 C 
ATOM      8  C   UNL     1       0.847   4.525   2.757  0.00  0.00    +0.009 C 
ATOM      9  C   UNL     1       0.425   5.994   2.774  0.00  0.00    -0.072 C 
ATOM     10  N   UNL     1      -0.080   6.405   4.076  0.00  0.00    +0.386 N 
ATOM     11  C   UNL     1      -1.042   5.534   4.732  0.00  0.00    -0.072 C 
ATOM     12  C   UNL     1      -0.658   4.059   4.671  0.00  0.00    +0.009 C 
ATOM     13  C   UNL     1      -2.454   5.730   4.176  0.00  0.00    -0.010 C 
ATOM     14  C   UNL     1      -1.086   5.934   6.227  0.00  0.00    -0.010 C 
ATOM     15  C   UNL     1      -0.578   6.269   1.655  0.00  0.00    -0.010 C 
ATOM     16  C   UNL     1       1.688   6.836   2.476  0.00  0.00    -0.010 C 
ATOM     17  H   UNL     1       0.718   6.534   4.703  0.00  0.00    -0.084 HD
ATOM     18  H   UNL     1      -0.498   7.333   3.980  0.00  0.00    -0.084 HD
ENDBRANCH   4   7
BRANCH   1  25
ATOM     19  C   UNL     1      -2.182  -0.387   1.009  0.00  0.00    +0.045 C 
ATOM     20  C   UNL     1      -0.907  -0.837   0.344  0.00  0.00    -0.029 A 
ATOM     21  C   UNL     1      -0.958  -1.561  -0.831  0.00  0.00    +0.005 A 
ATOM     22  C   UNL     1       0.211  -1.975  -1.442  0.00  0.00    +0.001 A 
ATOM     23  C   UNL     1       1.436  -1.665  -0.878  0.00  0.00    +0.006 A 
ATOM     24  C   UNL     1       1.494  -0.942   0.296  0.00  0.00    -0.023 A 
ATOM     25  C   UNL     1       0.321  -0.519   0.909  0.00  0.00    +0.041 A 
BRANCH  24  26
ATOM     26  C   UNL     1       2.829  -0.605   0.909  0.00  0.00    +0.015 C 
ATOM     27  C   UNL     1       3.581  -1.898   1.234  0.00  0.00    +0.012 C 
ATOM     28  C   UNL     1       3.649   0.227  -0.078  0.00  0.00    +0.012 C 
ENDBRANCH  24  26
ENDBRANCH   1  25
TORSDOF 3
