REMARK  Name = ZINC43363770
REMARK  7 active torsions:
REMARK  status: ('A' for Active; 'I' for Inactive)
REMARK    1  A    between atoms: C_1  and  C_2
REMARK    2  A    between atoms: C_2  and  C_3
REMARK    3  A    between atoms: C_3  and  C_5
REMARK    4  A    between atoms: C_3  and  N_23
REMARK    5  A    between atoms: C_5  and  C_7
REMARK    6  A    between atoms: C_5  and  N_13
REMARK    7  A    between atoms: C_10  and  C_12
REMARK                            x       y       z     vdW  Elec       q    Type
REMARK                         _______ _______ _______ _____ _____    ______ ____
ROOT
ATOM      1  C   UNL     1       0.655  -2.037   1.299  0.00  0.00    +0.125 C 
ENDROOT
BRANCH   1   2
ATOM      2  N   UNL     1       1.463  -2.531   2.417  0.00  0.00    -0.321 N 
ATOM      3  C   UNL     1       1.096  -2.208   3.803  0.00  0.00    +0.106 C 
ATOM      4  C   UNL     1       2.376  -1.799   4.543  0.00  0.00    +0.024 C 
ATOM      5  C   UNL     1       3.330  -2.993   4.577  0.00  0.00    +0.038 C 
ATOM      6  C   UNL     1       3.514  -3.559   3.193  0.00  0.00    -0.026 A 
ATOM      7  C   UNL     1       2.593  -3.322   2.183  0.00  0.00    +0.033 A 
ATOM      8  C   UNL     1       2.787  -3.868   0.920  0.00  0.00    +0.023 A 
ATOM      9  C   UNL     1       3.897  -4.650   0.668  0.00  0.00    +0.002 A 
ATOM     10  C   UNL     1       4.815  -4.888   1.674  0.00  0.00    +0.000 A 
ATOM     11  C   UNL     1       4.629  -4.338   2.932  0.00  0.00    +0.005 A 
ENDBRANCH   1   2
BRANCH   1  12
ATOM     12  C   UNL     1      -0.714  -2.665   1.352  0.00  0.00    +0.124 A 
ATOM     13  C   UNL     1      -1.418  -3.107   0.294  0.00  0.00    +0.047 A 
ATOM     14  C   UNL     1      -2.637  -3.616   0.798  0.00  0.00    +0.045 A 
ATOM     15  C   UNL     1      -2.604  -3.456   2.133  0.00  0.00    +0.102 A 
ATOM     16  O   UNL     1      -1.434  -2.885   2.463  0.00  0.00    -0.463 OA
ATOM     17  C   UNL     1      -3.693  -3.854   3.096  0.00  0.00    +0.086 C 
ENDBRANCH   1  12
BRANCH   1  18
ATOM     18  C   UNL     1       0.523  -0.516   1.397  0.00  0.00    -0.047 C 
BRANCH  18  19
ATOM     19  N   UNL     1       1.859   0.086   1.492  0.00  0.00    +0.381 N 
ATOM     20  H   UNL     1       1.772   1.089   1.557  0.00  0.00    -0.090 HD
ATOM     21  H   UNL     1       2.329  -0.264   2.314  0.00  0.00    -0.090 HD
ATOM     22  H   UNL     1       2.395  -0.152   0.671  0.00  0.00    -0.090 HD
ENDBRANCH  18  19
BRANCH  18  24
ATOM     23  C   UNL     1      -0.433   1.518   0.306  0.00  0.00    +0.002 C 
ATOM     24  C   UNL     1      -0.189   0.015   0.152  0.00  0.00    -0.017 C 
ENDBRANCH  18  24
ENDBRANCH   1  18
TORSDOF 5
