REMARK  Name = ZINC35707660
REMARK  11 active torsions:
REMARK  status: ('A' for Active; 'I' for Inactive)
REMARK    1  A    between atoms: C_1  and  C_2
REMARK    2  A    between atoms: C_2  and  N_3
REMARK    3  A    between atoms: C_4  and  C_34
REMARK    4  A    between atoms: C_5  and  C_28
REMARK    5  A    between atoms: C_6  and  C_11
REMARK    6  A    between atoms: C_15  and  N_17
REMARK    7  A    between atoms: N_20  and  C_21
REMARK    8  A    between atoms: C_28  and  O_30
REMARK    9  A    between atoms: O_30  and  C_31
REMARK   10  A    between atoms: C_31  and  C_32
REMARK   11  A    between atoms: C_31  and  C_33
REMARK                            x       y       z     vdW  Elec       q    Type
REMARK                         _______ _______ _______ _____ _____    ______ ____
ROOT
ATOM      1  C   UNL     1       3.216  -0.802  -4.361  0.00  0.00    -0.021 A 
ATOM      2  C   UNL     1       3.487   0.540  -4.165  0.00  0.00    +0.006 A 
ATOM      3  C   UNL     1       4.436   1.177  -4.943  0.00  0.00    +0.002 A 
ATOM      4  C   UNL     1       5.116   0.475  -5.918  0.00  0.00    +0.023 A 
ATOM      5  C   UNL     1       4.846  -0.872  -6.118  0.00  0.00    +0.035 A 
ATOM      6  C   UNL     1       3.896  -1.511  -5.331  0.00  0.00    +0.029 A 
ENDROOT
BRANCH   1  10
ATOM      7  N   UNL     1       0.254  -0.254  -1.961  0.00  0.00    -0.259 N 
ATOM      8  C   UNL     1      -0.072  -0.553  -3.253  0.00  0.00    +0.024 C 
ATOM      9  C   UNL     1       0.815  -1.158  -4.073  0.00  0.00    +0.078 C 
ATOM     10  C   UNL     1       2.181  -1.493  -3.511  0.00  0.00    +0.144 C 
ATOM     11  N   UNL     1       2.432  -1.128  -2.106  0.00  0.00    -0.288 N 
ATOM     12  C   UNL     1       1.446  -0.523  -1.415  0.00  0.00    +0.307 C 
ATOM     13  O   UNL     1       1.645  -0.214  -0.256  0.00  0.00    -0.252 OA
ATOM     14  C   UNL     1      -1.442  -0.202  -3.773  0.00  0.00    +0.061 C 
ATOM     15  H   UNL     1       3.287  -1.317  -1.689  0.00  0.00    +0.151 HD
BRANCH   7  17
ATOM     16  C   UNL     1      -1.685  -0.653  -0.525  0.00  0.00    +0.025 C 
ATOM     17  C   UNL     1      -0.756   0.403  -1.128  0.00  0.00    +0.111 C 
ENDBRANCH   7  17
BRANCH   9  18
ATOM     18  C   UNL     1       0.479  -1.469  -5.412  0.00  0.00    +0.339 C 
ATOM     19  O   UNL     1      -0.625  -1.191  -5.842  0.00  0.00    -0.245 OA
BRANCH  18  20
ATOM     20  O   UNL     1       1.382  -2.074  -6.211  0.00  0.00    -0.459 OA
BRANCH  20  21
ATOM     21  C   UNL     1       0.975  -2.358  -7.551  0.00  0.00    +0.171 C 
ATOM     22  C   UNL     1       1.319  -1.170  -8.452  0.00  0.00    +0.052 C 
ATOM     23  C   UNL     1       1.705  -3.606  -8.052  0.00  0.00    +0.052 C 
ENDBRANCH  20  21
ENDBRANCH  18  20
ENDBRANCH   9  18
ENDBRANCH   1  10
BRANCH   5  24
ATOM     24  N   UNL     1       5.534  -1.586  -7.106  0.00  0.00    -0.269 N 
ATOM     25  C   UNL     1       5.896  -0.974  -8.251  0.00  0.00    +0.308 C 
ATOM     26  O   UNL     1       5.546   0.170  -8.465  0.00  0.00    -0.252 OA
ATOM     27  N   UNL     1       6.645  -1.631  -9.158  0.00  0.00    -0.268 N 
ATOM     28  H   UNL     1       5.750  -2.522  -6.966  0.00  0.00    +0.156 HD
ATOM     29  H   UNL     1       6.874  -2.563  -9.015  0.00  0.00    +0.156 HD
BRANCH  27  30
ATOM     30  C   UNL     1       7.093  -0.969 -10.307  0.00  0.00    +0.049 A 
ATOM     31  C   UNL     1       6.357   0.083 -10.835  0.00  0.00    +0.024 A 
ATOM     32  C   UNL     1       6.802   0.735 -11.969  0.00  0.00    +0.002 A 
ATOM     33  C   UNL     1       7.980   0.340 -12.578  0.00  0.00    +0.001 A 
ATOM     34  C   UNL     1       8.716  -0.707 -12.055  0.00  0.00    +0.017 A 
ATOM     35  C   UNL     1       8.279  -1.359 -10.917  0.00  0.00    +0.039 A 
ATOM     36 BR   UNL     1       9.290  -2.786 -10.197  0.00  0.00    -0.048 Br
ENDBRANCH  27  30
ENDBRANCH   5  24
TORSDOF 7
