REMARK  Name = ZINC35375006
REMARK  8 active torsions:
REMARK  status: ('A' for Active; 'I' for Inactive)
REMARK    1  A    between atoms: C_1  and  C_2
REMARK    2  A    between atoms: C_2  and  C_3
REMARK    3  A    between atoms: C_3  and  C_5
REMARK    4  A    between atoms: C_3  and  N_6
REMARK    5  A    between atoms: C_18  and  C_26
REMARK    6  A    between atoms: C_28  and  C_30
REMARK    7  A    between atoms: C_30  and  C_32
REMARK    8  A    between atoms: C_30  and  O_33
REMARK                            x       y       z     vdW  Elec       q    Type
REMARK                         _______ _______ _______ _____ _____    ______ ____
ROOT
ATOM      1  N   UNL     1      -2.133  -0.116   1.166  0.00  0.00    -0.239 N 
ATOM      2  C   UNL     1      -1.615  -0.393   2.369  0.00  0.00    +0.228 C 
ATOM      3  O   UNL     1      -0.573  -0.980   2.564  0.00  0.00    -0.275 OA
ATOM      4  C   UNL     1      -2.533   0.140   3.446  0.00  0.00    +0.109 C 
ATOM      5  C   UNL     1      -3.693   0.789   2.639  0.00  0.00    +0.123 C 
ATOM      6  C   UNL     1      -3.295   0.546   1.201  0.00  0.00    +0.228 C 
ATOM      7  O   UNL     1      -3.932   0.895   0.230  0.00  0.00    -0.275 OA
ATOM      8  C   UNL     1      -4.930  -0.039   3.004  0.00  0.00    +0.136 C 
ATOM      9  C   UNL     1      -5.240  -1.067   1.953  0.00  0.00    +0.005 A 
ATOM     10  C   UNL     1      -4.533  -2.121   1.419  0.00  0.00    +0.011 A 
ATOM     11  C   UNL     1      -5.102  -2.912   0.438  0.00  0.00    -0.049 A 
ATOM     12  C   UNL     1      -6.384  -2.641  -0.007  0.00  0.00    +0.025 A 
ATOM     13  C   UNL     1      -7.097  -1.585   0.524  0.00  0.00    +0.063 A 
ATOM     14  C   UNL     1      -6.529  -0.784   1.513  0.00  0.00    +0.057 A 
ATOM     15  N   UNL     1      -7.040   0.324   2.195  0.00  0.00    -0.282 N 
ATOM     16  C   UNL     1      -6.162   0.820   3.088  0.00  0.00    +0.243 C 
ATOM     17  O   UNL     1      -6.332   1.773   3.818  0.00  0.00    -0.273 OA
ATOM     18 CL   UNL     1      -8.704  -1.254  -0.042  0.00  0.00    -0.082 Cl
ATOM     19  C   UNL     1      -4.329  -4.066  -0.146  0.00  0.00    +0.044 C 
ATOM     20  N   UNL     1      -4.626  -0.671   4.302  0.00  0.00    -0.293 NA
ATOM     21  C   UNL     1      -3.172  -1.046   4.200  0.00  0.00    +0.096 C 
ATOM     22  H   UNL     1      -7.924   0.693   2.043  0.00  0.00    +0.155 HD
ATOM     23  H   UNL     1      -4.782  -0.027   5.063  0.00  0.00    +0.124 HD
ENDROOT
BRANCH   1  24
ATOM     24  C   UNL     1      -1.478  -0.501  -0.086  0.00  0.00    +0.081 C 
ATOM     25  C   UNL     1      -1.198  -2.005  -0.074  0.00  0.00    +0.028 C 
BRANCH  24  27
ATOM     26  C   UNL     1      -0.448   1.758  -0.365  0.00  0.00    +0.006 C 
ATOM     27  C   UNL     1      -0.159   0.262  -0.227  0.00  0.00    +0.019 C 
ENDBRANCH  24  27
ENDBRANCH   1  24
BRANCH  21  28
ATOM     28  C   UNL     1      -2.557  -1.183   5.595  0.00  0.00    +0.129 C 
ATOM     29  C   UNL     1      -3.204  -2.363   6.323  0.00  0.00    +0.039 C 
BRANCH  28  30
ATOM     30  O   UNL     1      -1.151  -1.409   5.476  0.00  0.00    -0.390 OA
ATOM     31  H   UNL     1      -0.922  -2.209   4.983  0.00  0.00    +0.210 HD
ENDBRANCH  28  30
ENDBRANCH  21  28
TORSDOF 4
