REMARK  Name = ZINC40847826
REMARK  11 active torsions:
REMARK  status: ('A' for Active; 'I' for Inactive)
REMARK    1  A    between atoms: C_1  and  N_2
REMARK    2  A    between atoms: N_2  and  C_3
REMARK    3  A    between atoms: N_2  and  C_4
REMARK    4  A    between atoms: C_4  and  C_5
REMARK    5  A    between atoms: C_5  and  C_6
REMARK    6  A    between atoms: C_6  and  C_9
REMARK    7  A    between atoms: C_12  and  N_15
REMARK    8  A    between atoms: N_20  and  C_27
REMARK    9  A    between atoms: C_22  and  C_23
REMARK   10  A    between atoms: C_30  and  O_33
REMARK   11  A    between atoms: O_33  and  C_34
REMARK                            x       y       z     vdW  Elec       q    Type
REMARK                         _______ _______ _______ _____ _____    ______ ____
ROOT
ATOM      1  N   UNL     1       0.166  -0.796  -7.540  0.00  0.00    -0.266 N 
ATOM      2  C   UNL     1      -1.266  -1.065  -7.559  0.00  0.00    +0.119 C 
ATOM      3  C   UNL     1      -2.022  -0.180  -8.554  0.00  0.00    +0.059 C 
ATOM      4  C   UNL     1      -1.263  -0.153  -9.850  0.00  0.00    +0.016 A 
ATOM      5  C   UNL     1       0.120  -0.329  -9.897  0.00  0.00    +0.133 A 
ATOM      6  N   UNL     1       0.474  -0.236 -11.196  0.00  0.00    -0.227 N 
ATOM      7  N   UNL     1      -0.582  -0.033 -11.912  0.00  0.00    -0.161 NA
ATOM      8  C   UNL     1      -1.660   0.027 -11.158  0.00  0.00    +0.170 A 
ATOM      9  C   UNL     1       0.882  -0.567  -8.665  0.00  0.00    +0.270 C 
ATOM     10  O   UNL     1       2.099  -0.561  -8.658  0.00  0.00    -0.268 OA
ENDROOT
BRANCH   1  14
ATOM     11  C   UNL     1       2.132  -0.716  -3.869  0.00  0.00    -0.041 A 
ATOM     12  C   UNL     1       1.955   0.455  -4.582  0.00  0.00    +0.006 A 
ATOM     13  C   UNL     1       1.303   0.432  -5.800  0.00  0.00    +0.024 A 
ATOM     14  C   UNL     1       0.826  -0.770  -6.308  0.00  0.00    +0.037 A 
ATOM     15  C   UNL     1       1.006  -1.944  -5.589  0.00  0.00    +0.024 A 
ATOM     16  C   UNL     1       1.664  -1.915  -4.375  0.00  0.00    +0.006 A 
BRANCH  11  17
ATOM     17  C   UNL     1       2.844  -0.687  -2.541  0.00  0.00    -0.006 C 
ATOM     18  C   UNL     1       2.034  -0.263  -1.314  0.00  0.00    +0.012 C 
ATOM     19  C   UNL     1       2.434  -1.728  -1.497  0.00  0.00    +0.012 C 
BRANCH  17  20
ATOM     20  C   UNL     1       4.317  -0.279  -2.590  0.00  0.00    -0.007 C 
BRANCH  20  21
ATOM     21  C   UNL     1       5.165  -1.478  -3.021  0.00  0.00    -0.079 C 
BRANCH  21  23
ATOM     22  C   UNL     1       7.110  -0.634  -1.899  0.00  0.00    -0.097 C 
ATOM     23  N   UNL     1       6.560  -1.054  -3.195  0.00  0.00    +0.376 N 
ATOM     24  C   UNL     1       7.350  -2.174  -3.723  0.00  0.00    -0.097 C 
ATOM     25  H   UNL     1       6.598  -0.281  -3.842  0.00  0.00    -0.083 HD
ENDBRANCH  21  23
ENDBRANCH  20  21
ENDBRANCH  17  20
ENDBRANCH  11  17
ENDBRANCH   1  14
BRANCH   6  26
ATOM     26  C   UNL     1       1.781  -0.343 -11.690  0.00  0.00    +0.066 A 
ATOM     27  C   UNL     1       2.621  -1.344 -11.220  0.00  0.00    +0.031 A 
ATOM     28  C   UNL     1       3.909  -1.449 -11.707  0.00  0.00    +0.048 A 
ATOM     29  C   UNL     1       4.362  -0.555 -12.667  0.00  0.00    +0.120 A 
ATOM     30  C   UNL     1       3.523   0.445 -13.137  0.00  0.00    +0.048 A 
ATOM     31  C   UNL     1       2.234   0.548 -12.654  0.00  0.00    +0.031 A 
BRANCH  29  32
ATOM     32  O   UNL     1       5.630  -0.660 -13.146  0.00  0.00    -0.495 OA
ATOM     33  C   UNL     1       6.031   0.293 -14.133  0.00  0.00    +0.277 C 
ENDBRANCH  29  32
ENDBRANCH   6  26
BRANCH   8  34
ATOM     34  C   UNL     1      -3.071   0.251 -11.638  0.00  0.00    +0.436 C 
ATOM     35  F   UNL     1      -3.345   1.623 -11.656  0.00  0.00    -0.164 F 
ATOM     36  F   UNL     1      -3.212  -0.270 -12.928  0.00  0.00    -0.164 F 
ATOM     37  F   UNL     1      -3.964  -0.391 -10.775  0.00  0.00    -0.164 F 
ENDBRANCH   8  34
TORSDOF 8
