REMARK  Name = ZINC63573438
REMARK  5 active torsions:
REMARK  status: ('A' for Active; 'I' for Inactive)
REMARK    1  A    between atoms: C_1  and  C_2
REMARK    2  A    between atoms: C_5  and  C_8
REMARK    3  A    between atoms: C_15  and  O_20
REMARK    4  A    between atoms: O_20  and  C_21
REMARK    5  A    between atoms: N_27  and  C_28
REMARK                            x       y       z     vdW  Elec       q    Type
REMARK                         _______ _______ _______ _____ _____    ______ ____
ROOT
ATOM      1  C   UNL     1      -0.500  -4.596   0.770  0.00  0.00    +0.134 C 
ATOM      2  C   UNL     1      -1.597  -5.485   1.367  0.00  0.00    +0.131 C 
ATOM      3  C   UNL     1      -1.082  -6.917   1.296  0.00  0.00    -0.035 C 
ATOM      4  C   UNL     1      -1.991  -7.610   0.621  0.00  0.00    +0.003 A 
ATOM      5  C   UNL     1      -2.089  -9.040   0.289  0.00  0.00    +0.055 A 
ATOM      6  C   UNL     1      -3.171  -9.423  -0.444  0.00  0.00    +0.121 A 
ATOM      7  C   UNL     1      -4.169  -8.544  -0.887  0.00  0.00    +0.047 A 
ATOM      8  C   UNL     1      -4.180  -7.210  -0.635  0.00  0.00    +0.029 A 
ATOM      9  C   UNL     1      -3.062  -6.676   0.155  0.00  0.00    +0.043 A 
ATOM     10  N   UNL     1      -2.824  -5.445   0.569  0.00  0.00    -0.375 N 
ATOM     11  C   UNL     1       0.260  -7.324   1.855  0.00  0.00    +0.052 C 
ATOM     12  C   UNL     1       1.294  -6.336   1.287  0.00  0.00    +0.114 C 
ATOM     13  N   UNL     1       0.776  -4.968   1.400  0.00  0.00    -0.276 N 
ATOM     14  C   UNL     1       1.476  -4.045   2.088  0.00  0.00    +0.307 C 
ATOM     15  O   UNL     1       0.981  -2.959   2.323  0.00  0.00    -0.252 OA
ATOM     16  N   UNL     1       2.723  -4.324   2.516  0.00  0.00    -0.269 N 
ATOM     17  H   UNL     1       3.153  -5.152   2.249  0.00  0.00    +0.156 HD
ATOM     18  H   UNL     1      -3.353  -4.654   0.381  0.00  0.00    +0.160 HD
ENDROOT
BRANCH   1  23
ATOM     19  C   UNL     1      -1.671   0.956   1.865  0.00  0.00    +0.044 C 
ATOM     20  C   UNL     1      -1.366  -0.492   1.579  0.00  0.00    -0.050 A 
ATOM     21  C   UNL     1      -1.654  -1.458   2.525  0.00  0.00    +0.004 A 
ATOM     22  C   UNL     1      -1.374  -2.787   2.263  0.00  0.00    +0.006 A 
ATOM     23  C   UNL     1      -0.806  -3.148   1.056  0.00  0.00    -0.025 A 
ATOM     24  C   UNL     1      -0.519  -2.182   0.110  0.00  0.00    +0.006 A 
ATOM     25  C   UNL     1      -0.803  -0.854   0.370  0.00  0.00    +0.004 A 
ENDBRANCH   1  23
BRANCH  16  26
ATOM     26  C   UNL     1       3.398  -3.420   3.345  0.00  0.00    +0.035 A 
ATOM     27  C   UNL     1       3.141  -2.059   3.244  0.00  0.00    +0.024 A 
ATOM     28  C   UNL     1       3.808  -1.170   4.063  0.00  0.00    +0.017 A 
ATOM     29  C   UNL     1       4.731  -1.633   4.983  0.00  0.00    +0.018 A 
ATOM     30  C   UNL     1       4.989  -2.989   5.086  0.00  0.00    +0.017 A 
ATOM     31  C   UNL     1       4.321  -3.884   4.273  0.00  0.00    +0.024 A 
ATOM     32 BR   UNL     1       5.644  -0.412   6.103  0.00  0.00    -0.050 Br
ENDBRANCH  16  26
BRANCH   6  33
ATOM     33  O   UNL     1      -3.289 -10.739  -0.766  0.00  0.00    -0.495 OA
ATOM     34  C   UNL     1      -4.432 -11.117  -1.536  0.00  0.00    +0.277 C 
ENDBRANCH   6  33
TORSDOF 3
