REMARK  Name = ZINC66243213
REMARK  7 active torsions:
REMARK  status: ('A' for Active; 'I' for Inactive)
REMARK    1  A    between atoms: C_1  and  C_2
REMARK    2  A    between atoms: N_5  and  C_9
REMARK    3  A    between atoms: C_9  and  C_11
REMARK    4  A    between atoms: C_9  and  C_23
REMARK    5  A    between atoms: C_11  and  N_12
REMARK    6  A    between atoms: N_14  and  C_15
REMARK    7  A    between atoms: C_15  and  C_16
REMARK                            x       y       z     vdW  Elec       q    Type
REMARK                         _______ _______ _______ _____ _____    ______ ____
ROOT
ATOM      1  C   UNL     1       1.433  -2.487  -2.444  0.00  0.00    +0.110 C 
ENDROOT
BRANCH   1   2
ATOM      2  C   UNL     1       0.698  -2.182  -3.724  0.00  0.00    +0.025 A 
ATOM      3  C   UNL     1      -0.663  -2.417  -3.814  0.00  0.00    +0.130 A 
ATOM      4  C   UNL     1      -1.337  -2.136  -4.990  0.00  0.00    +0.039 A 
ATOM      5  C   UNL     1      -0.650  -1.620  -6.074  0.00  0.00    +0.004 A 
ATOM      6  C   UNL     1       0.709  -1.385  -5.984  0.00  0.00    +0.020 A 
ATOM      7  C   UNL     1       1.383  -1.661  -4.807  0.00  0.00    +0.048 A 
ATOM      8 CL   UNL     1       3.088  -1.358  -4.692  0.00  0.00    -0.083 Cl
ATOM      9  F   UNL     1      -1.333  -2.921  -2.755  0.00  0.00    -0.205 F 
ENDBRANCH   1   2
BRANCH   1  13
ATOM     10  C   UNL     1      -0.629   1.437  -0.305  0.00  0.00    +0.039 C 
ATOM     11  C   UNL     1      -0.446  -0.081  -0.238  0.00  0.00    +0.129 C 
ATOM     12  C   UNL     1       0.417  -0.544  -1.414  0.00  0.00    +0.116 C 
ATOM     13  N   UNL     1       0.654  -1.991  -1.302  0.00  0.00    -0.289 NA
ATOM     14  C   UNL     1       1.319  -2.312  -0.031  0.00  0.00    +0.113 C 
ATOM     15  C   UNL     1       0.447  -1.831   1.132  0.00  0.00    +0.175 C 
ATOM     16  O   UNL     1       0.201  -0.430   0.989  0.00  0.00    -0.374 OA
ENDBRANCH   1  13
BRANCH   1  17
ATOM     17  C   UNL     1       1.623  -4.000  -2.313  0.00  0.00    +0.139 C 
BRANCH  17  18
ATOM     18  N   UNL     1       2.462  -4.483  -3.412  0.00  0.00    -0.356 N 
ATOM     19  C   UNL     1       2.682  -5.832  -3.567  0.00  0.00    +0.169 C 
ATOM     20  N   UNL     1       3.429  -6.262  -4.545  0.00  0.00    -0.355 N 
ATOM     21  N   UNL     1       2.114  -6.726  -2.691  0.00  0.00    -0.371 N 
ATOM     22  H   UNL     1       2.863  -3.853  -4.030  0.00  0.00    +0.162 HD
ATOM     23  H   UNL     1       1.558  -6.406  -1.963  0.00  0.00    +0.159 HD
ATOM     24  H   UNL     1       2.269  -7.677  -2.800  0.00  0.00    +0.159 HD
ATOM     25  H   UNL     1       3.829  -5.631  -5.163  0.00  0.00    +0.162 HD
BRANCH  20  26
ATOM     26  C   UNL     1       3.663  -7.699  -4.710  0.00  0.00    +0.147 C 
BRANCH  26  27
ATOM     27  C   UNL     1       4.566  -7.932  -5.923  0.00  0.00    +0.137 C 
ATOM     28  C   UNL     1       4.720  -9.447  -6.177  0.00  0.00    +0.035 C 
ATOM     29  C   UNL     1       6.215  -9.563  -6.580  0.00  0.00    +0.031 C 
ATOM     30  C   UNL     1       6.845  -8.457  -5.696  0.00  0.00    +0.160 C 
ATOM     31  O   UNL     1       5.870  -7.399  -5.667  0.00  0.00    -0.375 OA
ENDBRANCH  26  27
ENDBRANCH  20  26
ENDBRANCH  17  18
ENDBRANCH   1  17
TORSDOF 6
