REMARK  Name = ZINC15668997
REMARK  8 active torsions:
REMARK  status: ('A' for Active; 'I' for Inactive)
REMARK    1  A    between atoms: C_10  and  C_13
REMARK    2  A    between atoms: C_13  and  C_15
REMARK    3  A    between atoms: C_13  and  O_33
REMARK    4  A    between atoms: C_15  and  N_16
REMARK    5  A    between atoms: N_16  and  C_17
REMARK    6  A    between atoms: C_17  and  C_18
REMARK    7  A    between atoms: C_18  and  C_20
REMARK    8  A    between atoms: C_18  and  O_32
REMARK                            x       y       z     vdW  Elec       q    Type
REMARK                         _______ _______ _______ _____ _____    ______ ____
ROOT
ATOM      1  N   UNL     1       6.976   4.546  -0.556  0.00  0.00    +0.383 N 
ATOM      2  H   UNL     1       6.991   4.744   0.433  0.00  0.00    -0.086 HD
ATOM      3  H   UNL     1       7.827   4.072  -0.817  0.00  0.00    -0.086 HD
ENDROOT
BRANCH   1   4
ATOM      4  C   UNL     1       5.824   3.688  -0.866  0.00  0.00    -0.047 C 
BRANCH   4   5
ATOM      5  C   UNL     1       5.939   2.378  -0.084  0.00  0.00    +0.138 C 
BRANCH   5  15
ATOM      6  C   UNL     1      -0.017   1.380   0.010  0.00  0.00    +0.042 A 
ATOM      7  C   UNL     1       1.170   2.085   0.002  0.00  0.00    +0.049 A 
ATOM      8  C   UNL     1       2.386   1.410  -0.014  0.00  0.00    +0.124 A 
ATOM      9  C   UNL     1       2.402   0.026  -0.025  0.00  0.00    -0.003 A 
ATOM     10  C   UNL     1       1.210  -0.678  -0.015  0.00  0.00    +0.045 A 
ATOM     11  C   UNL     1       0.002  -0.004   0.002  0.00  0.00    +0.124 A 
ATOM     12  F   UNL     1      -1.158  -0.696   0.012  0.00  0.00    -0.205 F 
ATOM     13  C   UNL     1       3.699  -0.744  -0.055  0.00  0.00    +0.042 C 
ATOM     14  C   UNL     1       4.850   0.169   0.374  0.00  0.00    +0.052 C 
ATOM     15  C   UNL     1       4.740   1.484  -0.407  0.00  0.00    +0.200 C 
ATOM     16  O   UNL     1       3.532   2.140  -0.016  0.00  0.00    -0.486 OA
ENDBRANCH   5  15
BRANCH   5  17
ATOM     17  O   UNL     1       7.146   1.707  -0.454  0.00  0.00    -0.390 OA
ATOM     18  H   UNL     1       7.200   1.485  -1.394  0.00  0.00    +0.210 HD
ENDBRANCH   5  17
ENDBRANCH   4   5
ENDBRANCH   1   4
BRANCH   1  19
ATOM     19  C   UNL     1       6.865   5.804  -1.306  0.00  0.00    -0.047 C 
BRANCH  19  20
ATOM     20  C   UNL     1       8.064   6.697  -0.984  0.00  0.00    +0.138 C 
BRANCH  20  21
ATOM     21  C   UNL     1       7.949   8.008  -1.765  0.00  0.00    +0.200 C 
ATOM     22  C   UNL     1       9.073   8.962  -1.342  0.00  0.00    +0.052 C 
ATOM     23  C   UNL     1       8.996  10.214  -2.219  0.00  0.00    +0.042 C 
ATOM     24  C   UNL     1       7.576  10.719  -2.258  0.00  0.00    -0.003 A 
ATOM     25  C   UNL     1       7.343  12.021  -2.668  0.00  0.00    +0.045 A 
ATOM     26  C   UNL     1       6.053  12.516  -2.720  0.00  0.00    +0.124 A 
ATOM     27  C   UNL     1       4.987  11.708  -2.362  0.00  0.00    +0.042 A 
ATOM     28  C   UNL     1       5.216  10.410  -1.951  0.00  0.00    +0.049 A 
ATOM     29  C   UNL     1       6.513   9.911  -1.896  0.00  0.00    +0.124 A 
ATOM     30  O   UNL     1       6.697   8.631  -1.477  0.00  0.00    -0.486 OA
ATOM     31  F   UNL     1       5.832  13.788  -3.120  0.00  0.00    -0.205 F 
ENDBRANCH  20  21
BRANCH  20  32
ATOM     32  O   UNL     1       8.086   6.978   0.417  0.00  0.00    -0.390 OA
ATOM     33  H   UNL     1       7.296   7.434   0.740  0.00  0.00    +0.210 HD
ENDBRANCH  20  32
ENDBRANCH  19  20
ENDBRANCH   1  19
TORSDOF 8
