REMARK  Name = ZINC65474712
REMARK  6 active torsions:
REMARK  status: ('A' for Active; 'I' for Inactive)
REMARK    1  A    between atoms: C_1  and  N_2
REMARK    2  A    between atoms: C_3  and  C_5
REMARK    3  A    between atoms: C_5  and  N_6
REMARK    4  A    between atoms: C_9  and  N_12
REMARK    5  A    between atoms: N_15  and  C_16
REMARK    6  A    between atoms: C_25  and  O_27
REMARK                            x       y       z     vdW  Elec       q    Type
REMARK                         _______ _______ _______ _____ _____    ______ ____
ROOT
ATOM      1  N   UNL     1       2.361  -4.655   5.759  0.00  0.00    -0.297 N 
ATOM      2  C   UNL     1       2.255  -5.908   6.242  0.00  0.00    +0.300 C 
ATOM      3  O   UNL     1       1.488  -6.697   5.722  0.00  0.00    -0.253 OA
ATOM      4  N   UNL     1       2.998  -6.288   7.300  0.00  0.00    -0.290 N 
ATOM      5  H   UNL     1       2.972  -4.026   6.173  0.00  0.00    +0.151 HD
ATOM      6  H   UNL     1       3.609  -5.659   7.714  0.00  0.00    +0.151 HD
ENDROOT
BRANCH   4   7
ATOM      7  C   UNL     1       2.882  -7.651   7.825  0.00  0.00    +0.134 C 
ATOM      8  C   UNL     1       1.772  -7.726   8.851  0.00  0.00    -0.021 A 
ATOM      9  C   UNL     1       0.399  -7.792   8.684  0.00  0.00    +0.006 A 
ATOM     10  C   UNL     1      -0.433  -7.853   9.785  0.00  0.00    +0.000 A 
ATOM     11  C   UNL     1       0.106  -7.850  11.058  0.00  0.00    +0.000 A 
ATOM     12  C   UNL     1       1.476  -7.785  11.226  0.00  0.00    +0.004 A 
ATOM     13  C   UNL     1       2.311  -7.723  10.124  0.00  0.00    -0.040 A 
ATOM     14  C   UNL     1       3.821  -7.645  10.040  0.00  0.00    +0.069 C 
ATOM     15  C   UNL     1       4.166  -8.043   8.586  0.00  0.00    +0.143 C 
BRANCH  15  16
ATOM     16  O   UNL     1       5.288  -7.298   8.107  0.00  0.00    -0.389 OA
ATOM     17  H   UNL     1       6.119  -7.508   8.554  0.00  0.00    +0.210 HD
ENDBRANCH  15  16
ENDBRANCH   4   7
BRANCH   1  21
ATOM     18  N   UNL     1       1.335  -2.669   2.185  0.00  0.00    +0.385 N 
ATOM     19  C   UNL     1       0.587  -2.289   3.390  0.00  0.00    -0.076 C 
ATOM     20  C   UNL     1       1.363  -2.722   4.635  0.00  0.00    +0.004 C 
ATOM     21  C   UNL     1       1.553  -4.242   4.608  0.00  0.00    +0.071 C 
ATOM     22  C   UNL     1       2.269  -4.634   3.313  0.00  0.00    +0.004 C 
ATOM     23  C   UNL     1       1.459  -4.130   2.116  0.00  0.00    -0.076 C 
ATOM     24  H   UNL     1       2.255  -2.256   2.219  0.00  0.00    -0.081 HD
BRANCH  18  25
ATOM     25  C   UNL     1       0.625  -2.182   0.995  0.00  0.00    +0.019 C 
BRANCH  25  28
ATOM     26  C   UNL     1      -0.018   1.461   0.010  0.00  0.00    +0.128 C 
ATOM     27  N   UNL     1       0.002  -0.004   0.002  0.00  0.00    -0.320 N 
ATOM     28  C   UNL     1       0.604  -0.675   1.004  0.00  0.00    +0.196 C 
ATOM     29  O   UNL     1       1.130  -0.067   1.911  0.00  0.00    -0.278 OA
ATOM     30  H   UNL     1      -0.418  -0.491  -0.724  0.00  0.00    +0.148 HD
ENDBRANCH  25  28
ENDBRANCH  18  25
ENDBRANCH   1  21
TORSDOF 5
