REMARK  Name = ZINC04087199
REMARK  7 active torsions:
REMARK  status: ('A' for Active; 'I' for Inactive)
REMARK    1  A    between atoms: C_1  and  C_2
REMARK    2  A    between atoms: C_2  and  C_3
REMARK    3  A    between atoms: C_2  and  N_44
REMARK    4  A    between atoms: C_9  and  N_14
REMARK    5  A    between atoms: C_10  and  C_11
REMARK    6  A    between atoms: C_15  and  C_17
REMARK    7  A    between atoms: C_20  and  N_22
REMARK                            x       y       z     vdW  Elec       q    Type
REMARK                         _______ _______ _______ _____ _____    ______ ____
ROOT
ATOM      1  C   UNL     1       7.044   0.003   0.379  0.00  0.00    -0.073 C 
ATOM      2  C   UNL     1       6.216   1.219  -0.046  0.00  0.00    +0.018 C 
ATOM      3  C   UNL     1       4.745   0.819  -0.038  0.00  0.00    -0.027 A 
ATOM      4  C   UNL     1       4.397  -0.488  -0.042  0.00  0.00    -0.021 A 
ATOM      5  S   UNL     1       2.629  -0.484  -0.018  0.00  0.00    -0.079 S 
ATOM      6  C   UNL     1       2.352   1.226  -0.014  0.00  0.00    +0.085 A 
ATOM      7  C   UNL     1       3.637   1.755  -0.023  0.00  0.00    +0.068 A 
ATOM      8  C   UNL     1       5.333  -1.656  -0.058  0.00  0.00    -0.035 C 
ATOM      9  N   UNL     1       6.673  -1.159  -0.455  0.00  0.00    +0.384 N 
ATOM     10  H   UNL     1       6.643  -0.867  -1.439  0.00  0.00    -0.081 HD
ENDROOT
BRANCH   7  11
ATOM     11  C   UNL     1       3.864   3.204  -0.018  0.00  0.00    +0.244 C 
ATOM     12  O   UNL     1       3.967   3.800   1.038  0.00  0.00    -0.270 OA
ATOM     13  N   UNL     1       3.958   3.875  -1.183  0.00  0.00    -0.325 N 
ATOM     14  H   UNL     1       3.875   3.400  -2.025  0.00  0.00    +0.145 HD
ATOM     15  H   UNL     1       4.108   4.833  -1.180  0.00  0.00    +0.145 HD
ENDBRANCH   7  11
BRANCH   6  16
ATOM     16  N   UNL     1       1.143   1.903   0.001  0.00  0.00    -0.275 N 
ATOM     17  C   UNL     1      -0.014   1.213   0.009  0.00  0.00    +0.255 C 
ATOM     18  O   UNL     1       0.002  -0.004   0.002  0.00  0.00    -0.269 OA
ATOM     19  H   UNL     1       1.130   2.873   0.007  0.00  0.00    +0.156 HD
BRANCH  17  20
ATOM     20  C   UNL     1      -1.293   1.928   0.019  0.00  0.00    +0.076 A 
ATOM     21  C   UNL     1      -2.581   1.415   0.022  0.00  0.00    +0.023 A 
ATOM     22  C   UNL     1      -3.614   2.320   0.032  0.00  0.00    +0.041 A 
ATOM     23  C   UNL     1      -3.332   3.649   0.039  0.00  0.00    +0.164 A 
ATOM     24  S   UNL     1      -1.598   3.686   0.038  0.00  0.00    -0.060 S 
BRANCH  23  25
ATOM     25  N   UNL     1      -4.275   4.789   0.050  0.00  0.00    +0.063 N 
ATOM     26  O   UNL     1      -5.476   4.586   0.054  0.00  0.00    -0.126 OA
ATOM     27  O   UNL     1      -3.851   5.931   0.054  0.00  0.00    -0.126 OA
ENDBRANCH  23  25
ENDBRANCH  17  20
ENDBRANCH   6  16
BRANCH   9  29
ATOM     28  C   UNL     1       7.736  -2.707   1.151  0.00  0.00    -0.014 C 
ATOM     29  C   UNL     1       7.677  -2.233  -0.302  0.00  0.00    -0.074 C 
ATOM     30  C   UNL     1       7.292  -3.406  -1.206  0.00  0.00    -0.014 C 
ENDBRANCH   9  29
TORSDOF 5
