REMARK  Name = ZINC28657929
REMARK  12 active torsions:
REMARK  status: ('A' for Active; 'I' for Inactive)
REMARK    1  A    between atoms: C_1  and  N_2
REMARK    2  A    between atoms: C_6  and  C_7
REMARK    3  A    between atoms: C_7  and  C_9
REMARK    4  A    between atoms: C_7  and  N_16
REMARK    5  A    between atoms: N_16  and  C_17
REMARK    6  A    between atoms: C_17  and  C_18
REMARK    7  A    between atoms: C_18  and  C_20
REMARK    8  A    between atoms: C_18  and  O_37
REMARK    9  A    between atoms: C_20  and  O_21
REMARK   10  A    between atoms: O_21  and  C_22
REMARK   11  A    between atoms: C_22  and  C_23
REMARK   12  A    between atoms: C_22  and  C_30
REMARK                            x       y       z     vdW  Elec       q    Type
REMARK                         _______ _______ _______ _____ _____    ______ ____
ROOT
ATOM      1  C   UNL     1      -2.947  -1.974   4.168  0.00  0.00    +0.154 C 
ENDROOT
BRANCH   1   2
ATOM      2  O   UNL     1      -2.556  -1.828   5.534  0.00  0.00    -0.388 OA
ATOM      3  H   UNL     1      -2.724  -0.949   5.900  0.00  0.00    +0.210 HD
ENDBRANCH   1   2
BRANCH   1   4
ATOM      4  C   UNL     1      -2.176  -0.971   3.307  0.00  0.00    +0.115 C 
BRANCH   4   5
ATOM      5  N   UNL     1      -0.744  -1.298   3.338  0.00  0.00    -0.301 NA
ATOM      6  H   UNL     1      -0.584  -2.249   3.042  0.00  0.00    +0.123 HD
BRANCH   5   7
ATOM      7  C   UNL     1       0.030  -0.354   2.521  0.00  0.00    +0.149 C 
BRANCH   7  13
ATOM      8  C   UNL     1      -0.018   1.461   0.010  0.00  0.00    +0.150 C 
ATOM      9  N   UNL     1       0.002  -0.004   0.002  0.00  0.00    -0.337 N 
ATOM     10  C   UNL     1       0.009  -0.810  -1.104  0.00  0.00    +0.104 A 
ATOM     11  C   UNL     1       0.029  -2.081  -0.660  0.00  0.00    +0.102 A 
ATOM     12  N   UNL     1       0.034  -2.052   0.681  0.00  0.00    -0.348 N 
ATOM     13  C   UNL     1       0.023  -0.811   1.085  0.00  0.00    +0.109 A 
ATOM     14  H   UNL     1       0.048  -2.831   1.260  0.00  0.00    +0.166 HD
ENDBRANCH   7  13
BRANCH   7  15
ATOM     15  C   UNL     1       1.449  -0.300   3.024  0.00  0.00    -0.023 A 
ATOM     16  C   UNL     1       2.086  -1.461   3.421  0.00  0.00    +0.008 A 
ATOM     17  C   UNL     1       3.388  -1.413   3.882  0.00  0.00    +0.038 A 
ATOM     18  C   UNL     1       4.054  -0.201   3.947  0.00  0.00    +0.123 A 
ATOM     19  C   UNL     1       3.415   0.962   3.549  0.00  0.00    +0.038 A 
ATOM     20  C   UNL     1       2.115   0.910   3.083  0.00  0.00    +0.008 A 
ATOM     21  F   UNL     1       5.327  -0.152   4.398  0.00  0.00    -0.205 F 
ENDBRANCH   7  15
ENDBRANCH   5   7
ENDBRANCH   4   5
ENDBRANCH   1   4
BRANCH   1  22
ATOM     22  C   UNL     1      -4.448  -1.710   4.036  0.00  0.00    +0.193 C 
BRANCH  22  23
ATOM     23  O   UNL     1      -5.173  -2.717   4.746  0.00  0.00    -0.365 OA
BRANCH  23  24
ATOM     24  C   UNL     1      -6.592  -2.563   4.686  0.00  0.00    +0.178 C 
BRANCH  24  25
ATOM     25  C   UNL     1      -7.128  -3.309   3.492  0.00  0.00    -0.014 A 
ATOM     26  C   UNL     1      -6.614  -4.550   3.164  0.00  0.00    +0.009 A 
ATOM     27  C   UNL     1      -7.106  -5.235   2.070  0.00  0.00    +0.039 A 
ATOM     28  C   UNL     1      -8.114  -4.679   1.301  0.00  0.00    +0.123 A 
ATOM     29  C   UNL     1      -8.628  -3.436   1.629  0.00  0.00    +0.039 A 
ATOM     30  C   UNL     1      -8.139  -2.755   2.728  0.00  0.00    +0.009 A 
ATOM     31  F   UNL     1      -8.595  -5.348   0.230  0.00  0.00    -0.205 F 
ENDBRANCH  24  25
BRANCH  24  32
ATOM     32  C   UNL     1      -7.211  -3.116   5.944  0.00  0.00    -0.014 A 
ATOM     33  C   UNL     1      -6.654  -4.222   6.558  0.00  0.00    +0.009 A 
ATOM     34  C   UNL     1      -7.221  -4.731   7.712  0.00  0.00    +0.039 A 
ATOM     35  C   UNL     1      -8.346  -4.131   8.252  0.00  0.00    +0.123 A 
ATOM     36  C   UNL     1      -8.902  -3.023   7.636  0.00  0.00    +0.039 A 
ATOM     37  C   UNL     1      -8.331  -2.514   6.485  0.00  0.00    +0.009 A 
ATOM     38  F   UNL     1      -8.901  -4.627   9.380  0.00  0.00    -0.205 F 
ENDBRANCH  24  32
ENDBRANCH  23  24
ENDBRANCH  22  23
ENDBRANCH   1  22
TORSDOF 11
