REMARK  Name = ZINC07238870
REMARK  14 active torsions:
REMARK  status: ('A' for Active; 'I' for Inactive)
REMARK    1  A    between atoms: C_3  and  N_30
REMARK    2  A    between atoms: C_6  and  C_7
REMARK    3  A    between atoms: C_7  and  C_9
REMARK    4  A    between atoms: C_7  and  O_29
REMARK    5  A    between atoms: C_9  and  C_11
REMARK    6  A    between atoms: C_9  and  N_53
REMARK    7  A    between atoms: C_11  and  O_12
REMARK    8  A    between atoms: C_13  and  C_14
REMARK    9  A    between atoms: C_13  and  N_53
REMARK   10  A    between atoms: C_14  and  C_16
REMARK   11  A    between atoms: C_14  and  O_28
REMARK   12  A    between atoms: C_16  and  O_17
REMARK   13  A    between atoms: O_17  and  C_18
REMARK   14  A    between atoms: C_18  and  C_19
REMARK                            x       y       z     vdW  Elec       q    Type
REMARK                         _______ _______ _______ _____ _____    ______ ____
ROOT
ATOM      1  N   UNK A   1       0.930   7.732   4.633  0.00  0.00    +0.386 N 
ATOM      2  H   UNK A   1       0.318   7.263   5.311  0.00  0.00    -0.085 HD
ATOM      3  H   UNK A   1       1.909   7.616   4.919  0.00  0.00    -0.085 HD
ENDROOT
BRANCH   1   4
ATOM      4  C   UNK A   1       0.602   9.169   4.593  0.00  0.00    -0.012 C 
BRANCH   4   5
ATOM      5  C   UNK A   1       0.203   9.632   5.995  0.00  0.00    +0.133 C 
BRANCH   5  11
ATOM      6  C   UNK A   1      -2.281   9.322   5.982  0.00  0.00    +0.008 A 
ATOM      7  C   UNK A   1      -3.422   8.650   6.376  0.00  0.00    +0.033 A 
ATOM      8  C   UNK A   1      -3.326   7.564   7.227  0.00  0.00    +0.126 A 
ATOM      9  C   UNK A   1      -2.088   7.148   7.679  0.00  0.00    +0.033 A 
ATOM     10  C   UNK A   1      -0.946   7.817   7.280  0.00  0.00    +0.008 A 
ATOM     11  C   UNK A   1      -1.042   8.903   6.430  0.00  0.00    -0.020 A 
BRANCH   8  12
ATOM     12  N   UNK A   1      -4.549   6.848   7.653  0.00  0.00    +0.056 N 
ATOM     13  O   UNK A   1      -4.464   5.891   8.403  0.00  0.00    -0.126 OA
ATOM     14  O   UNK A   1      -5.640   7.214   7.255  0.00  0.00    -0.126 OA
ENDBRANCH   8  12
ENDBRANCH   5  11
BRANCH   5  15
ATOM     15  O   UNK A   1      -0.051  11.039   5.979  0.00  0.00    -0.389 OA
ATOM     16  H   UNK A   1      -0.697  11.314   5.314  0.00  0.00    +0.210 HD
ENDBRANCH   5  15
ENDBRANCH   4   5
BRANCH   4  17
ATOM     17  C   UNK A   1       1.826   9.960   4.124  0.00  0.00    +0.143 C 
BRANCH  17  18
ATOM     18  O   UNK A   1       2.878   9.821   5.081  0.00  0.00    -0.397 OA
ATOM     19  H   UNK A   1       3.687  10.297   4.848  0.00  0.00    +0.209 HD
ENDBRANCH  17  18
ENDBRANCH   4  17
ENDBRANCH   1   4
BRANCH   1  20
ATOM     20  C   UNK A   0       0.737   7.125   3.302  0.00  0.00    -0.048 C 
BRANCH  20  21
ATOM     21  C   UNK A   0       1.084   5.637   3.374  0.00  0.00    +0.123 C 
BRANCH  21  22
ATOM     22  O   UNK A   0       2.446   5.485   3.778  0.00  0.00    -0.391 OA
ATOM     23  H   UNK A   0       3.083   5.898   3.179  0.00  0.00    +0.210 HD
ENDBRANCH  21  22
BRANCH  21  24
ATOM     24  C   UNK A   0       0.886   5.000   1.997  0.00  0.00    +0.189 C 
BRANCH  24  25
ATOM     25  O   UNK A   0       1.098   3.590   2.090  0.00  0.00    -0.373 OA
BRANCH  25  26
ATOM     26  C   UNK A   0       0.936   2.895   0.852  0.00  0.00    +0.195 C 
BRANCH  26  27
ATOM     27  C   UNK A   0       1.181   1.424   1.066  0.00  0.00    -0.018 A 
ATOM     28  C   UNK A   0       2.456   0.909   0.924  0.00  0.00    +0.010 A 
ATOM     29  C   UNK A   0       2.686  -0.441   1.118  0.00  0.00    +0.050 A 
ATOM     30  C   UNK A   0       1.637  -1.280   1.457  0.00  0.00    +0.166 A 
ATOM     31  C   UNK A   0       0.352  -0.761   1.601  0.00  0.00    +0.167 A 
ATOM     32  C   UNK A   0       0.130   0.592   1.404  0.00  0.00    +0.055 A 
ATOM     33  O   UNK A   0      -0.494  -1.779   1.934  0.00  0.00    -0.453 OA
ATOM     34  C   UNK A   0       0.206  -2.990   1.593  0.00  0.00    +0.466 C 
ATOM     35  O   UNK A   0       1.595  -2.623   1.700  0.00  0.00    -0.453 OA
ENDBRANCH  26  27
ENDBRANCH  25  26
ENDBRANCH  24  25
ENDBRANCH  21  24
ENDBRANCH  20  21
ENDBRANCH   1  20
TORSDOF 14
