REMARK  Name = ZINC39655211
REMARK  10 active torsions:
REMARK  status: ('A' for Active; 'I' for Inactive)
REMARK    1  A    between atoms: C_1  and  C_2
REMARK    2  A    between atoms: C_2  and  C_3
REMARK    3  A    between atoms: C_3  and  C_4
REMARK    4  A    between atoms: C_4  and  C_6
REMARK    5  A    between atoms: C_4  and  C_7
REMARK    6  A    between atoms: C_11  and  C_20
REMARK    7  A    between atoms: N_22  and  C_23
REMARK    8  A    between atoms: C_23  and  C_24
REMARK    9  A    between atoms: C_24  and  N_25
REMARK   10  A    between atoms: N_25  and  C_26
REMARK                            x       y       z     vdW  Elec       q    Type
REMARK                         _______ _______ _______ _____ _____    ______ ____
ROOT
ATOM      1  C   UNL     1       1.315  -2.550  -2.248  0.00  0.00    +0.218 C 
ATOM      2  O   UNL     1       1.689  -1.681  -3.007  0.00  0.00    -0.275 OA
ATOM      3  N   UNL     1       1.443  -3.847  -2.594  0.00  0.00    -0.300 N 
ATOM      4  C   UNL     1       1.043  -5.039  -1.810  0.00  0.00    +0.121 C 
ATOM      5  C   UNL     1       0.462  -6.017  -2.857  0.00  0.00    +0.100 C 
ATOM      6  C   UNL     1       1.106  -5.595  -4.188  0.00  0.00    -0.004 C 
ATOM      7  C   UNL     1       2.010  -4.402  -3.846  0.00  0.00    +0.115 C 
ATOM      8  C   UNL     1       0.031  -5.166  -5.182  0.00  0.00    -0.010 C 
ATOM      9  C   UNL     1       0.691  -4.806  -6.516  0.00  0.00    -0.082 C 
ATOM     10  N   UNL     1       1.426  -5.968  -7.030  0.00  0.00    +0.379 N 
ATOM     11  C   UNL     1       2.517  -6.316  -6.112  0.00  0.00    -0.082 C 
ATOM     12  C   UNL     1       1.934  -6.740  -4.761  0.00  0.00    -0.010 C 
ATOM     13  H   UNL     1       0.797  -6.751  -7.115  0.00  0.00    -0.086 HD
ATOM     14  H   UNL     1       1.809  -5.747  -7.937  0.00  0.00    -0.086 HD
ENDROOT
BRANCH   5  15
ATOM     15  C   UNL     1      -1.037  -5.878  -2.929  0.00  0.00    +0.218 C 
ATOM     16  O   UNL     1      -1.560  -4.810  -2.690  0.00  0.00    -0.275 OA
ATOM     17  N   UNL     1      -1.797  -6.941  -3.259  0.00  0.00    -0.314 N 
ATOM     18  H   UNL     1      -1.379  -7.795  -3.450  0.00  0.00    +0.149 HD
BRANCH  17  19
ATOM     19  C   UNL     1      -3.254  -6.806  -3.330  0.00  0.00    +0.123 C 
BRANCH  19  20
ATOM     20  C   UNL     1      -3.872  -8.150  -3.722  0.00  0.00    +0.120 C 
BRANCH  20  21
ATOM     21  N   UNL     1      -5.329  -8.015  -3.793  0.00  0.00    -0.342 N 
ATOM     22  H   UNL     1      -5.747  -7.161  -3.601  0.00  0.00    +0.146 HD
BRANCH  21  23
ATOM     23  C   UNL     1      -6.117  -9.117  -4.135  0.00  0.00    +0.027 A 
ATOM     24  C   UNL     1      -5.521 -10.342  -4.403  0.00  0.00    +0.023 A 
ATOM     25  C   UNL     1      -6.302 -11.429  -4.741  0.00  0.00    +0.002 A 
ATOM     26  C   UNL     1      -7.677 -11.299  -4.812  0.00  0.00    +0.000 A 
ATOM     27  C   UNL     1      -8.274 -10.080  -4.546  0.00  0.00    +0.002 A 
ATOM     28  C   UNL     1      -7.499  -8.991  -4.202  0.00  0.00    +0.023 A 
ENDBRANCH  21  23
ENDBRANCH  20  21
ENDBRANCH  19  20
ENDBRANCH  17  19
ENDBRANCH   5  15
BRANCH   1  29
ATOM     29  C   UNL     1       0.708  -2.181  -0.920  0.00  0.00    +0.072 C 
ATOM     30  C   UNL     1       1.547  -2.783   0.209  0.00  0.00    +0.017 C 
BRANCH  29  31
ATOM     31  C   UNL     1       0.680  -0.658  -0.778  0.00  0.00    +0.012 C 
BRANCH  31  33
ATOM     32  C   UNL     1      -0.076   1.244   0.656  0.00  0.00    +0.004 C 
ATOM     33  C   UNL     1      -0.048  -0.279   0.514  0.00  0.00    -0.003 C 
ENDBRANCH  31  33
ENDBRANCH  29  31
ENDBRANCH   1  29
TORSDOF 8
