REMARK  Name = ZINC08782413
REMARK  9 active torsions:
REMARK  status: ('A' for Active; 'I' for Inactive)
REMARK    1  A    between atoms: C_1  and  C_2
REMARK    2  A    between atoms: C_4  and  C_27
REMARK    3  A    between atoms: C_7  and  N_8
REMARK    4  A    between atoms: C_9  and  C_11
REMARK    5  A    between atoms: N_16  and  C_18
REMARK    6  A    between atoms: C_21  and  O_24
REMARK    7  A    between atoms: O_24  and  C_25
REMARK    8  A    between atoms: C_27  and  C_29
REMARK    9  A    between atoms: C_27  and  C_31
REMARK                            x       y       z     vdW  Elec       q    Type
REMARK                         _______ _______ _______ _____ _____    ______ ____
ROOT
ATOM      1  C   UNL     1       3.267  -0.831   1.565  0.00  0.00    +0.045 C 
ATOM      2  C   UNL     1       2.130  -0.052   0.956  0.00  0.00    -0.029 A 
ATOM      3  C   UNL     1       2.265   1.304   0.730  0.00  0.00    +0.011 A 
ATOM      4  C   UNL     1       1.223   2.020   0.171  0.00  0.00    -0.008 A 
ATOM      5  C   UNL     1       0.041   1.381  -0.163  0.00  0.00    +0.047 A 
ATOM      6  C   UNL     1      -0.099   0.025   0.061  0.00  0.00    +0.044 A 
ATOM      7  C   UNL     1       0.947  -0.697   0.622  0.00  0.00    +0.038 A 
ATOM      8 CL   UNL     1      -1.262   2.283  -0.871  0.00  0.00    -0.083 Cl
ENDROOT
BRANCH   7   9
ATOM      9  N   UNL     1       0.808  -2.070   0.851  0.00  0.00    -0.285 N 
ATOM     10  C   UNL     1      -0.392  -2.578   1.195  0.00  0.00    +0.222 C 
ATOM     11  O   UNL     1      -1.370  -1.861   1.221  0.00  0.00    -0.275 OA
ATOM     12  H   UNL     1       1.575  -2.657   0.761  0.00  0.00    +0.155 HD
BRANCH  10  13
ATOM     13  C   UNL     1      -0.519  -4.038   1.548  0.00  0.00    +0.102 C 
ATOM     14  C   UNL     1      -0.123  -4.933   0.350  0.00  0.00    +0.110 C 
ATOM     15  C   UNL     1      -1.433  -5.208  -0.355  0.00  0.00    +0.221 C 
ATOM     16  O   UNL     1      -1.536  -5.634  -1.487  0.00  0.00    -0.275 OA
ATOM     17  N   UNL     1      -2.465  -4.913   0.453  0.00  0.00    -0.271 N 
ATOM     18  C   UNL     1      -1.999  -4.429   1.758  0.00  0.00    +0.127 C 
BRANCH  17  19
ATOM     19  C   UNL     1      -3.813  -5.048   0.096  0.00  0.00    +0.036 A 
ATOM     20  C   UNL     1      -4.155  -5.624  -1.121  0.00  0.00    +0.027 A 
ATOM     21  C   UNL     1      -5.484  -5.762  -1.469  0.00  0.00    +0.047 A 
ATOM     22  C   UNL     1      -6.477  -5.316  -0.610  0.00  0.00    +0.120 A 
ATOM     23  C   UNL     1      -6.136  -4.736   0.603  0.00  0.00    +0.047 A 
ATOM     24  C   UNL     1      -4.808  -4.602   0.956  0.00  0.00    +0.027 A 
BRANCH  22  25
ATOM     25  O   UNL     1      -7.785  -5.447  -0.957  0.00  0.00    -0.495 OA
ATOM     26  C   UNL     1      -8.064  -6.054  -2.220  0.00  0.00    +0.277 C 
ENDBRANCH  22  25
ENDBRANCH  17  19
ENDBRANCH  10  13
ENDBRANCH   7   9
BRANCH   4  27
ATOM     27  C   UNL     1       1.373   3.499  -0.075  0.00  0.00    +0.153 C 
BRANCH  27  28
ATOM     28  C   UNL     1       1.472   4.220   1.245  0.00  0.00    -0.026 A 
ATOM     29  C   UNL     1       2.580   4.038   2.051  0.00  0.00    +0.006 A 
ATOM     30  C   UNL     1       2.673   4.703   3.259  0.00  0.00    +0.020 A 
ATOM     31  C   UNL     1       1.652   5.543   3.666  0.00  0.00    +0.041 A 
ATOM     32  C   UNL     1       0.541   5.721   2.862  0.00  0.00    +0.020 A 
ATOM     33  C   UNL     1       0.451   5.059   1.652  0.00  0.00    +0.006 A 
ATOM     34 CL   UNL     1       1.766   6.374   5.186  0.00  0.00    -0.084 Cl
ENDBRANCH  27  28
BRANCH  27  35
ATOM     35  C   UNL     1       2.594   3.744  -0.860  0.00  0.00    +0.075 C 
ATOM     36  N   UNL     1       3.536   3.934  -1.466  0.00  0.00    -0.196 NA
ENDBRANCH  27  35
ENDBRANCH   4  27
TORSDOF 7
