REMARK  Name = ZINC59990021
REMARK  11 active torsions:
REMARK  status: ('A' for Active; 'I' for Inactive)
REMARK    1  A    between atoms: C_1  and  C_2
REMARK    2  A    between atoms: C_5  and  C_36
REMARK    3  A    between atoms: N_8  and  C_10
REMARK    4  A    between atoms: C_10  and  C_11
REMARK    5  A    between atoms: C_10  and  C_12
REMARK    6  A    between atoms: C_10  and  C_13
REMARK    7  A    between atoms: C_13  and  N_14
REMARK    8  A    between atoms: C_15  and  C_17
REMARK    9  A    between atoms: C_22  and  S_23
REMARK   10  A    between atoms: S_23  and  C_24
REMARK   11  A    between atoms: C_24  and  C_25
REMARK                            x       y       z     vdW  Elec       q    Type
REMARK                         _______ _______ _______ _____ _____    ______ ____
ROOT
ATOM      1  C   UNL     1      -1.673  -0.673   4.371  0.00  0.00    +0.050 A 
ATOM      2  C   UNL     1      -1.957  -1.684   3.450  0.00  0.00    +0.014 A 
ATOM      3  C   UNL     1      -3.213  -2.248   3.414  0.00  0.00    +0.001 A 
ATOM      4  C   UNL     1      -4.200  -1.819   4.289  0.00  0.00    +0.001 A 
ATOM      5  C   UNL     1      -3.936  -0.822   5.204  0.00  0.00    +0.015 A 
ATOM      6  C   UNL     1      -2.672  -0.244   5.260  0.00  0.00    +0.020 A 
ENDROOT
BRANCH   1   8
ATOM      7  N   UNL     1       0.625  -0.480   3.560  0.00  0.00    -0.313 N 
ATOM      8  C   UNL     1      -0.331  -0.065   4.415  0.00  0.00    +0.245 C 
ATOM      9  O   UNL     1      -0.086   0.811   5.222  0.00  0.00    -0.270 OA
ATOM     10  H   UNL     1       0.430  -1.178   2.916  0.00  0.00    +0.149 HD
BRANCH   7  11
ATOM     11  C   UNL     1       1.959   0.125   3.603  0.00  0.00    +0.092 C 
BRANCH  11  12
ATOM     12  C   UNL     1       2.882  -0.607   2.627  0.00  0.00    -0.055 C 
ATOM     13  C   UNL     1       4.296  -0.031   2.733  0.00  0.00    -0.008 C 
ATOM     14  C   UNL     1       2.363  -0.424   1.199  0.00  0.00    -0.008 C 
BRANCH  12  20
ATOM     15  C   UNL     1       1.894  -4.204   4.599  0.00  0.00    +0.005 C 
ATOM     16  C   UNL     1       3.330  -3.692   4.716  0.00  0.00    -0.031 C 
ATOM     17  C   UNL     1       4.235  -4.483   3.768  0.00  0.00    +0.003 C 
ATOM     18  C   UNL     1       3.784  -4.237   2.325  0.00  0.00    -0.031 C 
ATOM     19  C   UNL     1       3.814  -2.735   2.036  0.00  0.00    -0.075 C 
ATOM     20  N   UNL     1       2.910  -2.038   2.958  0.00  0.00    +0.384 N 
ATOM     21  C   UNL     1       3.377  -2.209   4.340  0.00  0.00    -0.075 C 
ATOM     22  C   UNL     1       4.729  -4.962   1.364  0.00  0.00    +0.005 C 
ATOM     23  H   UNL     1       1.980  -2.420   2.869  0.00  0.00    -0.081 HD
ENDBRANCH  12  20
ENDBRANCH  11  12
ENDBRANCH   7  11
ENDBRANCH   1   8
BRANCH   6  24
ATOM     24  S   UNL     1      -2.329   1.024   6.434  0.00  0.00    -0.115 S 
BRANCH  24  25
ATOM     25  C   UNL     1      -3.892   1.225   7.333  0.00  0.00    +0.170 C 
BRANCH  25  26
ATOM     26  C   UNL     1      -3.734   2.295   8.382  0.00  0.00    +0.230 C 
ATOM     27  O   UNL     1      -2.672   2.866   8.511  0.00  0.00    -0.274 OA
ATOM     28  N   UNL     1      -4.773   2.618   9.177  0.00  0.00    -0.270 N 
ATOM     29  C   UNL     1      -4.743   3.642  10.225  0.00  0.00    +0.118 C 
ATOM     30  C   UNL     1      -6.152   3.631  10.839  0.00  0.00    +0.056 C 
ATOM     31  C   UNL     1      -6.897   2.567  10.066  0.00  0.00    -0.024 A 
ATOM     32  C   UNL     1      -6.040   2.028   9.119  0.00  0.00    +0.039 A 
ATOM     33  C   UNL     1      -6.510   1.022   8.274  0.00  0.00    +0.024 A 
ATOM     34  C   UNL     1      -7.810   0.575   8.380  0.00  0.00    +0.002 A 
ATOM     35  C   UNL     1      -8.659   1.121   9.325  0.00  0.00    +0.000 A 
ATOM     36  C   UNL     1      -8.198   2.113  10.172  0.00  0.00    +0.005 A 
ENDBRANCH  25  26
ENDBRANCH  24  25
ENDBRANCH   6  24
TORSDOF 7
