REMARK  Name = ZINC59039144
REMARK  12 active torsions:
REMARK  status: ('A' for Active; 'I' for Inactive)
REMARK    1  A    between atoms: C_1  and  C_2
REMARK    2  A    between atoms: C_2  and  N_3
REMARK    3  A    between atoms: N_3  and  C_4
REMARK    4  A    between atoms: N_3  and  C_6
REMARK    5  A    between atoms: C_4  and  C_5
REMARK    6  A    between atoms: C_9  and  C_13
REMARK    7  A    between atoms: C_10  and  O_12
REMARK    8  A    between atoms: N_14  and  N_15
REMARK    9  A    between atoms: C_18  and  S_21
REMARK   10  A    between atoms: S_21  and  C_22
REMARK   11  A    between atoms: C_22  and  C_23
REMARK   12  A    between atoms: N_25  and  C_26
REMARK                            x       y       z     vdW  Elec       q    Type
REMARK                         _______ _______ _______ _____ _____    ______ ____
ROOT
ATOM      1  N   UNL     1      -2.390  -2.110  -8.157  0.00  0.00    -0.205 N 
ATOM      2  C   UNL     1      -1.746  -2.558  -9.295  0.00  0.00    +0.232 A 
ATOM      3  N   UNL     1      -0.457  -2.801  -9.412  0.00  0.00    -0.186 NA
ATOM      4  C   UNL     1      -0.189  -3.220 -10.653  0.00  0.00    +0.211 A 
ATOM      5  N   UNL     1      -1.304  -3.249 -11.343  0.00  0.00    -0.144 NA
ATOM      6  N   UNL     1      -2.330  -2.829 -10.482  0.00  0.00    -0.245 N 
ATOM      7  H   UNL     1      -3.348  -1.964  -8.167  0.00  0.00    +0.177 HD
ATOM      8  H   UNL     1      -3.272  -2.749 -10.698  0.00  0.00    +0.192 HD
ENDROOT
BRANCH   1  10
ATOM      9  C   UNL     1      -2.261  -1.447  -5.918  0.00  0.00    +0.142 C 
ATOM     10  N   UNL     1      -1.657  -1.868  -6.988  0.00  0.00    -0.187 NA
BRANCH   9  14
ATOM     11  C   UNL     1      -0.039  -0.712  -2.372  0.00  0.00    +0.033 A 
ATOM     12  C   UNL     1      -1.415  -0.502  -2.388  0.00  0.00    +0.024 A 
ATOM     13  C   UNL     1      -2.138  -0.739  -3.536  0.00  0.00    +0.015 A 
ATOM     14  C   UNL     1      -1.490  -1.192  -4.689  0.00  0.00    +0.036 A 
ATOM     15  C   UNL     1      -0.104  -1.403  -4.671  0.00  0.00    +0.127 A 
ATOM     16  C   UNL     1       0.614  -1.157  -3.514  0.00  0.00    +0.069 A 
BRANCH  15  17
ATOM     17  O   UNL     1       0.532  -1.843  -5.787  0.00  0.00    -0.506 OA
ATOM     18  H   UNL     1       0.847  -1.135  -6.365  0.00  0.00    +0.292 HD
ENDBRANCH  15  17
BRANCH  11  19
ATOM     19  N   UNL     1       0.687  -0.469  -1.206  0.00  0.00    -0.330 N 
BRANCH  19  21
ATOM     20  C   UNL     1      -0.031   1.530   0.007  0.00  0.00    +0.024 C 
ATOM     21  C   UNL     1       0.001   0.000   0.001  0.00  0.00    +0.102 C 
ENDBRANCH  19  21
BRANCH  19  22
ATOM     22  C   UNL     1       2.136  -0.684  -1.187  0.00  0.00    +0.102 C 
ATOM     23  C   UNL     1       2.433  -2.125  -0.767  0.00  0.00    +0.024 C 
ENDBRANCH  19  22
ENDBRANCH  11  19
ENDBRANCH   9  14
ENDBRANCH   1  10
BRANCH   4  24
ATOM     24  S   UNL     1       1.405  -3.660 -11.262  0.00  0.00    -0.075 S 
BRANCH  24  25
ATOM     25  C   UNL     1       1.100  -4.133 -12.987  0.00  0.00    +0.173 C 
BRANCH  25  26
ATOM     26  C   UNL     1       2.400  -4.537 -13.634  0.00  0.00    +0.227 C 
ATOM     27  O   UNL     1       3.430  -4.509 -12.995  0.00  0.00    -0.275 OA
ATOM     28  N   UNL     1       2.417  -4.930 -14.923  0.00  0.00    -0.285 N 
ATOM     29  H   UNL     1       1.585  -5.017 -15.415  0.00  0.00    +0.155 HD
BRANCH  28  30
ATOM     30  C   UNL     1       3.635  -5.213 -15.553  0.00  0.00    +0.035 A 
ATOM     31  C   UNL     1       3.812  -4.905 -16.895  0.00  0.00    +0.026 A 
ATOM     32  C   UNL     1       5.014  -5.184 -17.515  0.00  0.00    +0.041 A 
ATOM     33  C   UNL     1       6.044  -5.771 -16.798  0.00  0.00    +0.142 A 
ATOM     34  C   UNL     1       5.870  -6.079 -15.459  0.00  0.00    +0.078 A 
ATOM     35  C   UNL     1       4.670  -5.796 -14.834  0.00  0.00    +0.046 A 
ATOM     36 CL   UNL     1       7.162  -6.815 -14.563  0.00  0.00    -0.081 Cl
ATOM     37  F   UNL     1       7.219  -6.044 -17.407  0.00  0.00    -0.204 F 
ENDBRANCH  28  30
ENDBRANCH  25  26
ENDBRANCH  24  25
ENDBRANCH   4  24
TORSDOF 10
