REMARK  Name = ZINC43248671
REMARK  8 active torsions:
REMARK  status: ('A' for Active; 'I' for Inactive)
REMARK    1  A    between atoms: C_1  and  C_2
REMARK    2  A    between atoms: C_6  and  C_7
REMARK    3  A    between atoms: C_7  and  C_9
REMARK    4  A    between atoms: C_7  and  N_13
REMARK    5  A    between atoms: C_9  and  C_11
REMARK    6  A    between atoms: C_9  and  N_12
REMARK    7  A    between atoms: C_17  and  C_19
REMARK    8  A    between atoms: N_21  and  C_22
REMARK                            x       y       z     vdW  Elec       q    Type
REMARK                         _______ _______ _______ _____ _____    ______ ____
ROOT
ATOM      1  C   UNL     1      -0.347   0.408   1.866  0.00  0.00    -0.013 C 
ENDROOT
BRANCH   1   7
ATOM      2  C   UNL     1      -1.533   1.837  -0.581  0.00  0.00    +0.044 C 
ATOM      3  C   UNL     1      -1.026   0.418  -0.628  0.00  0.00    -0.042 A 
ATOM      4  C   UNL     1      -1.073  -0.304  -1.805  0.00  0.00    +0.011 A 
ATOM      5  C   UNL     1      -0.608  -1.578  -1.813  0.00  0.00    +0.045 A 
ATOM      6  S   UNL     1      -0.082  -1.790  -0.121  0.00  0.00    -0.103 S 
ATOM      7  C   UNL     1      -0.512  -0.165   0.482  0.00  0.00    -0.019 A 
ENDBRANCH   1   7
BRANCH   1   8
ATOM      8  N   UNL     1      -0.866  -0.546   2.856  0.00  0.00    +0.393 N 
ATOM      9  C   UNL     1      -0.670  -0.016   4.229  0.00  0.00    -0.077 C 
ATOM     10  C   UNL     1      -1.718  -0.795   5.063  0.00  0.00    -0.020 C 
ATOM     11  C   UNL     1      -2.922  -0.895   4.098  0.00  0.00    -0.008 C 
ATOM     12  C   UNL     1      -2.326  -0.709   2.690  0.00  0.00    +0.020 C 
ATOM     13  H   UNL     1      -0.403  -1.437   2.757  0.00  0.00    -0.080 HD
BRANCH  12  14
ATOM     14  C   UNL     1      -2.615  -1.924   1.846  0.00  0.00    +0.199 C 
ATOM     15  O   UNL     1      -1.858  -2.871   1.868  0.00  0.00    -0.278 OA
ATOM     16  N   UNL     1      -3.714  -1.957   1.067  0.00  0.00    -0.320 N 
ATOM     17  C   UNL     1      -3.995  -3.138   0.247  0.00  0.00    +0.128 C 
ATOM     18  H   UNL     1      -4.320  -1.200   1.050  0.00  0.00    +0.148 HD
ENDBRANCH  12  14
ENDBRANCH   1   8
BRANCH   1  19
ATOM     19  C   UNL     1       1.136   0.668   2.137  0.00  0.00    +0.039 C 
ATOM     20  C   UNL     1       1.892  -0.662   2.157  0.00  0.00    +0.022 C 
BRANCH  19  21
ATOM     21  N   UNL     1       1.684   1.527   1.078  0.00  0.00    -0.329 NA
ATOM     22  H   UNL     1       2.645   1.766   1.268  0.00  0.00    +0.118 HD
ATOM     23  H   UNL     1       1.592   1.089   0.174  0.00  0.00    +0.118 HD
ENDBRANCH  19  21
ENDBRANCH   1  19
TORSDOF 5
