REMARK  Name = ZINC25518182
REMARK  6 active torsions:
REMARK  status: ('A' for Active; 'I' for Inactive)
REMARK    1  A    between atoms: C_5  and  S_6
REMARK    2  A    between atoms: S_6  and  N_9
REMARK    3  A    between atoms: C_13  and  C_16
REMARK    4  A    between atoms: N_18  and  C_19
REMARK    5  A    between atoms: N_22  and  C_25
REMARK    6  A    between atoms: C_25  and  C_26
REMARK                            x       y       z     vdW  Elec       q    Type
REMARK                         _______ _______ _______ _____ _____    ______ ____
ROOT
ATOM      1  C   UNL     1      -2.608   7.411   4.013  0.00  0.00    +0.218 C 
ATOM      2  O   UNL     1      -1.434   7.314   4.301  0.00  0.00    -0.275 OA
ATOM      3  N   UNL     1      -3.338   8.437   4.494  0.00  0.00    -0.312 N 
ATOM      4  H   UNL     1      -4.403   8.525   4.233  0.00  0.00    +0.149 HD
ENDROOT
BRANCH   3   5
ATOM      5  C   UNL     1      -2.712   9.436   5.364  0.00  0.00    +0.069 C 
ATOM      6  C   UNL     1      -2.735   8.939   6.812  0.00  0.00    +0.003 C 
ATOM      7  C   UNL     1      -2.137  10.013   7.724  0.00  0.00    -0.076 C 
ATOM      8  N   UNL     1      -2.915  11.252   7.600  0.00  0.00    +0.385 N 
ATOM      9  C   UNL     1      -2.867  11.774   6.228  0.00  0.00    -0.076 C 
ATOM     10  C   UNL     1      -3.488  10.753   5.272  0.00  0.00    +0.003 C 
ATOM     11  H   UNL     1      -3.963  11.015   7.833  0.00  0.00    -0.081 HD
BRANCH   8  12
ATOM     12  C   UNL     1      -2.454  12.261   8.563  0.00  0.00    +0.018 C 
BRANCH  12  13
ATOM     13  C   UNL     1      -3.428  13.411   8.591  0.00  0.00    +0.194 C 
ATOM     14  O   UNL     1      -4.465  13.342   7.966  0.00  0.00    -0.278 OA
ATOM     15  N   UNL     1      -3.146  14.516   9.309  0.00  0.00    -0.331 N 
ATOM     16  H   UNL     1      -3.857  15.355   9.329  0.00  0.00    +0.145 HD
ATOM     17  H   UNL     1      -2.205  14.578   9.876  0.00  0.00    +0.145 HD
ENDBRANCH  12  13
ENDBRANCH   8  12
ENDBRANCH   3   5
BRANCH   1  22
ATOM     18  N   UNL     1      -2.882   4.272   1.952  0.00  0.00    -0.175 NA
ATOM     19  C   UNL     1      -4.056   3.613   2.540  0.00  0.00    +0.109 C 
ATOM     20  C   UNL     1      -5.073   4.679   2.947  0.00  0.00    +0.018 C 
ATOM     21  C   UNL     1      -4.398   5.699   3.867  0.00  0.00    +0.015 C 
ATOM     22  C   UNL     1      -3.252   6.383   3.118  0.00  0.00    +0.091 C 
ATOM     23  C   UNL     1      -2.212   5.333   2.715  0.00  0.00    +0.122 C 
BRANCH  18  24
ATOM     24  S   UNL     1      -2.329   3.831   0.454  0.00  0.00    +0.067 S 
ATOM     25  O   UNL     1      -1.617   4.948  -0.060  0.00  0.00    -0.152 OA
ATOM     26  O   UNL     1      -3.430   3.249  -0.230  0.00  0.00    -0.152 OA
BRANCH  24  31
ATOM     27  C   UNL     1      -1.342   1.205   0.731  0.00  0.00    +0.037 A 
ATOM     28  C   UNL     1      -0.255   0.376   0.936  0.00  0.00    +0.025 A 
ATOM     29  C   UNL     1       0.975   0.929   1.083  0.00  0.00    +0.057 A 
ATOM     30  S   UNL     1       0.616   2.672   0.939  0.00  0.00    -0.062 S 
ATOM     31  C   UNL     1      -1.148   2.546   0.693  0.00  0.00    +0.144 A 
ATOM     32 BR   UNL     1       2.639   0.076   1.367  0.00  0.00    -0.043 Br
ENDBRANCH  24  31
ENDBRANCH  18  24
ENDBRANCH   1  22
TORSDOF 6
