REMARK  Name = ZINC04011476
REMARK  8 active torsions:
REMARK  status: ('A' for Active; 'I' for Inactive)
REMARK    1  A    between atoms: C_1  and  C_2
REMARK    2  A    between atoms: C_17  and  C_29
REMARK    3  A    between atoms: C_22  and  C_23
REMARK    4  A    between atoms: C_22  and  O_28
REMARK    5  A    between atoms: C_23  and  N_24
REMARK    6  A    between atoms: N_24  and  C_25
REMARK    7  A    between atoms: C_25  and  C_26
REMARK    8  A    between atoms: C_26  and  O_27
REMARK                            x       y       z     vdW  Elec       q    Type
REMARK                         _______ _______ _______ _____ _____    ______ ____
ROOT
ATOM      1  C   UNL     1      -0.019   1.526   0.010  0.00  0.00    +0.012 C 
ATOM      2  C   UNL     1       0.002  -0.004   0.002  0.00  0.00    -0.026 C 
ATOM      3  C   UNL     1      -1.433  -0.533   0.012  0.00  0.00    +0.007 C 
ATOM      4  C   UNL     1      -2.150  -0.040   1.271  0.00  0.00    +0.001 C 
ATOM      5  C   UNL     1      -1.411  -0.547   2.511  0.00  0.00    +0.000 C 
ATOM      6  C   UNL     1       0.025  -0.018   2.501  0.00  0.00    +0.004 C 
ATOM      7  C   UNL     1       0.742  -0.511   1.242  0.00  0.00    -0.005 C 
ATOM      8  C   UNL     1       2.177   0.022   1.230  0.00  0.00    +0.004 C 
ATOM      9  C   UNL     1       2.894  -0.471  -0.028  0.00  0.00    +0.004 C 
ATOM     10  C   UNL     1       2.152   0.031  -1.269  0.00  0.00    -0.004 C 
ATOM     11  C   UNL     1       0.719  -0.497  -1.257  0.00  0.00    -0.001 C 
ATOM     12  C   UNL     1      -0.007   0.039  -2.495  0.00  0.00    +0.005 C 
ATOM     13  C   UNL     1       0.678  -0.518  -3.740  0.00  0.00    +0.010 C 
ATOM     14  C   UNL     1       2.130  -0.041  -3.820  0.00  0.00    -0.002 C 
ATOM     15  C   UNL     1       2.874  -0.398  -2.524  0.00  0.00    +0.001 C 
ATOM     16  C   UNL     1       3.066  -1.923  -2.604  0.00  0.00    +0.007 C 
ATOM     17  C   UNL     1       3.382  -2.169  -4.097  0.00  0.00    +0.034 C 
ATOM     18  C   UNL     1       2.835  -0.932  -4.877  0.00  0.00    +0.057 C 
ATOM     19  C   UNL     1       2.215   1.444  -4.180  0.00  0.00    +0.014 C 
ENDROOT
BRANCH  18  20
ATOM     20  O   UNL     1       3.876  -0.196  -5.522  0.00  0.00    -0.390 OA
ATOM     21  H   UNL     1       4.355  -0.700  -6.195  0.00  0.00    +0.210 HD
ENDBRANCH  18  20
BRANCH  18  22
ATOM     22  C   UNL     1       1.820  -1.424  -5.910  0.00  0.00    -0.047 C 
BRANCH  22  23
ATOM     23  N   UNL     1       2.475  -2.360  -6.833  0.00  0.00    +0.382 N 
ATOM     24  H   UNL     1       3.235  -1.892  -7.304  0.00  0.00    -0.086 HD
ATOM     25  H   UNL     1       2.835  -3.147  -6.314  0.00  0.00    -0.086 HD
BRANCH  23  26
ATOM     26  C   UNL     1       1.500  -2.833  -7.825  0.00  0.00    -0.054 C 
BRANCH  26  27
ATOM     27  C   UNL     1       2.183  -3.808  -8.787  0.00  0.00    +0.137 C 
BRANCH  27  28
ATOM     28  O   UNL     1       2.590  -4.976  -8.071  0.00  0.00    -0.397 OA
ATOM     29  H   UNL     1       3.031  -5.639  -8.619  0.00  0.00    +0.209 HD
ENDBRANCH  27  28
ENDBRANCH  26  27
ENDBRANCH  23  26
ENDBRANCH  22  23
ENDBRANCH  18  22
TORSDOF 6
