REMARK  Name = ZINC56898605
REMARK  11 active torsions:
REMARK  status: ('A' for Active; 'I' for Inactive)
REMARK    1  A    between atoms: C_1  and  C_2
REMARK    2  A    between atoms: C_2  and  C_4
REMARK    3  A    between atoms: C_2  and  N_17
REMARK    4  A    between atoms: C_7  and  N_10
REMARK    5  A    between atoms: N_13  and  C_16
REMARK    6  A    between atoms: N_20  and  N_21
REMARK    7  A    between atoms: C_22  and  O_24
REMARK    8  A    between atoms: O_24  and  C_25
REMARK    9  A    between atoms: C_25  and  C_26
REMARK   10  A    between atoms: C_25  and  C_27
REMARK   11  A    between atoms: C_25  and  C_28
REMARK                            x       y       z     vdW  Elec       q    Type
REMARK                         _______ _______ _______ _____ _____    ______ ____
ROOT
ATOM      1  C   UNL     1      -0.033   1.525   0.019  0.00  0.00    +0.033 C 
ATOM      2  C   UNL     1       0.002  -0.004   0.002  0.00  0.00    +0.102 C 
ENDROOT
BRANCH   2   3
ATOM      3  C   UNL     1       0.731  -0.503   1.223  0.00  0.00    -0.027 A 
ATOM      4  C   UNL     1       0.075  -0.571   2.438  0.00  0.00    +0.007 A 
ATOM      5  C   UNL     1       0.740  -1.028   3.559  0.00  0.00    +0.023 A 
ATOM      6  C   UNL     1       2.069  -1.420   3.465  0.00  0.00    +0.030 A 
ATOM      7  C   UNL     1       2.725  -1.351   2.242  0.00  0.00    +0.023 A 
ATOM      8  C   UNL     1       2.053  -0.898   1.124  0.00  0.00    +0.007 A 
BRANCH   6   9
ATOM      9  N   UNL     1       2.745  -1.882   4.596  0.00  0.00    -0.333 N 
ATOM     10  C   UNL     1       4.114  -2.412   4.496  0.00  0.00    +0.086 C 
ATOM     11  C   UNL     1       4.982  -1.717   5.550  0.00  0.00    -0.060 C 
ATOM     12  N   UNL     1       4.366  -1.876   6.873  0.00  0.00    +0.380 N 
ATOM     13  C   UNL     1       3.071  -1.183   6.909  0.00  0.00    -0.060 C 
ATOM     14  C   UNL     1       2.110  -1.847   5.923  0.00  0.00    +0.086 C 
ATOM     15  C   UNL     1       5.252  -1.305   7.896  0.00  0.00    -0.096 C 
ATOM     16  H   UNL     1       4.226  -2.857   7.062  0.00  0.00    -0.082 HD
ENDBRANCH   6   9
ENDBRANCH   2   3
BRANCH   2  17
ATOM     17  N   UNL     1      -1.367  -0.524   0.004  0.00  0.00    -0.292 N 
ATOM     18  C   UNL     1      -2.040  -0.656  -1.156  0.00  0.00    +0.316 C 
ATOM     19  O   UNL     1      -1.510  -0.343  -2.205  0.00  0.00    -0.251 OA
ATOM     20  N   UNL     1      -3.300  -1.134  -1.154  0.00  0.00    -0.216 N 
ATOM     21  H   UNL     1      -1.790  -0.774   0.841  0.00  0.00    +0.151 HD
ATOM     22  H   UNL     1      -3.784  -1.229  -1.990  0.00  0.00    +0.174 HD
BRANCH  20  23
ATOM     23  N   UNL     1      -3.910  -1.495   0.054  0.00  0.00    -0.198 N 
ATOM     24  C   UNL     1      -5.170  -1.974   0.056  0.00  0.00    +0.417 C 
ATOM     25  O   UNL     1      -5.700  -2.287   1.104  0.00  0.00    -0.225 OA
ATOM     26  H   UNL     1      -3.426  -1.401   0.889  0.00  0.00    +0.176 HD
BRANCH  24  27
ATOM     27  O   UNL     1      -5.842  -2.105  -1.103  0.00  0.00    -0.444 OA
BRANCH  27  28
ATOM     28  C   UNL     1      -7.174  -2.619  -1.027  0.00  0.00    +0.107 C 
ATOM     29  C   UNL     1      -8.028  -1.693  -0.159  0.00  0.00    +0.055 C 
ATOM     30  C   UNL     1      -7.772  -2.696  -2.433  0.00  0.00    +0.055 C 
ATOM     31  C   UNL     1      -7.146  -4.018  -0.407  0.00  0.00    +0.055 C 
ENDBRANCH  27  28
ENDBRANCH  24  27
ENDBRANCH  20  23
ENDBRANCH   2  17
TORSDOF 6
