REMARK  Name = ZINC51713558
REMARK  7 active torsions:
REMARK  status: ('A' for Active; 'I' for Inactive)
REMARK    1  A    between atoms: C_1  and  C_2
REMARK    2  A    between atoms: C_3  and  C_7
REMARK    3  A    between atoms: N_9  and  C_10
REMARK    4  A    between atoms: N_18  and  C_19
REMARK    5  A    between atoms: N_23  and  C_25
REMARK    6  A    between atoms: C_25  and  C_26
REMARK    7  A    between atoms: C_25  and  C_27
REMARK                            x       y       z     vdW  Elec       q    Type
REMARK                         _______ _______ _______ _____ _____    ______ ____
ROOT
ATOM      1  C   UNL     1      -0.016  -0.665  -4.962  0.00  0.00    +0.076 C 
ATOM      2  C   UNL     1      -1.459  -0.399  -5.396  0.00  0.00    +0.041 C 
ATOM      3  C   UNL     1      -1.466   0.131  -6.834  0.00  0.00    +0.111 C 
ATOM      4  N   UNL     1      -0.744  -0.819  -7.691  0.00  0.00    -0.286 N 
ATOM      5  C   UNL     1       0.620  -1.214  -7.314  0.00  0.00    +0.111 C 
ATOM      6  C   UNL     1       0.604  -1.728  -5.871  0.00  0.00    +0.041 C 
ATOM      7  C   UNL     1      -1.321  -1.319  -8.801  0.00  0.00    +0.302 C 
ATOM      8  O   UNL     1      -0.682  -2.031  -9.551  0.00  0.00    -0.253 OA
ATOM      9  N   UNL     1      -2.607  -1.028  -9.081  0.00  0.00    -0.298 N 
ATOM     10  H   UNL     1      -3.095  -0.402  -8.524  0.00  0.00    +0.150 HD
ENDROOT
BRANCH   9  11
ATOM     11  C   UNL     1      -3.268  -1.659 -10.226  0.00  0.00    +0.056 C 
ATOM     12  C   UNL     1      -3.032  -0.827 -11.507  0.00  0.00    +0.002 C 
ATOM     13  C   UNL     1      -4.399  -0.910 -12.231  0.00  0.00    -0.077 C 
ATOM     14  N   UNL     1      -5.379  -0.854 -11.116  0.00  0.00    +0.382 N 
ATOM     15  C   UNL     1      -4.795  -1.667 -10.024  0.00  0.00    -0.056 C 
ATOM     16  H   UNL     1      -5.505   0.100 -10.812  0.00  0.00    -0.081 HD
BRANCH  14  17
ATOM     17  C   UNL     1      -6.664  -1.426 -11.540  0.00  0.00    -0.075 C 
ATOM     18  C   UNL     1      -7.649  -1.392 -10.370  0.00  0.00    -0.014 C 
ATOM     19  C   UNL     1      -7.226  -0.608 -12.705  0.00  0.00    -0.014 C 
ENDBRANCH  14  17
ENDBRANCH   9  11
BRANCH   1  22
ATOM     20  C   UNL     1      -0.011  -0.254  -2.560  0.00  0.00    +0.253 C 
ATOM     21  O   UNL     1      -0.028   0.940  -2.794  0.00  0.00    -0.270 OA
ATOM     22  N   UNL     1      -0.003  -1.140  -3.576  0.00  0.00    -0.308 N 
ATOM     23  H   UNL     1       0.011  -2.091  -3.389  0.00  0.00    +0.149 HD
BRANCH  20  26
ATOM     24  C   UNL     1      -0.022   1.494   0.014  0.00  0.00    +0.067 C 
ATOM     25  C   UNL     1      -0.002  -0.013   0.004  0.00  0.00    +0.058 A 
ATOM     26  C   UNL     1       0.002  -0.730  -1.172  0.00  0.00    +0.096 A 
ATOM     27  S   UNL     1       0.027  -2.399  -0.538  0.00  0.00    -0.071 S 
ATOM     28  C   UNL     1       0.029  -2.022   1.103  0.00  0.00    +0.156 A 
ATOM     29  N   UNL     1       0.018  -0.709   1.114  0.00  0.00    -0.252 NA
ENDBRANCH  20  26
ENDBRANCH   1  22
TORSDOF 4
