REMARK  Name = ZINC37138036
REMARK  7 active torsions:
REMARK  status: ('A' for Active; 'I' for Inactive)
REMARK    1  A    between atoms: C_1  and  C_2
REMARK    2  A    between atoms: C_2  and  C_4
REMARK    3  A    between atoms: C_2  and  N_11
REMARK    4  A    between atoms: C_8  and  O_10
REMARK    5  A    between atoms: N_11  and  C_12
REMARK    6  A    between atoms: C_15  and  S_19
REMARK    7  A    between atoms: S_19  and  N_22
REMARK                            x       y       z     vdW  Elec       q    Type
REMARK                         _______ _______ _______ _____ _____    ______ ____
ROOT
ATOM      1  C   UNL     1       2.080  -0.591  -1.215  0.00  0.00    +0.042 A 
ATOM      2  C   UNL     1       2.816  -0.263  -0.084  0.00  0.00    +0.026 A 
ATOM      3  C   UNL     1       4.192  -0.378  -0.099  0.00  0.00    +0.030 A 
ATOM      4  C   UNL     1       4.838  -0.819  -1.239  0.00  0.00    +0.106 A 
ATOM      5  C   UNL     1       4.110  -1.146  -2.368  0.00  0.00    +0.045 A 
ATOM      6  C   UNL     1       2.732  -1.039  -2.358  0.00  0.00    +0.041 A 
ATOM      7 BR   UNL     1       1.736  -1.494  -3.900  0.00  0.00    -0.048 Br
ENDROOT
BRANCH   4   8
ATOM      8  S   UNL     1       6.594  -0.963  -1.253  0.00  0.00    +0.056 S 
ATOM      9  O   UNL     1       6.998  -0.876  -2.613  0.00  0.00    -0.153 OA
ATOM     10  O   UNL     1       7.083  -0.077  -0.256  0.00  0.00    -0.153 OA
BRANCH   8  11
ATOM     11  N   UNL     1       6.964  -2.496  -0.747  0.00  0.00    -0.204 NA
ATOM     12  H   UNL     1       7.767  -2.933  -1.071  0.00  0.00    +0.144 HD
ATOM     13  H   UNL     1       6.378  -2.956  -0.126  0.00  0.00    +0.144 HD
ENDBRANCH   8  11
ENDBRANCH   4   8
BRANCH   1  14
ATOM     14  N   UNL     1       0.688  -0.476  -1.203  0.00  0.00    -0.336 N 
ATOM     15  H   UNL     1       0.175  -0.710  -1.993  0.00  0.00    +0.147 HD
BRANCH  14  17
ATOM     16  C   UNL     1      -0.019   1.526   0.010  0.00  0.00    +0.033 C 
ATOM     17  C   UNL     1       0.002  -0.004   0.002  0.00  0.00    +0.098 C 
BRANCH  17  18
ATOM     18  C   UNL     1      -1.412  -0.526   0.013  0.00  0.00    -0.024 A 
ATOM     19  C   UNL     1      -2.141  -0.569  -1.161  0.00  0.00    +0.005 A 
ATOM     20  C   UNL     1      -3.438  -1.046  -1.155  0.00  0.00    +0.004 A 
ATOM     21  C   UNL     1      -4.009  -1.482   0.025  0.00  0.00    +0.045 A 
ATOM     22  C   UNL     1      -3.280  -1.440   1.204  0.00  0.00    +0.117 A 
ATOM     23  C   UNL     1      -1.976  -0.966   1.194  0.00  0.00    +0.050 A 
BRANCH  22  24
ATOM     24  O   UNL     1      -3.839  -1.868   2.367  0.00  0.00    -0.507 OA
ATOM     25  H   UNL     1      -3.701  -2.808   2.547  0.00  0.00    +0.292 HD
ENDBRANCH  22  24
ENDBRANCH  17  18
ENDBRANCH  14  17
ENDBRANCH   1  14
TORSDOF 6
