REMARK  Name = ZINC39695708
REMARK  8 active torsions:
REMARK  status: ('A' for Active; 'I' for Inactive)
REMARK    1  A    between atoms: C_1  and  C_2
REMARK    2  A    between atoms: C_9  and  C_11
REMARK    3  A    between atoms: C_11  and  C_13
REMARK    4  A    between atoms: C_11  and  N_14
REMARK    5  A    between atoms: C_15  and  C_17
REMARK    6  A    between atoms: C_28  and  C_30
REMARK    7  A    between atoms: C_34  and  O_36
REMARK    8  A    between atoms: O_36  and  C_37
REMARK                            x       y       z     vdW  Elec       q    Type
REMARK                         _______ _______ _______ _____ _____    ______ ____
ROOT
ATOM      1  C   UNL     1       1.256  -8.856   1.283  0.00  0.00    +0.100 C 
ATOM      2  C   UNL     1       0.402  -9.569   0.211  0.00  0.00    +0.121 C 
ATOM      3  N   UNL     1       0.951 -10.945   0.150  0.00  0.00    -0.296 N 
ATOM      4  C   UNL     1       1.242 -11.288   1.562  0.00  0.00    +0.115 C 
ATOM      5  C   UNL     1       1.805  -9.987   2.168  0.00  0.00    -0.004 C 
ATOM      6  C   UNL     1       1.316  -9.820   3.603  0.00  0.00    -0.010 C 
ATOM      7  C   UNL     1       1.921 -10.922   4.476  0.00  0.00    -0.082 C 
ATOM      8  N   UNL     1       3.386 -10.841   4.425  0.00  0.00    +0.379 N 
ATOM      9  C   UNL     1       3.854 -11.095   3.057  0.00  0.00    -0.082 C 
ATOM     10  C   UNL     1       3.330 -10.000   2.124  0.00  0.00    -0.010 C 
ATOM     11  C   UNL     1       1.142 -11.710  -0.943  0.00  0.00    +0.247 C 
ATOM     12  O   UNL     1       0.974 -11.240  -2.051  0.00  0.00    -0.270 OA
ATOM     13  H   UNL     1       3.681  -9.920   4.714  0.00  0.00    -0.086 HD
ATOM     14  H   UNL     1       3.782 -11.528   5.048  0.00  0.00    -0.086 HD
ENDROOT
BRANCH  11  15
ATOM     15  C   UNL     1       1.556 -13.121  -0.794  0.00  0.00    +0.040 A 
ATOM     16  C   UNL     1       1.340 -13.791   0.412  0.00  0.00    +0.013 A 
ATOM     17  C   UNL     1       1.728 -15.108   0.548  0.00  0.00    +0.004 A 
ATOM     18  C   UNL     1       2.332 -15.768  -0.507  0.00  0.00    +0.045 A 
ATOM     19  C   UNL     1       2.550 -15.110  -1.710  0.00  0.00    +0.121 A 
ATOM     20  C   UNL     1       2.159 -13.790  -1.859  0.00  0.00    +0.058 A 
BRANCH  19  21
ATOM     21  O   UNL     1       3.144 -15.764  -2.743  0.00  0.00    -0.495 OA
ATOM     22  C   UNL     1       3.517 -17.125  -2.521  0.00  0.00    +0.277 C 
ENDBRANCH  19  21
ENDBRANCH  11  15
BRANCH   1  24
ATOM     23  N   UNL     1       0.940  -6.805   2.630  0.00  0.00    -0.305 N 
ATOM     24  C   UNL     1       0.401  -7.920   2.097  0.00  0.00    +0.219 C 
ATOM     25  O   UNL     1      -0.773  -8.170   2.274  0.00  0.00    -0.275 OA
ATOM     26  H   UNL     1       1.879  -6.605   2.489  0.00  0.00    +0.149 HD
BRANCH  23  27
ATOM     27  C   UNL     1       0.108  -5.896   3.422  0.00  0.00    +0.136 C 
ATOM     28  C   UNL     1      -0.615  -4.923   2.488  0.00  0.00    +0.036 C 
BRANCH  27  37
ATOM     29  C   UNL     1       3.302  -1.959   8.870  0.00  0.00    +0.044 C 
ATOM     30  C   UNL     1       3.090  -2.735   7.596  0.00  0.00    -0.048 A 
ATOM     31  C   UNL     1       4.152  -2.937   6.727  0.00  0.00    +0.005 A 
ATOM     32  C   UNL     1       3.980  -3.638   5.567  0.00  0.00    +0.030 A 
ATOM     33  C   UNL     1       2.723  -4.158   5.248  0.00  0.00    +0.089 A 
ATOM     34  C   UNL     1       1.647  -3.954   6.128  0.00  0.00    +0.067 A 
ATOM     35  C   UNL     1       1.842  -3.243   7.304  0.00  0.00    +0.031 A 
ATOM     36  N   UNL     1       0.558  -4.574   5.548  0.00  0.00    -0.340 N 
ATOM     37  C   UNL     1       0.980  -5.121   4.376  0.00  0.00    +0.128 A 
ATOM     38  N   UNL     1       2.246  -4.878   4.200  0.00  0.00    -0.231 NA
ATOM     39  H   UNL     1      -0.341  -4.614   5.910  0.00  0.00    +0.167 HD
ENDBRANCH  27  37
ENDBRANCH  23  27
ENDBRANCH   1  24
TORSDOF 5
