REMARK  Name = ZINC22589464
REMARK  10 active torsions:
REMARK  status: ('A' for Active; 'I' for Inactive)
REMARK    1  A    between atoms: C_4  and  C_7
REMARK    2  A    between atoms: C_7  and  O_8
REMARK    3  A    between atoms: O_8  and  C_9
REMARK    4  A    between atoms: C_12  and  C_18
REMARK    5  A    between atoms: C_14  and  C_15
REMARK    6  A    between atoms: C_18  and  C_20
REMARK    7  A    between atoms: C_18  and  O_34
REMARK    8  A    between atoms: C_20  and  N_21
REMARK    9  A    between atoms: N_21  and  C_22
REMARK   10  A    between atoms: C_22  and  C_23
REMARK                            x       y       z     vdW  Elec       q    Type
REMARK                         _______ _______ _______ _____ _____    ______ ____
ROOT
ATOM      1  C   UNL     1      10.477   3.057   3.204  0.00  0.00    +0.133 A 
ATOM      2  C   UNL     1       9.436   3.574   3.960  0.00  0.00    +0.047 A 
ATOM      3  C   UNL     1       8.189   2.982   3.918  0.00  0.00    +0.010 A 
ATOM      4  C   UNL     1       7.969   1.869   3.122  0.00  0.00    -0.020 A 
ATOM      5  C   UNL     1       8.993   1.340   2.368  0.00  0.00    +0.022 A 
ATOM      6  C   UNL     1      10.258   1.932   2.397  0.00  0.00    +0.078 A 
ENDROOT
BRANCH   6   7
ATOM      7  C   UNL     1      11.358   1.374   1.588  0.00  0.00    +0.245 C 
ATOM      8  O   UNL     1      12.459   1.889   1.620  0.00  0.00    -0.270 OA
ATOM      9  N   UNL     1      11.143   0.292   0.814  0.00  0.00    -0.325 N 
ATOM     10  H   UNL     1      11.963  -0.125   0.210  0.00  0.00    +0.145 HD
ATOM     11  H   UNL     1      10.147  -0.175   0.785  0.00  0.00    +0.145 HD
ENDBRANCH   6   7
BRANCH   1  12
ATOM     12  O   UNL     1      11.702   3.639   3.244  0.00  0.00    -0.487 OA
BRANCH  12  13
ATOM     13  C   UNL     1      11.851   4.782   4.088  0.00  0.00    +0.264 C 
BRANCH  13  17
ATOM     14  C   UNL     1      15.867   6.216   3.852  0.00  0.00    +0.000 A 
ATOM     15  C   UNL     1      14.909   6.697   2.979  0.00  0.00    +0.000 A 
ATOM     16  C   UNL     1      13.609   6.232   3.055  0.00  0.00    +0.007 A 
ATOM     17  C   UNL     1      13.268   5.288   4.005  0.00  0.00    -0.010 A 
ATOM     18  C   UNL     1      14.225   4.811   4.881  0.00  0.00    +0.007 A 
ATOM     19  C   UNL     1      15.526   5.271   4.801  0.00  0.00    +0.000 A 
ENDBRANCH  13  17
ENDBRANCH  12  13
ENDBRANCH   1  12
BRANCH   4  20
ATOM     20  C   UNL     1       6.603   1.233   3.085  0.00  0.00    +0.128 C 
BRANCH  20  21
ATOM     21  O   UNL     1       6.000   1.325   4.377  0.00  0.00    -0.389 OA
ATOM     22  H   UNL     1       4.994   0.912   4.545  0.00  0.00    +0.210 HD
ENDBRANCH  20  21
BRANCH  20  23
ATOM     23  C   UNL     1       5.729   1.959   2.060  0.00  0.00    -0.046 C 
BRANCH  23  24
ATOM     24  N   UNL     1       4.399   1.338   2.024  0.00  0.00    +0.383 N 
ATOM     25  H   UNL     1       4.495   0.280   1.739  0.00  0.00    -0.086 HD
ATOM     26  H   UNL     1       3.934   1.409   3.018  0.00  0.00    -0.086 HD
BRANCH  24  27
ATOM     27  C   UNL     1       3.530   2.011   1.049  0.00  0.00    -0.034 C 
BRANCH  27  28
ATOM     28  C   UNL     1       2.156   1.338   1.040  0.00  0.00    +0.194 C 
ATOM     29  C   UNL     1       1.254   2.018   0.001  0.00  0.00    +0.271 C 
ATOM     30  O   UNL     1      -0.016   1.357   0.009  0.00  0.00    -0.485 OA
ATOM     31  C   UNL     1       0.002  -0.004   0.002  0.00  0.00    +0.162 A 
ATOM     32  C   UNL     1      -1.147  -0.699  -0.346  0.00  0.00    +0.049 A 
ATOM     33  C   UNL     1      -1.144  -2.081  -0.356  0.00  0.00    +0.004 A 
ATOM     34  C   UNL     1       0.003  -2.775  -0.018  0.00  0.00    +0.004 A 
ATOM     35  C   UNL     1       1.151  -2.089   0.328  0.00  0.00    +0.049 A 
ATOM     36  C   UNL     1       1.156  -0.702   0.339  0.00  0.00    +0.162 A 
ATOM     37  O   UNL     1       2.296  -0.040   0.679  0.00  0.00    -0.484 OA
ENDBRANCH  27  28
ENDBRANCH  24  27
ENDBRANCH  23  24
ENDBRANCH  20  23
ENDBRANCH   4  20
TORSDOF 10
